MODEL        1
REMARK 921   NORMALIZED FREE ENERGY PREDICTED BY IDOCK:   -6.60 KCAL/MOL
REMARK 922        TOTAL FREE ENERGY PREDICTED BY IDOCK:   -7.64 KCAL/MOL
REMARK 923 INTER-LIGAND FREE ENERGY PREDICTED BY IDOCK:   -7.37 KCAL/MOL
REMARK 924 INTRA-LIGAND FREE ENERGY PREDICTED BY IDOCK:   -0.27 KCAL/MOL
REMARK 927      BINDING AFFINITY PREDICTED BY RF-SCORE:    0.00 PKD
ROOT
HETATM    1  N   UNL     1     -12.396  14.206  63.396  1.00  0.00    -1.144 NA 
HETATM    2  H1  UNL     1     -12.675  13.241  63.216  1.00  0.00     0.000 HD 
HETATM    3  H2  UNL     1     -11.894  14.625  62.613  1.00  0.00     0.000 HD 
HETATM    4  CA  UNL     1     -11.602  14.223  64.679  1.00  0.00    -0.408 C  
HETATM    5  OXT UNL     1     -10.618  16.064  65.956  1.00  0.00    -0.323 OA 
HETATM    6  C   UNL     1     -11.182  15.673  64.947  1.00  0.00    -0.369 C  
HETATM    7  O   UNL     1     -11.536  16.493  63.921  1.00  0.00    -1.175 OA 
ENDROOT
BRANCH   4   8
HETATM    8  C   UNL     1     -10.330  13.331  64.707  1.00  0.00    -0.363 C  
HETATM    9  O   UNL     1      -9.993  12.893  63.387  1.00  0.00    -0.616 OA 
HETATM   10  H   UNL     1      -9.216  12.347  63.404  1.00  0.00     0.000 HD 
BRANCH   8  11
HETATM   11  C   UNL     1     -10.518  12.106  65.590  1.00  0.00    -0.290 A  
HETATM   12  C   UNL     1     -11.380  12.140  66.704  1.00  0.00    -0.405 A  
HETATM   13  C   UNL     1     -11.490  11.030  67.533  1.00  0.00    -0.185 A  
HETATM   14  C   UNL     1     -10.761   9.878  67.261  1.00  0.00    -0.238 A  
HETATM   15  O   UNL     1     -12.295  11.032  68.637  1.00  0.00    -0.753 OA 
HETATM   16  H   UNL     1     -12.370  10.274  69.204  1.00  0.00     0.000 HD 
HETATM   17  O   UNL     1     -10.865   8.796  68.086  1.00  0.00    -0.446 OA 
HETATM   18  C   UNL     1      -9.921   9.813  66.160  1.00  0.00    -0.338 A  
HETATM   19  C   UNL     1      -9.795  10.929  65.326  1.00  0.00    -0.318 A  
HETATM   20  H   UNL     1     -10.366   8.009  67.901  1.00  0.00     0.000 HD 
ENDBRANCH   8  11
ENDBRANCH   4   8
TORSDOF 2
ENDMDL
MODEL        2
REMARK 921   NORMALIZED FREE ENERGY PREDICTED BY IDOCK:   -6.37 KCAL/MOL
REMARK 922        TOTAL FREE ENERGY PREDICTED BY IDOCK:   -7.39 KCAL/MOL
REMARK 923 INTER-LIGAND FREE ENERGY PREDICTED BY IDOCK:   -7.11 KCAL/MOL
REMARK 924 INTRA-LIGAND FREE ENERGY PREDICTED BY IDOCK:   -0.28 KCAL/MOL
REMARK 927      BINDING AFFINITY PREDICTED BY RF-SCORE:    0.00 PKD
ROOT
HETATM    1  N   UNL     1     -12.187  10.900  68.600  1.00  0.00    -0.810 NA 
HETATM    2  H1  UNL     1     -12.750  11.705  68.874  1.00  0.00     0.000 HD 
HETATM    3  H2  UNL     1     -11.629  10.527  69.368  1.00  0.00     0.000 HD 
HETATM    4  CA  UNL     1     -11.351  11.307  67.412  1.00  0.00    -0.276 C  
HETATM    5  OXT UNL     1      -9.792  10.043  66.012  1.00  0.00    -0.222 OA 
HETATM    6  C   UNL     1     -10.504  10.097  67.001  1.00  0.00    -0.240 C  
HETATM    7  O   UNL     1     -10.658   9.063  67.872  1.00  0.00    -0.234 OA 
ENDROOT
BRANCH   4   8
HETATM    8  C   UNL     1     -10.402  12.519  67.628  1.00  0.00    -0.218 C  
HETATM    9  O   UNL     1     -10.529  13.026  68.960  1.00  0.00    -0.412 OA 
HETATM   10  H   UNL     1      -9.949  13.766  69.093  1.00  0.00     0.000 HD 
BRANCH   8  11
HETATM   11  C   UNL     1     -10.695  13.648  66.651  1.00  0.00    -0.280 A  
HETATM   12  C   UNL     1     -11.571  13.458  65.564  1.00  0.00    -0.346 A  
HETATM   13  C   UNL     1     -11.777  14.483  64.649  1.00  0.00    -0.431 A  
HETATM   14  C   UNL     1     -11.132  15.704  64.807  1.00  0.00    -0.412 A  
HETATM   15  O   UNL     1     -12.598  14.329  63.567  1.00  0.00    -1.039 OA 
HETATM   16  H   UNL     1     -12.739  15.029  62.941  1.00  0.00     0.000 HD 
HETATM   17  O   UNL     1     -11.330  16.702  63.898  1.00  0.00    -1.558 OA 
HETATM   18  C   UNL     1     -10.281  15.922  65.881  1.00  0.00    -0.373 A  
HETATM   19  C   UNL     1     -10.059  14.893  66.801  1.00  0.00    -0.254 A  
HETATM   20  H   UNL     1     -10.889  17.537  64.006  1.00  0.00     0.000 HD 
ENDBRANCH   8  11
ENDBRANCH   4   8
TORSDOF 2
ENDMDL
MODEL        3
REMARK 921   NORMALIZED FREE ENERGY PREDICTED BY IDOCK:   -6.34 KCAL/MOL
REMARK 922        TOTAL FREE ENERGY PREDICTED BY IDOCK:   -7.35 KCAL/MOL
REMARK 923 INTER-LIGAND FREE ENERGY PREDICTED BY IDOCK:   -7.09 KCAL/MOL
REMARK 924 INTRA-LIGAND FREE ENERGY PREDICTED BY IDOCK:   -0.26 KCAL/MOL
REMARK 927      BINDING AFFINITY PREDICTED BY RF-SCORE:    0.00 PKD
ROOT
HETATM    1  N   UNL     1      -9.307  15.278  69.758  1.00  0.00    -0.448 NA 
HETATM    2  H1  UNL     1      -8.645  15.143  68.994  1.00  0.00     0.000 HD 
HETATM    3  H2  UNL     1      -9.109  14.683  70.563  1.00  0.00     0.000 HD 
HETATM    4  CA  UNL     1     -10.696  15.074  69.205  1.00  0.00    -0.248 C  
HETATM    5  OXT UNL     1     -12.904  15.290  70.237  1.00  0.00    -0.341 OA 
HETATM    6  C   UNL     1     -11.690  15.276  70.355  1.00  0.00    -0.310 C  
HETATM    7  O   UNL     1     -11.049  15.464  71.541  1.00  0.00    -0.363 OA 
ENDROOT
BRANCH   4   8
HETATM    8  C   UNL     1     -10.975  13.692  68.553  1.00  0.00    -0.267 C  
HETATM    9  O   UNL     1      -9.832  12.838  68.675  1.00  0.00    -0.361 OA 
HETATM   10  H   UNL     1     -10.003  11.992  68.276  1.00  0.00     0.000 HD 
BRANCH   8  11
HETATM   11  C   UNL     1     -11.326  13.822  67.079  1.00  0.00    -0.345 A  
HETATM   12  C   UNL     1     -11.006  14.989  66.357  1.00  0.00    -0.336 A  
HETATM   13  C   UNL     1     -11.391  15.112  65.028  1.00  0.00    -0.380 A  
HETATM   14  C   UNL     1     -12.081  14.082  64.399  1.00  0.00    -0.458 A  
HETATM   15  O   UNL     1     -11.122  16.238  64.301  1.00  0.00    -1.120 OA 
HETATM   16  H   UNL     1     -11.385  16.323  63.393  1.00  0.00     0.000 HD 
HETATM   17  O   UNL     1     -12.466  14.215  63.097  1.00  0.00    -1.126 OA 
HETATM   18  C   UNL     1     -12.390  12.916  65.083  1.00  0.00    -0.547 A  
HETATM   19  C   UNL     1     -12.017  12.787  66.424  1.00  0.00    -0.443 A  
HETATM   20  H   UNL     1     -12.938  13.511  62.667  1.00  0.00     0.000 HD 
ENDBRANCH   8  11
ENDBRANCH   4   8
TORSDOF 2
ENDMDL
MODEL        4
REMARK 921   NORMALIZED FREE ENERGY PREDICTED BY IDOCK:   -6.26 KCAL/MOL
REMARK 922        TOTAL FREE ENERGY PREDICTED BY IDOCK:   -7.26 KCAL/MOL
REMARK 923 INTER-LIGAND FREE ENERGY PREDICTED BY IDOCK:   -7.00 KCAL/MOL
REMARK 924 INTRA-LIGAND FREE ENERGY PREDICTED BY IDOCK:   -0.26 KCAL/MOL
REMARK 927      BINDING AFFINITY PREDICTED BY RF-SCORE:    0.00 PKD
ROOT
HETATM    1  N   UNL     1     -12.483  13.990  63.454  1.00  0.00    -1.123 NA 
HETATM    2  H1  UNL     1     -12.717  13.004  63.341  1.00  0.00     0.000 HD 
HETATM    3  H2  UNL     1     -12.043  14.390  62.626  1.00  0.00     0.000 HD 
HETATM    4  CA  UNL     1     -11.631  14.121  64.692  1.00  0.00    -0.406 C  
HETATM    5  OXT UNL     1     -10.689  16.080  65.818  1.00  0.00    -0.333 OA 
HETATM    6  C   UNL     1     -11.279  15.604  64.862  1.00  0.00    -0.369 C  
HETATM    7  O   UNL     1     -11.727  16.345  63.812  1.00  0.00    -1.049 OA 
ENDROOT
BRANCH   4   8
HETATM    8  C   UNL     1     -10.312  13.300  64.704  1.00  0.00    -0.375 C  
HETATM    9  O   UNL     1      -9.960  12.895  63.377  1.00  0.00    -0.616 OA 
HETATM   10  H   UNL     1      -9.154  12.393  63.384  1.00  0.00     0.000 HD 
BRANCH   8  11
HETATM   11  C   UNL     1     -10.427  12.057  65.574  1.00  0.00    -0.307 A  
HETATM   12  C   UNL     1      -9.929  10.815  65.134  1.00  0.00    -0.351 A  
HETATM   13  C   UNL     1     -10.099   9.680  65.918  1.00  0.00    -0.234 A  
HETATM   14  C   UNL     1     -10.747   9.766  67.145  1.00  0.00    -0.202 A  
HETATM   15  O   UNL     1      -9.654   8.452  65.514  1.00  0.00    -0.426 OA 
HETATM   16  H   UNL     1      -9.770   7.677  66.050  1.00  0.00     0.000 HD 
HETATM   17  O   UNL     1     -10.921   8.646  67.903  1.00  0.00    -0.488 OA 
HETATM   18  C   UNL     1     -11.228  10.982  67.609  1.00  0.00    -0.373 A  
HETATM   19  C   UNL     1     -11.072  12.127  66.822  1.00  0.00    -0.349 A  
HETATM   20  H   UNL     1     -11.364   8.704  68.742  1.00  0.00     0.000 HD 
ENDBRANCH   8  11
ENDBRANCH   4   8
TORSDOF 2
ENDMDL
MODEL        5
REMARK 921   NORMALIZED FREE ENERGY PREDICTED BY IDOCK:   -6.20 KCAL/MOL
REMARK 922        TOTAL FREE ENERGY PREDICTED BY IDOCK:   -7.19 KCAL/MOL
REMARK 923 INTER-LIGAND FREE ENERGY PREDICTED BY IDOCK:   -6.96 KCAL/MOL
REMARK 924 INTRA-LIGAND FREE ENERGY PREDICTED BY IDOCK:   -0.23 KCAL/MOL
REMARK 927      BINDING AFFINITY PREDICTED BY RF-SCORE:    0.00 PKD
ROOT
HETATM    1  N   UNL     1     -10.562  19.043  65.501  1.00  0.00    -0.512 NA 
HETATM    2  H1  UNL     1     -10.884  18.533  64.678  1.00  0.00     0.000 HD 
HETATM    3  H2  UNL     1      -9.630  19.439  65.381  1.00  0.00     0.000 HD 
HETATM    4  CA  UNL     1     -10.657  18.112  66.684  1.00  0.00    -0.278 C  
HETATM    5  OXT UNL     1     -10.216  18.461  69.066  1.00  0.00    -0.367 OA 
HETATM    6  C   UNL     1     -10.173  18.879  67.921  1.00  0.00    -0.394 C  
HETATM    7  O   UNL     1      -9.699  20.110  67.589  1.00  0.00    -0.376 OA 
ENDROOT
BRANCH   4   8
HETATM    8  C   UNL     1      -9.849  16.789  66.579  1.00  0.00    -0.290 C  
HETATM    9  O   UNL     1      -8.768  16.932  65.653  1.00  0.00    -0.460 OA 
HETATM   10  H   UNL     1      -8.273  16.123  65.589  1.00  0.00     0.000 HD 
BRANCH   8  11
HETATM   11  C   UNL     1     -10.722  15.627  66.129  1.00  0.00    -0.305 A  
HETATM   12  C   UNL     1     -11.102  15.485  64.780  1.00  0.00    -0.421 A  
HETATM   13  C   UNL     1     -11.949  14.452  64.400  1.00  0.00    -0.452 A  
HETATM   14  C   UNL     1     -12.416  13.545  65.345  1.00  0.00    -0.497 A  
HETATM   15  O   UNL     1     -12.361  14.296  63.106  1.00  0.00    -1.096 OA 
HETATM   16  H   UNL     1     -12.940  13.590  62.846  1.00  0.00     0.000 HD 
HETATM   17  O   UNL     1     -13.257  12.540  64.967  1.00  0.00    -0.700 OA 
HETATM   18  C   UNL     1     -12.040  13.652  66.675  1.00  0.00    -0.459 A  
HETATM   19  C   UNL     1     -11.196  14.695  67.069  1.00  0.00    -0.348 A  
HETATM   20  H   UNL     1     -13.576  11.920  65.612  1.00  0.00     0.000 HD 
ENDBRANCH   8  11
ENDBRANCH   4   8
TORSDOF 2
ENDMDL
MODEL        6
REMARK 921   NORMALIZED FREE ENERGY PREDICTED BY IDOCK:   -6.18 KCAL/MOL
REMARK 922        TOTAL FREE ENERGY PREDICTED BY IDOCK:   -7.17 KCAL/MOL
REMARK 923 INTER-LIGAND FREE ENERGY PREDICTED BY IDOCK:   -6.88 KCAL/MOL
REMARK 924 INTRA-LIGAND FREE ENERGY PREDICTED BY IDOCK:   -0.30 KCAL/MOL
REMARK 927      BINDING AFFINITY PREDICTED BY RF-SCORE:    0.00 PKD
ROOT
HETATM    1  N   UNL     1     -14.401  15.395  71.150  1.00  0.00    -0.821 NA 
HETATM    2  H1  UNL     1     -14.476  14.956  70.232  1.00  0.00     0.000 HD 
HETATM    3  H2  UNL     1     -14.379  16.413  71.101  1.00  0.00     0.000 HD 
HETATM    4  CA  UNL     1     -13.191  14.813  71.839  1.00  0.00    -0.345 C  
HETATM    5  OXT UNL     1     -12.275  15.160  74.081  1.00  0.00    -0.607 OA 
HETATM    6  C   UNL     1     -13.079  15.473  73.218  1.00  0.00    -0.543 C  
HETATM    7  O   UNL     1     -14.009  16.453  73.379  1.00  0.00    -0.444 OA 
ENDROOT
BRANCH   4   8
HETATM    8  C   UNL     1     -11.836  14.986  71.100  1.00  0.00    -0.333 C  
HETATM    9  O   UNL     1     -11.559  16.372  70.874  1.00  0.00    -0.571 OA 
HETATM   10  H   UNL     1     -10.730  16.478  70.422  1.00  0.00     0.000 HD 
BRANCH   8  11
HETATM   11  C   UNL     1     -11.825  14.266  69.760  1.00  0.00    -0.380 A  
HETATM   12  C   UNL     1     -11.989  12.868  69.686  1.00  0.00    -0.358 A  
HETATM   13  C   UNL     1     -11.915  12.223  68.458  1.00  0.00    -0.219 A  
HETATM   14  C   UNL     1     -11.692  12.952  67.296  1.00  0.00    -0.373 A  
HETATM   15  O   UNL     1     -12.043  10.866  68.348  1.00  0.00    -0.776 OA 
HETATM   16  H   UNL     1     -11.992  10.425  67.509  1.00  0.00     0.000 HD 
HETATM   17  O   UNL     1     -11.608  12.310  66.095  1.00  0.00    -0.367 OA 
HETATM   18  C   UNL     1     -11.548  14.330  67.340  1.00  0.00    -0.394 A  
HETATM   19  C   UNL     1     -11.610  14.988  68.573  1.00  0.00    -0.348 A  
HETATM   20  H   UNL     1     -11.456  12.808  65.300  1.00  0.00     0.000 HD 
ENDBRANCH   8  11
ENDBRANCH   4   8
TORSDOF 2
ENDMDL
MODEL        7
REMARK 921   NORMALIZED FREE ENERGY PREDICTED BY IDOCK:   -6.17 KCAL/MOL
REMARK 922        TOTAL FREE ENERGY PREDICTED BY IDOCK:   -7.16 KCAL/MOL
REMARK 923 INTER-LIGAND FREE ENERGY PREDICTED BY IDOCK:   -6.94 KCAL/MOL
REMARK 924 INTRA-LIGAND FREE ENERGY PREDICTED BY IDOCK:   -0.22 KCAL/MOL
REMARK 927      BINDING AFFINITY PREDICTED BY RF-SCORE:    0.00 PKD
ROOT
HETATM    1  N   UNL     1      -8.973  11.763  65.758  1.00  0.00    -0.399 NA 
HETATM    2  H1  UNL     1      -8.644  12.727  65.808  1.00  0.00     0.000 HD 
HETATM    3  H2  UNL     1      -9.580  11.593  64.956  1.00  0.00     0.000 HD 
HETATM    4  CA  UNL     1      -9.634  11.434  67.074  1.00  0.00    -0.176 C  
HETATM    5  OXT UNL     1     -10.616   9.361  67.926  1.00  0.00    -0.237 OA 
HETATM    6  C   UNL     1     -10.129   9.985  66.997  1.00  0.00    -0.219 C  
HETATM    7  O   UNL     1      -9.940   9.458  65.757  1.00  0.00    -0.309 OA 
ENDROOT
BRANCH   4   8
HETATM    8  C   UNL     1     -10.828  12.339  67.483  1.00  0.00    -0.234 C  
HETATM    9  O   UNL     1     -12.047  11.589  67.498  1.00  0.00    -0.614 OA 
HETATM   10  H   UNL     1     -12.777  12.142  67.749  1.00  0.00     0.000 HD 
BRANCH   8  11
HETATM   11  C   UNL     1     -10.997  13.518  66.536  1.00  0.00    -0.295 A  
HETATM   12  C   UNL     1     -11.791  13.409  65.377  1.00  0.00    -0.381 A  
HETATM   13  C   UNL     1     -11.882  14.477  64.493  1.00  0.00    -0.446 A  
HETATM   14  C   UNL     1     -11.202  15.661  64.753  1.00  0.00    -0.382 A  
HETATM   15  O   UNL     1     -12.621  14.401  63.346  1.00  0.00    -1.054 OA 
HETATM   16  H   UNL     1     -12.683  15.131  62.741  1.00  0.00     0.000 HD 
HETATM   17  O   UNL     1     -11.287  16.702  63.874  1.00  0.00    -1.558 OA 
HETATM   18  C   UNL     1     -10.431  15.800  65.897  1.00  0.00    -0.366 A  
HETATM   19  C   UNL     1     -10.324  14.726  66.787  1.00  0.00    -0.268 A  
HETATM   20  H   UNL     1     -10.823  17.511  64.051  1.00  0.00     0.000 HD 
ENDBRANCH   8  11
ENDBRANCH   4   8
TORSDOF 2
ENDMDL
MODEL        8
REMARK 921   NORMALIZED FREE ENERGY PREDICTED BY IDOCK:   -6.13 KCAL/MOL
REMARK 922        TOTAL FREE ENERGY PREDICTED BY IDOCK:   -7.11 KCAL/MOL
REMARK 923 INTER-LIGAND FREE ENERGY PREDICTED BY IDOCK:   -6.85 KCAL/MOL
REMARK 924 INTRA-LIGAND FREE ENERGY PREDICTED BY IDOCK:   -0.26 KCAL/MOL
REMARK 927      BINDING AFFINITY PREDICTED BY RF-SCORE:    0.00 PKD
ROOT
HETATM    1  N   UNL     1      -8.688  11.760  68.921  1.00  0.00    -0.371 NA 
HETATM    2  H1  UNL     1      -7.976  12.443  68.662  1.00  0.00     0.000 HD 
HETATM    3  H2  UNL     1      -8.358  10.797  68.847  1.00  0.00     0.000 HD 
HETATM    4  CA  UNL     1      -9.909  12.027  68.076  1.00  0.00    -0.199 C  
HETATM    5  OXT UNL     1     -12.128  10.994  68.053  1.00  0.00    -0.615 OA 
HETATM    6  C   UNL     1     -10.979  11.000  68.465  1.00  0.00    -0.228 C  
HETATM    7  O   UNL     1     -10.497  10.090  69.354  1.00  0.00    -0.202 OA 
ENDROOT
BRANCH   4   8
HETATM    8  C   UNL     1      -9.704  11.964  66.538  1.00  0.00    -0.210 C  
HETATM    9  O   UNL     1      -8.312  11.858  66.220  1.00  0.00    -0.375 OA 
HETATM   10  H   UNL     1      -8.186  11.819  65.280  1.00  0.00     0.000 HD 
BRANCH   8  11
HETATM   11  C   UNL     1     -10.267  13.193  65.840  1.00  0.00    -0.294 A  
HETATM   12  C   UNL     1     -11.231  13.070  64.820  1.00  0.00    -0.344 A  
HETATM   13  C   UNL     1     -11.687  14.200  64.153  1.00  0.00    -0.282 A  
HETATM   14  C   UNL     1     -11.205  15.458  64.496  1.00  0.00    -0.299 A  
HETATM   15  O   UNL     1     -12.602  14.120  63.141  1.00  0.00    -1.058 OA 
HETATM   16  H   UNL     1     -12.913  14.892  62.685  1.00  0.00     0.000 HD 
HETATM   17  O   UNL     1     -11.649  16.563  63.829  1.00  0.00    -1.617 OA 
HETATM   18  C   UNL     1     -10.271  15.607  65.511  1.00  0.00    -0.414 A  
HETATM   19  C   UNL     1      -9.798  14.474  66.180  1.00  0.00    -0.339 A  
HETATM   20  H   UNL     1     -11.320  17.423  64.064  1.00  0.00     0.000 HD 
ENDBRANCH   8  11
ENDBRANCH   4   8
TORSDOF 2
ENDMDL
MODEL        9
REMARK 921   NORMALIZED FREE ENERGY PREDICTED BY IDOCK:   -6.08 KCAL/MOL
REMARK 922        TOTAL FREE ENERGY PREDICTED BY IDOCK:   -7.06 KCAL/MOL
REMARK 923 INTER-LIGAND FREE ENERGY PREDICTED BY IDOCK:   -6.96 KCAL/MOL
REMARK 924 INTRA-LIGAND FREE ENERGY PREDICTED BY IDOCK:   -0.10 KCAL/MOL
REMARK 927      BINDING AFFINITY PREDICTED BY RF-SCORE:    0.00 PKD
ROOT
HETATM    1  N   UNL     1      -9.475  14.148  65.535  1.00  0.00    -0.519 NA 
HETATM    2  H1  UNL     1      -9.201  13.167  65.589  1.00  0.00     0.000 HD 
HETATM    3  H2  UNL     1      -9.600  14.575  66.452  1.00  0.00     0.000 HD 
HETATM    4  CA  UNL     1     -10.711  14.234  64.675  1.00  0.00    -0.365 C  
HETATM    5  OXT UNL     1     -12.018  16.149  63.893  1.00  0.00    -0.947 OA 
HETATM    6  C   UNL     1     -11.122  15.709  64.594  1.00  0.00    -0.373 C  
HETATM    7  O   UNL     1     -10.343  16.487  65.394  1.00  0.00    -0.558 OA 
ENDROOT
BRANCH   4   8
HETATM    8  C   UNL     1     -11.937  13.409  65.156  1.00  0.00    -0.378 C  
HETATM    9  O   UNL     1     -13.145  14.158  64.988  1.00  0.00    -0.728 OA 
HETATM   10  H   UNL     1     -13.894  13.654  65.282  1.00  0.00     0.000 HD 
BRANCH   8  11
HETATM   11  C   UNL     1     -11.813  13.012  66.619  1.00  0.00    -0.455 A  
HETATM   12  C   UNL     1     -11.519  11.685  66.989  1.00  0.00    -0.336 A  
HETATM   13  C   UNL     1     -11.471  11.330  68.331  1.00  0.00    -0.307 A  
HETATM   14  C   UNL     1     -11.699  12.284  69.317  1.00  0.00    -0.330 A  
HETATM   15  O   UNL     1     -11.216  10.048  68.730  1.00  0.00    -0.391 OA 
HETATM   16  H   UNL     1     -11.183   9.806  69.647  1.00  0.00     0.000 HD 
HETATM   17  O   UNL     1     -11.663  11.927  70.633  1.00  0.00    -0.478 OA 
HETATM   18  C   UNL     1     -11.970  13.602  68.978  1.00  0.00    -0.392 A  
HETATM   19  C   UNL     1     -12.032  13.966  67.629  1.00  0.00    -0.403 A  
HETATM   20  H   UNL     1     -11.818  12.578  71.306  1.00  0.00     0.000 HD 
ENDBRANCH   8  11
ENDBRANCH   4   8
TORSDOF 2
ENDMDL
MODEL       10
REMARK 921   NORMALIZED FREE ENERGY PREDICTED BY IDOCK:   -6.02 KCAL/MOL
REMARK 922        TOTAL FREE ENERGY PREDICTED BY IDOCK:   -6.99 KCAL/MOL
REMARK 923 INTER-LIGAND FREE ENERGY PREDICTED BY IDOCK:   -6.72 KCAL/MOL
REMARK 924 INTRA-LIGAND FREE ENERGY PREDICTED BY IDOCK:   -0.27 KCAL/MOL
REMARK 927      BINDING AFFINITY PREDICTED BY RF-SCORE:    0.00 PKD
ROOT
HETATM    1  N   UNL     1     -10.871  13.751  63.964  1.00  0.00    -0.509 NA 
HETATM    2  H1  UNL     1     -10.194  14.220  63.363  1.00  0.00     0.000 HD 
HETATM    3  H2  UNL     1     -11.782  13.635  63.520  1.00  0.00     0.000 HD 
HETATM    4  CA  UNL     1     -10.944  14.520  65.261  1.00  0.00    -0.360 C  
HETATM    5  OXT UNL     1     -12.190  14.108  67.326  1.00  0.00    -0.402 OA 
HETATM    6  C   UNL     1     -11.963  13.814  66.164  1.00  0.00    -0.418 C  
HETATM    7  O   UNL     1     -12.580  12.790  65.514  1.00  0.00    -0.611 OA 
ENDROOT
BRANCH   4   8
HETATM    8  C   UNL     1     -11.344  16.016  65.146  1.00  0.00    -0.074 C  
HETATM    9  O   UNL     1     -11.521  16.386  63.774  1.00  0.00    -1.590 OA 
HETATM   10  H   UNL     1     -11.766  17.301  63.704  1.00  0.00     0.000 HD 
BRANCH   8  11
HETATM   11  C   UNL     1     -10.297  16.931  65.763  1.00  0.00    -0.298 A  
HETATM   12  C   UNL     1     -10.527  18.316  65.890  1.00  0.00    -0.324 A  
HETATM   13  C   UNL     1      -9.534  19.142  66.399  1.00  0.00    -0.354 A  
HETATM   14  C   UNL     1      -8.314  18.609  66.798  1.00  0.00    -0.281 A  
HETATM   15  O   UNL     1      -9.710  20.493  66.514  1.00  0.00    -0.619 OA 
HETATM   16  H   UNL     1      -9.031  21.058  66.862  1.00  0.00     0.000 HD 
HETATM   17  O   UNL     1      -7.339  19.428  67.286  1.00  0.00    -0.219 OA 
HETATM   18  C   UNL     1      -8.071  17.247  66.701  1.00  0.00    -0.300 A  
HETATM   19  C   UNL     1      -9.060  16.408  66.179  1.00  0.00    -0.362 A  
HETATM   20  H   UNL     1      -6.505  19.064  67.558  1.00  0.00     0.000 HD 
ENDBRANCH   8  11
ENDBRANCH   4   8
TORSDOF 2
ENDMDL
MODEL       11
REMARK 921   NORMALIZED FREE ENERGY PREDICTED BY IDOCK:   -6.01 KCAL/MOL
REMARK 922        TOTAL FREE ENERGY PREDICTED BY IDOCK:   -6.99 KCAL/MOL
REMARK 923 INTER-LIGAND FREE ENERGY PREDICTED BY IDOCK:   -6.70 KCAL/MOL
REMARK 924 INTRA-LIGAND FREE ENERGY PREDICTED BY IDOCK:   -0.28 KCAL/MOL
REMARK 927      BINDING AFFINITY PREDICTED BY RF-SCORE:    0.00 PKD
ROOT
HETATM    1  N   UNL     1      -9.986  13.657  69.096  1.00  0.00    -0.412 NA 
HETATM    2  H1  UNL     1      -9.620  13.709  70.046  1.00  0.00     0.000 HD 
HETATM    3  H2  UNL     1     -10.493  14.499  68.820  1.00  0.00     0.000 HD 
HETATM    4  CA  UNL     1     -10.826  12.408  68.994  1.00  0.00    -0.148 C  
HETATM    5  OXT UNL     1     -12.009  11.394  67.108  1.00  0.00    -0.532 OA 
HETATM    6  C   UNL     1     -11.377  12.331  67.565  1.00  0.00    -0.325 C  
HETATM    7  O   UNL     1     -11.056  13.442  66.847  1.00  0.00    -0.283 OA 
ENDROOT
BRANCH   4   8
HETATM    8  C   UNL     1     -12.017  12.303  69.986  1.00  0.00    -0.304 C  
HETATM    9  O   UNL     1     -11.947  13.343  70.968  1.00  0.00    -0.461 OA 
HETATM   10  H   UNL     1     -12.676  13.279  71.574  1.00  0.00     0.000 HD 
BRANCH   8  11
HETATM   11  C   UNL     1     -12.041  10.962  70.703  1.00  0.00    -0.468 A  
HETATM   12  C   UNL     1     -13.114  10.608  71.545  1.00  0.00    -0.527 A  
HETATM   13  C   UNL     1     -13.087   9.405  72.238  1.00  0.00    -0.428 A  
HETATM   14  C   UNL     1     -12.010   8.537  72.095  1.00  0.00    -0.383 A  
HETATM   15  O   UNL     1     -14.095   9.038  73.085  1.00  0.00    -1.130 OA 
HETATM   16  H   UNL     1     -14.076   8.216  73.559  1.00  0.00     0.000 HD 
HETATM   17  O   UNL     1     -11.984   7.363  72.788  1.00  0.00    -0.545 OA 
HETATM   18  C   UNL     1     -10.952   8.854  71.256  1.00  0.00    -0.363 A  
HETATM   19  C   UNL     1     -10.965  10.068  70.563  1.00  0.00    -0.392 A  
HETATM   20  H   UNL     1     -11.248   6.770  72.691  1.00  0.00     0.000 HD 
ENDBRANCH   8  11
ENDBRANCH   4   8
TORSDOF 2
ENDMDL
MODEL       12
REMARK 921   NORMALIZED FREE ENERGY PREDICTED BY IDOCK:   -6.00 KCAL/MOL
REMARK 922        TOTAL FREE ENERGY PREDICTED BY IDOCK:   -6.97 KCAL/MOL
REMARK 923 INTER-LIGAND FREE ENERGY PREDICTED BY IDOCK:   -6.55 KCAL/MOL
REMARK 924 INTRA-LIGAND FREE ENERGY PREDICTED BY IDOCK:   -0.41 KCAL/MOL
REMARK 927      BINDING AFFINITY PREDICTED BY RF-SCORE:    0.00 PKD
ROOT
HETATM    1  N   UNL     1     -11.468  16.471  64.057  1.00  0.00    -1.581 NA 
HETATM    2  H1  UNL     1     -10.899  17.318  64.052  1.00  0.00     0.000 HD 
HETATM    3  H2  UNL     1     -12.395  16.618  64.458  1.00  0.00     0.000 HD 
HETATM    4  CA  UNL     1     -10.685  15.396  64.770  1.00  0.00    -0.314 C  
HETATM    5  OXT UNL     1     -11.170  13.033  65.178  1.00  0.00    -0.287 OA 
HETATM    6  C   UNL     1     -11.540  14.123  64.777  1.00  0.00    -0.396 C  
HETATM    7  O   UNL     1     -12.776  14.351  64.254  1.00  0.00    -0.657 OA 
ENDROOT
BRANCH   4   8
HETATM    8  C   UNL     1     -10.264  15.713  66.231  1.00  0.00    -0.299 C  
HETATM    9  O   UNL     1     -11.299  15.335  67.146  1.00  0.00    -0.323 OA 
HETATM   10  H   UNL     1     -11.042  15.528  68.040  1.00  0.00     0.000 HD 
BRANCH   8  11
HETATM   11  C   UNL     1      -9.963  17.191  66.426  1.00  0.00    -0.315 A  
HETATM   12  C   UNL     1      -8.753  17.751  65.971  1.00  0.00    -0.029 A  
HETATM   13  C   UNL     1      -8.471  19.090  66.213  1.00  0.00    -0.280 A  
HETATM   14  C   UNL     1      -9.384  19.886  66.894  1.00  0.00    -0.379 A  
HETATM   15  O   UNL     1      -7.297  19.663  65.811  1.00  0.00    -0.301 OA 
HETATM   16  H   UNL     1      -7.104  20.578  65.977  1.00  0.00     0.000 HD 
HETATM   17  O   UNL     1      -9.095  21.197  67.140  1.00  0.00    -0.604 OA 
HETATM   18  C   UNL     1     -10.591  19.363  67.335  1.00  0.00    -0.603 A  
HETATM   19  C   UNL     1     -10.879  18.014  67.105  1.00  0.00    -0.183 A  
HETATM   20  H   UNL     1      -9.719  21.742  67.605  1.00  0.00     0.000 HD 
ENDBRANCH   8  11
ENDBRANCH   4   8
TORSDOF 2
ENDMDL
MODEL       13
REMARK 921   NORMALIZED FREE ENERGY PREDICTED BY IDOCK:   -5.97 KCAL/MOL
REMARK 922        TOTAL FREE ENERGY PREDICTED BY IDOCK:   -6.94 KCAL/MOL
REMARK 923 INTER-LIGAND FREE ENERGY PREDICTED BY IDOCK:   -6.71 KCAL/MOL
REMARK 924 INTRA-LIGAND FREE ENERGY PREDICTED BY IDOCK:   -0.23 KCAL/MOL
REMARK 927      BINDING AFFINITY PREDICTED BY RF-SCORE:    0.00 PKD
ROOT
HETATM    1  N   UNL     1     -12.084  13.639  63.113  1.00  0.00    -0.959 NA 
HETATM    2  H1  UNL     1     -11.574  14.223  62.450  1.00  0.00     0.000 HD 
HETATM    3  H2  UNL     1     -13.096  13.724  63.020  1.00  0.00     0.000 HD 
HETATM    4  CA  UNL     1     -11.592  13.980  64.498  1.00  0.00    -0.391 C  
HETATM    5  OXT UNL     1     -12.135  13.044  66.693  1.00  0.00    -0.388 OA 
HETATM    6  C   UNL     1     -12.359  13.102  65.495  1.00  0.00    -0.474 C  
HETATM    7  O   UNL     1     -13.321  12.367  64.874  1.00  0.00    -0.623 OA 
ENDROOT
BRANCH   4   8
HETATM    8  C   UNL     1     -11.746  15.464  64.932  1.00  0.00    -0.174 C  
HETATM    9  O   UNL     1     -12.019  16.294  63.797  1.00  0.00    -1.409 OA 
HETATM   10  H   UNL     1     -12.114  17.201  64.062  1.00  0.00     0.000 HD 
BRANCH   8  11
HETATM   11  C   UNL     1     -10.495  15.986  65.622  1.00  0.00    -0.416 A  
HETATM   12  C   UNL     1      -9.423  15.124  65.929  1.00  0.00    -0.334 A  
HETATM   13  C   UNL     1      -8.316  15.607  66.615  1.00  0.00    -0.275 A  
HETATM   14  C   UNL     1      -8.253  16.945  66.990  1.00  0.00    -0.199 A  
HETATM   15  O   UNL     1      -7.269  14.798  66.955  1.00  0.00    -0.322 OA 
HETATM   16  H   UNL     1      -6.512  15.128  67.423  1.00  0.00     0.000 HD 
HETATM   17  O   UNL     1      -7.168  17.410  67.674  1.00  0.00    -0.160 OA 
HETATM   18  C   UNL     1      -9.286  17.817  66.681  1.00  0.00    -0.280 A  
HETATM   19  C   UNL     1     -10.410  17.337  66.001  1.00  0.00    -0.312 A  
HETATM   20  H   UNL     1      -7.124  18.324  67.930  1.00  0.00     0.000 HD 
ENDBRANCH   8  11
ENDBRANCH   4   8
TORSDOF 2
ENDMDL
MODEL       14
REMARK 921   NORMALIZED FREE ENERGY PREDICTED BY IDOCK:   -5.95 KCAL/MOL
REMARK 922        TOTAL FREE ENERGY PREDICTED BY IDOCK:   -6.92 KCAL/MOL
REMARK 923 INTER-LIGAND FREE ENERGY PREDICTED BY IDOCK:   -6.65 KCAL/MOL
REMARK 924 INTRA-LIGAND FREE ENERGY PREDICTED BY IDOCK:   -0.27 KCAL/MOL
REMARK 927      BINDING AFFINITY PREDICTED BY RF-SCORE:    0.00 PKD
ROOT
HETATM    1  N   UNL     1     -12.450  14.357  63.810  1.00  0.00    -1.058 NA 
HETATM    2  H1  UNL     1     -12.198  15.284  64.155  1.00  0.00     0.000 HD 
HETATM    3  H2  UNL     1     -13.365  14.048  64.139  1.00  0.00     0.000 HD 
HETATM    4  CA  UNL     1     -11.340  13.408  64.188  1.00  0.00    -0.364 C  
HETATM    5  OXT UNL     1     -10.999  11.033  63.710  1.00  0.00    -0.298 OA 
HETATM    6  C   UNL     1     -11.720  12.016  63.670  1.00  0.00    -0.493 C  
HETATM    7  O   UNL     1     -12.970  12.008  63.133  1.00  0.00    -0.662 OA 
ENDROOT
BRANCH   4   8
HETATM    8  C   UNL     1     -11.022  13.298  65.705  1.00  0.00    -0.277 C  
HETATM    9  O   UNL     1     -12.048  12.563  66.381  1.00  0.00    -0.576 OA 
HETATM   10  H   UNL     1     -11.854  12.495  67.309  1.00  0.00     0.000 HD 
BRANCH   8  11
HETATM   11  C   UNL     1     -10.897  14.666  66.358  1.00  0.00    -0.315 A  
HETATM   12  C   UNL     1     -10.114  15.681  65.772  1.00  0.00    -0.394 A  
HETATM   13  C   UNL     1      -9.963  16.902  66.416  1.00  0.00    -0.309 A  
HETATM   14  C   UNL     1     -10.592  17.136  67.634  1.00  0.00    -0.343 A  
HETATM   15  O   UNL     1      -9.191  17.902  65.894  1.00  0.00    -0.519 OA 
HETATM   16  H   UNL     1      -9.087  18.737  66.334  1.00  0.00     0.000 HD 
HETATM   17  O   UNL     1     -10.430  18.333  68.266  1.00  0.00    -0.358 OA 
HETATM   18  C   UNL     1     -11.384  16.160  68.220  1.00  0.00    -0.316 A  
HETATM   19  C   UNL     1     -11.534  14.923  67.585  1.00  0.00    -0.366 A  
HETATM   20  H   UNL     1     -10.860  18.493  69.098  1.00  0.00     0.000 HD 
ENDBRANCH   8  11
ENDBRANCH   4   8
TORSDOF 2
ENDMDL
MODEL       15
REMARK 921   NORMALIZED FREE ENERGY PREDICTED BY IDOCK:   -5.92 KCAL/MOL
REMARK 922        TOTAL FREE ENERGY PREDICTED BY IDOCK:   -6.89 KCAL/MOL
REMARK 923 INTER-LIGAND FREE ENERGY PREDICTED BY IDOCK:   -6.70 KCAL/MOL
REMARK 924 INTRA-LIGAND FREE ENERGY PREDICTED BY IDOCK:   -0.18 KCAL/MOL
REMARK 927      BINDING AFFINITY PREDICTED BY RF-SCORE:    0.00 PKD
ROOT
HETATM    1  N   UNL     1     -12.043  13.764  63.106  1.00  0.00    -0.970 NA 
HETATM    2  H1  UNL     1     -11.499  14.338  62.462  1.00  0.00     0.000 HD 
HETATM    3  H2  UNL     1     -13.049  13.872  62.979  1.00  0.00     0.000 HD 
HETATM    4  CA  UNL     1     -11.589  14.090  64.507  1.00  0.00    -0.391 C  
HETATM    5  OXT UNL     1     -12.226  13.160  66.679  1.00  0.00    -0.366 OA 
HETATM    6  C   UNL     1     -12.409  13.227  65.475  1.00  0.00    -0.480 C  
HETATM    7  O   UNL     1     -13.366  12.516  64.820  1.00  0.00    -0.773 OA 
ENDROOT
BRANCH   4   8
HETATM    8  C   UNL     1     -11.724  15.575  64.941  1.00  0.00    -0.118 C  
HETATM    9  O   UNL     1     -11.522  16.446  63.823  1.00  0.00    -1.590 OA 
HETATM   10  H   UNL     1     -11.605  17.355  64.087  1.00  0.00     0.000 HD 
BRANCH   8  11
HETATM   11  C   UNL     1     -10.723  15.942  66.026  1.00  0.00    -0.289 A  
HETATM   12  C   UNL     1     -11.130  16.630  67.186  1.00  0.00     0.095 A  
HETATM   13  C   UNL     1     -10.191  17.009  68.136  1.00  0.00    -0.322 A  
HETATM   14  C   UNL     1      -8.847  16.701  67.955  1.00  0.00    -0.206 A  
HETATM   15  O   UNL     1     -10.542  17.701  69.262  1.00  0.00    -0.410 OA 
HETATM   16  H   UNL     1      -9.900  17.960  69.911  1.00  0.00     0.000 HD 
HETATM   17  O   UNL     1      -7.928  17.087  68.887  1.00  0.00    -0.252 OA 
HETATM   18  C   UNL     1      -8.424  16.007  66.832  1.00  0.00    -0.275 A  
HETATM   19  C   UNL     1      -9.362  15.630  65.864  1.00  0.00    -0.357 A  
HETATM   20  H   UNL     1      -7.010  16.877  68.763  1.00  0.00     0.000 HD 
ENDBRANCH   8  11
ENDBRANCH   4   8
TORSDOF 2
ENDMDL
MODEL       16
REMARK 921   NORMALIZED FREE ENERGY PREDICTED BY IDOCK:   -5.92 KCAL/MOL
REMARK 922        TOTAL FREE ENERGY PREDICTED BY IDOCK:   -6.88 KCAL/MOL
REMARK 923 INTER-LIGAND FREE ENERGY PREDICTED BY IDOCK:   -6.54 KCAL/MOL
REMARK 924 INTRA-LIGAND FREE ENERGY PREDICTED BY IDOCK:   -0.34 KCAL/MOL
REMARK 927      BINDING AFFINITY PREDICTED BY RF-SCORE:    0.00 PKD
ROOT
HETATM    1  N   UNL     1     -13.499  13.968  65.466  1.00  0.00    -0.627 NA 
HETATM    2  H1  UNL     1     -13.479  14.706  66.169  1.00  0.00     0.000 HD 
HETATM    3  H2  UNL     1     -14.119  13.198  65.717  1.00  0.00     0.000 HD 
HETATM    4  CA  UNL     1     -12.077  13.522  65.227  1.00  0.00    -0.411 C  
HETATM    5  OXT UNL     1     -11.124  11.900  63.663  1.00  0.00    -0.379 OA 
HETATM    6  C   UNL     1     -12.108  12.412  64.169  1.00  0.00    -0.453 C  
HETATM    7  O   UNL     1     -13.384  12.073  63.840  1.00  0.00    -0.669 OA 
ENDROOT
BRANCH   4   8
HETATM    8  C   UNL     1     -11.309  12.995  66.469  1.00  0.00    -0.320 C  
HETATM    9  O   UNL     1     -11.819  11.720  66.873  1.00  0.00    -0.591 OA 
HETATM   10  H   UNL     1     -11.349  11.397  67.633  1.00  0.00     0.000 HD 
BRANCH   8  11
HETATM   11  C   UNL     1     -11.412  13.952  67.647  1.00  0.00    -0.354 A  
HETATM   12  C   UNL     1     -11.004  15.296  67.529  1.00  0.00    -0.315 A  
HETATM   13  C   UNL     1     -11.049  16.137  68.633  1.00  0.00    -0.356 A  
HETATM   14  C   UNL     1     -11.508  15.663  69.857  1.00  0.00    -0.338 A  
HETATM   15  O   UNL     1     -10.638  17.439  68.565  1.00  0.00    -0.364 OA 
HETATM   16  H   UNL     1     -10.668  18.014  69.320  1.00  0.00     0.000 HD 
HETATM   17  O   UNL     1     -11.538  16.491  70.940  1.00  0.00    -0.585 OA 
HETATM   18  C   UNL     1     -11.934  14.350  69.994  1.00  0.00    -0.394 A  
HETATM   19  C   UNL     1     -11.882  13.493  68.890  1.00  0.00    -0.384 A  
HETATM   20  H   UNL     1     -11.852  16.168  71.777  1.00  0.00     0.000 HD 
ENDBRANCH   8  11
ENDBRANCH   4   8
TORSDOF 2
ENDMDL
MODEL       17
REMARK 921   NORMALIZED FREE ENERGY PREDICTED BY IDOCK:   -5.90 KCAL/MOL
REMARK 922        TOTAL FREE ENERGY PREDICTED BY IDOCK:   -6.86 KCAL/MOL
REMARK 923 INTER-LIGAND FREE ENERGY PREDICTED BY IDOCK:   -6.59 KCAL/MOL
REMARK 924 INTRA-LIGAND FREE ENERGY PREDICTED BY IDOCK:   -0.27 KCAL/MOL
REMARK 927      BINDING AFFINITY PREDICTED BY RF-SCORE:    0.00 PKD
ROOT
HETATM    1  N   UNL     1     -10.107  15.082  69.749  1.00  0.00    -0.441 NA 
HETATM    2  H1  UNL     1     -10.107  14.085  69.965  1.00  0.00     0.000 HD 
HETATM    3  H2  UNL     1     -10.720  15.619  70.362  1.00  0.00     0.000 HD 
HETATM    4  CA  UNL     1     -10.454  15.237  68.289  1.00  0.00    -0.244 C  
HETATM    5  OXT UNL     1     -10.591  17.212  66.852  1.00  0.00    -0.297 OA 
HETATM    6  C   UNL     1     -10.454  16.736  67.967  1.00  0.00    -0.333 C  
HETATM    7  O   UNL     1     -10.259  17.486  69.085  1.00  0.00    -0.333 OA 
ENDROOT
BRANCH   4   8
HETATM    8  C   UNL     1     -11.817  14.639  67.844  1.00  0.00    -0.320 C  
HETATM    9  O   UNL     1     -12.363  13.808  68.874  1.00  0.00    -0.409 OA 
HETATM   10  H   UNL     1     -13.196  13.442  68.602  1.00  0.00     0.000 HD 
BRANCH   8  11
HETATM   11  C   UNL     1     -11.685  13.812  66.574  1.00  0.00    -0.412 A  
HETATM   12  C   UNL     1     -12.110  14.320  65.330  1.00  0.00    -0.396 A  
HETATM   13  C   UNL     1     -12.037  13.526  64.193  1.00  0.00    -0.435 A  
HETATM   14  C   UNL     1     -11.535  12.232  64.273  1.00  0.00    -0.362 A  
HETATM   15  O   UNL     1     -12.463  13.972  62.973  1.00  0.00    -1.101 OA 
HETATM   16  H   UNL     1     -12.414  13.429  62.196  1.00  0.00     0.000 HD 
HETATM   17  O   UNL     1     -11.478  11.453  63.154  1.00  0.00    -0.849 OA 
HETATM   18  C   UNL     1     -11.092  11.716  65.482  1.00  0.00    -0.297 A  
HETATM   19  C   UNL     1     -11.171  12.505  66.634  1.00  0.00    -0.357 A  
HETATM   20  H   UNL     1     -11.134  10.569  63.208  1.00  0.00     0.000 HD 
ENDBRANCH   8  11
ENDBRANCH   4   8
TORSDOF 2
ENDMDL
MODEL       18
REMARK 921   NORMALIZED FREE ENERGY PREDICTED BY IDOCK:   -5.90 KCAL/MOL
REMARK 922        TOTAL FREE ENERGY PREDICTED BY IDOCK:   -6.86 KCAL/MOL
REMARK 923 INTER-LIGAND FREE ENERGY PREDICTED BY IDOCK:   -6.59 KCAL/MOL
REMARK 924 INTRA-LIGAND FREE ENERGY PREDICTED BY IDOCK:   -0.27 KCAL/MOL
REMARK 927      BINDING AFFINITY PREDICTED BY RF-SCORE:    0.00 PKD
ROOT
HETATM    1  N   UNL     1     -11.951  13.398  70.557  1.00  0.00    -0.512 NA 
HETATM    2  H1  UNL     1     -11.847  14.411  70.500  1.00  0.00     0.000 HD 
HETATM    3  H2  UNL     1     -11.297  12.969  71.212  1.00  0.00     0.000 HD 
HETATM    4  CA  UNL     1     -11.827  12.845  69.159  1.00  0.00    -0.303 C  
HETATM    5  OXT UNL     1     -12.042  10.569  68.286  1.00  0.00    -0.319 OA 
HETATM    6  C   UNL     1     -11.983  11.322  69.244  1.00  0.00    -0.342 C  
HETATM    7  O   UNL     1     -12.071  10.902  70.536  1.00  0.00    -0.309 OA 
ENDROOT
BRANCH   4   8
HETATM    8  C   UNL     1     -10.501  13.161  68.413  1.00  0.00    -0.253 C  
HETATM    9  O   UNL     1      -9.602  13.875  69.268  1.00  0.00    -0.394 OA 
HETATM   10  H   UNL     1      -8.791  14.068  68.813  1.00  0.00     0.000 HD 
BRANCH   8  11
HETATM   11  C   UNL     1     -10.740  13.992  67.161  1.00  0.00    -0.283 A  
HETATM   12  C   UNL     1     -10.086  15.226  66.974  1.00  0.00    -0.248 A  
HETATM   13  C   UNL     1     -10.364  15.997  65.853  1.00  0.00    -0.368 A  
HETATM   14  C   UNL     1     -11.278  15.552  64.904  1.00  0.00    -0.389 A  
HETATM   15  O   UNL     1      -9.771  17.211  65.648  1.00  0.00    -0.545 OA 
HETATM   16  H   UNL     1      -9.961  17.739  64.881  1.00  0.00     0.000 HD 
HETATM   17  O   UNL     1     -11.555  16.320  63.812  1.00  0.00    -1.539 OA 
HETATM   18  C   UNL     1     -11.919  14.331  65.056  1.00  0.00    -0.412 A  
HETATM   19  C   UNL     1     -11.654  13.553  66.187  1.00  0.00    -0.371 A  
HETATM   20  H   UNL     1     -12.180  16.016  63.163  1.00  0.00     0.000 HD 
ENDBRANCH   8  11
ENDBRANCH   4   8
TORSDOF 2
ENDMDL
MODEL       19
REMARK 921   NORMALIZED FREE ENERGY PREDICTED BY IDOCK:   -5.88 KCAL/MOL
REMARK 922        TOTAL FREE ENERGY PREDICTED BY IDOCK:   -6.84 KCAL/MOL
REMARK 923 INTER-LIGAND FREE ENERGY PREDICTED BY IDOCK:   -6.57 KCAL/MOL
REMARK 924 INTRA-LIGAND FREE ENERGY PREDICTED BY IDOCK:   -0.27 KCAL/MOL
REMARK 927      BINDING AFFINITY PREDICTED BY RF-SCORE:    0.00 PKD
ROOT
HETATM    1  N   UNL     1     -13.473  13.977  65.488  1.00  0.00    -0.627 NA 
HETATM    2  H1  UNL     1     -13.634  14.571  66.302  1.00  0.00     0.000 HD 
HETATM    3  H2  UNL     1     -14.021  13.117  65.511  1.00  0.00     0.000 HD 
HETATM    4  CA  UNL     1     -11.989  13.725  65.389  1.00  0.00    -0.379 C  
HETATM    5  OXT UNL     1     -10.652  12.522  63.730  1.00  0.00    -0.414 OA 
HETATM    6  C   UNL     1     -11.748  12.833  64.166  1.00  0.00    -0.401 C  
HETATM    7  O   UNL     1     -12.920  12.437  63.599  1.00  0.00    -0.758 OA 
ENDROOT
BRANCH   4   8
HETATM    8  C   UNL     1     -11.326  13.054  66.624  1.00  0.00    -0.325 C  
HETATM    9  O   UNL     1     -11.918  11.776  66.880  1.00  0.00    -0.605 OA 
HETATM   10  H   UNL     1     -11.513  11.366  67.635  1.00  0.00     0.000 HD 
BRANCH   8  11
HETATM   11  C   UNL     1     -11.462  13.910  67.874  1.00  0.00    -0.350 A  
HETATM   12  C   UNL     1     -11.926  13.358  69.085  1.00  0.00    -0.363 A  
HETATM   13  C   UNL     1     -12.101  14.170  70.198  1.00  0.00    -0.346 A  
HETATM   14  C   UNL     1     -11.808  15.527  70.129  1.00  0.00    -0.356 A  
HETATM   15  O   UNL     1     -12.573  13.677  71.382  1.00  0.00    -0.349 OA 
HETATM   16  H   UNL     1     -12.694  14.232  72.143  1.00  0.00     0.000 HD 
HETATM   17  O   UNL     1     -11.994  16.321  71.223  1.00  0.00    -0.602 OA 
HETATM   18  C   UNL     1     -11.331  16.090  68.955  1.00  0.00    -0.370 A  
HETATM   19  C   UNL     1     -11.162  15.283  67.825  1.00  0.00    -0.327 A  
HETATM   20  H   UNL     1     -11.794  17.248  71.176  1.00  0.00     0.000 HD 
ENDBRANCH   8  11
ENDBRANCH   4   8
TORSDOF 2
ENDMDL
MODEL       20
REMARK 921   NORMALIZED FREE ENERGY PREDICTED BY IDOCK:   -5.88 KCAL/MOL
REMARK 922        TOTAL FREE ENERGY PREDICTED BY IDOCK:   -6.84 KCAL/MOL
REMARK 923 INTER-LIGAND FREE ENERGY PREDICTED BY IDOCK:   -6.76 KCAL/MOL
REMARK 924 INTRA-LIGAND FREE ENERGY PREDICTED BY IDOCK:   -0.08 KCAL/MOL
REMARK 927      BINDING AFFINITY PREDICTED BY RF-SCORE:    0.00 PKD
ROOT
HETATM    1  N   UNL     1      -9.333  14.415  65.610  1.00  0.00    -0.503 NA 
HETATM    2  H1  UNL     1      -8.980  13.458  65.611  1.00  0.00     0.000 HD 
HETATM    3  H2  UNL     1      -9.557  14.755  66.545  1.00  0.00     0.000 HD 
HETATM    4  CA  UNL     1     -10.510  14.469  64.668  1.00  0.00    -0.210 C  
HETATM    5  OXT UNL     1     -11.921  16.329  63.935  1.00  0.00    -1.003 OA 
HETATM    6  C   UNL     1     -11.041  15.908  64.667  1.00  0.00    -0.354 C  
HETATM    7  O   UNL     1     -10.389  16.679  65.579  1.00  0.00    -0.533 OA 
ENDROOT
BRANCH   4   8
HETATM    8  C   UNL     1     -11.689  13.511  64.993  1.00  0.00    -0.334 C  
HETATM    9  O   UNL     1     -12.936  14.100  64.608  1.00  0.00    -0.629 OA 
HETATM   10  H   UNL     1     -13.658  13.514  64.806  1.00  0.00     0.000 HD 
BRANCH   8  11
HETATM   11  C   UNL     1     -11.752  13.171  66.474  1.00  0.00    -0.433 A  
HETATM   12  C   UNL     1     -12.156  14.132  67.423  1.00  0.00    -0.379 A  
HETATM   13  C   UNL     1     -12.147  13.820  68.776  1.00  0.00    -0.309 A  
HETATM   14  C   UNL     1     -11.752  12.557  69.202  1.00  0.00    -0.321 A  
HETATM   15  O   UNL     1     -12.507  14.733  69.728  1.00  0.00    -0.491 OA 
HETATM   16  H   UNL     1     -12.501  14.520  70.654  1.00  0.00     0.000 HD 
HETATM   17  O   UNL     1     -11.734  12.262  70.534  1.00  0.00    -0.517 OA 
HETATM   18  C   UNL     1     -11.369  11.588  68.287  1.00  0.00    -0.352 A  
HETATM   19  C   UNL     1     -11.364  11.896  66.923  1.00  0.00    -0.392 A  
HETATM   20  H   UNL     1     -11.464  11.399  70.825  1.00  0.00     0.000 HD 
ENDBRANCH   8  11
ENDBRANCH   4   8
TORSDOF 2
ENDMDL
MODEL       21
REMARK 921   NORMALIZED FREE ENERGY PREDICTED BY IDOCK:   -5.86 KCAL/MOL
REMARK 922        TOTAL FREE ENERGY PREDICTED BY IDOCK:   -6.81 KCAL/MOL
REMARK 923 INTER-LIGAND FREE ENERGY PREDICTED BY IDOCK:   -6.53 KCAL/MOL
REMARK 924 INTRA-LIGAND FREE ENERGY PREDICTED BY IDOCK:   -0.28 KCAL/MOL
REMARK 927      BINDING AFFINITY PREDICTED BY RF-SCORE:    0.00 PKD
ROOT
HETATM    1  N   UNL     1      -9.489  16.288  65.650  1.00  0.00    -0.469 NA 
HETATM    2  H1  UNL     1      -8.790  15.976  66.324  1.00  0.00     0.000 HD 
HETATM    3  H2  UNL     1      -9.902  17.188  65.896  1.00  0.00     0.000 HD 
HETATM    4  CA  UNL     1     -10.515  15.191  65.510  1.00  0.00    -0.379 C  
HETATM    5  OXT UNL     1     -12.481  14.978  64.068  1.00  0.00    -0.796 OA 
HETATM    6  C   UNL     1     -11.566  15.661  64.497  1.00  0.00    -0.262 C  
HETATM    7  O   UNL     1     -11.344  16.946  64.110  1.00  0.00    -1.208 OA 
ENDROOT
BRANCH   4   8
HETATM    8  C   UNL     1     -11.245  14.768  66.814  1.00  0.00    -0.344 C  
HETATM    9  O   UNL     1     -10.643  15.391  67.953  1.00  0.00    -0.255 OA 
HETATM   10  H   UNL     1     -11.089  15.133  68.751  1.00  0.00     0.000 HD 
BRANCH   8  11
HETATM   11  C   UNL     1     -11.216  13.260  67.016  1.00  0.00    -0.319 A  
HETATM   12  C   UNL     1     -11.804  12.669  68.152  1.00  0.00    -0.366 A  
HETATM   13  C   UNL     1     -11.712  11.297  68.349  1.00  0.00    -0.294 A  
HETATM   14  C   UNL     1     -11.052  10.498  67.421  1.00  0.00    -0.252 A  
HETATM   15  O   UNL     1     -12.246  10.689  69.450  1.00  0.00    -0.509 OA 
HETATM   16  H   UNL     1     -12.183   9.751  69.585  1.00  0.00     0.000 HD 
HETATM   17  O   UNL     1     -10.956   9.153  67.626  1.00  0.00    -0.484 OA 
HETATM   18  C   UNL     1     -10.483  11.054  66.285  1.00  0.00    -0.310 A  
HETATM   19  C   UNL     1     -10.561  12.436  66.084  1.00  0.00    -0.283 A  
HETATM   20  H   UNL     1     -10.505   8.607  66.993  1.00  0.00     0.000 HD 
ENDBRANCH   8  11
ENDBRANCH   4   8
TORSDOF 2
ENDMDL
MODEL       22
REMARK 921   NORMALIZED FREE ENERGY PREDICTED BY IDOCK:   -5.84 KCAL/MOL
REMARK 922        TOTAL FREE ENERGY PREDICTED BY IDOCK:   -6.79 KCAL/MOL
REMARK 923 INTER-LIGAND FREE ENERGY PREDICTED BY IDOCK:   -6.43 KCAL/MOL
REMARK 924 INTRA-LIGAND FREE ENERGY PREDICTED BY IDOCK:   -0.36 KCAL/MOL
REMARK 927      BINDING AFFINITY PREDICTED BY RF-SCORE:    0.00 PKD
ROOT
HETATM    1  N   UNL     1     -11.364  16.391  64.054  1.00  0.00    -1.539 NA 
HETATM    2  H1  UNL     1     -10.773  17.196  64.261  1.00  0.00     0.000 HD 
HETATM    3  H2  UNL     1     -12.336  16.532  64.329  1.00  0.00     0.000 HD 
HETATM    4  CA  UNL     1     -10.739  15.183  64.707  1.00  0.00    -0.319 C  
HETATM    5  OXT UNL     1     -11.362  12.816  64.681  1.00  0.00    -0.300 OA 
HETATM    6  C   UNL     1     -11.628  13.972  64.396  1.00  0.00    -0.369 C  
HETATM    7  O   UNL     1     -12.758  14.342  63.734  1.00  0.00    -0.779 OA 
ENDROOT
BRANCH   4   8
HETATM    8  C   UNL     1     -10.542  15.263  66.246  1.00  0.00    -0.309 C  
HETATM    9  O   UNL     1     -11.802  15.177  66.920  1.00  0.00    -0.189 OA 
HETATM   10  H   UNL     1     -11.681  15.226  67.861  1.00  0.00     0.000 HD 
BRANCH   8  11
HETATM   11  C   UNL     1      -9.858  16.557  66.662  1.00  0.00    -0.279 A  
HETATM   12  C   UNL     1     -10.514  17.491  67.489  1.00  0.00    -0.355 A  
HETATM   13  C   UNL     1      -9.897  18.693  67.807  1.00  0.00    -0.325 A  
HETATM   14  C   UNL     1      -8.625  18.978  67.323  1.00  0.00    -0.278 A  
HETATM   15  O   UNL     1     -10.511  19.635  68.585  1.00  0.00    -0.522 OA 
HETATM   16  H   UNL     1     -10.089  20.458  68.802  1.00  0.00     0.000 HD 
HETATM   17  O   UNL     1      -8.029  20.166  67.630  1.00  0.00    -0.293 OA 
HETATM   18  C   UNL     1      -7.951  18.067  66.524  1.00  0.00    -0.294 A  
HETATM   19  C   UNL     1      -8.569  16.858  66.189  1.00  0.00    -0.277 A  
HETATM   20  H   UNL     1      -7.160  20.361  67.299  1.00  0.00     0.000 HD 
ENDBRANCH   8  11
ENDBRANCH   4   8
TORSDOF 2
ENDMDL
MODEL       23
REMARK 921   NORMALIZED FREE ENERGY PREDICTED BY IDOCK:   -5.82 KCAL/MOL
REMARK 922        TOTAL FREE ENERGY PREDICTED BY IDOCK:   -6.76 KCAL/MOL
REMARK 923 INTER-LIGAND FREE ENERGY PREDICTED BY IDOCK:   -6.52 KCAL/MOL
REMARK 924 INTRA-LIGAND FREE ENERGY PREDICTED BY IDOCK:   -0.25 KCAL/MOL
REMARK 927      BINDING AFFINITY PREDICTED BY RF-SCORE:    0.00 PKD
ROOT
HETATM    1  N   UNL     1     -11.023   9.326  71.314  1.00  0.00    -0.323 NA 
HETATM    2  H1  UNL     1     -10.389  10.093  71.089  1.00  0.00     0.000 HD 
HETATM    3  H2  UNL     1     -11.125   8.659  70.548  1.00  0.00     0.000 HD 
HETATM    4  CA  UNL     1     -12.338   9.928  71.746  1.00  0.00    -0.368 C  
HETATM    5  OXT UNL     1     -14.403   8.903  72.566  1.00  0.00    -0.579 OA 
HETATM    6  C   UNL     1     -13.290   8.774  72.083  1.00  0.00    -0.423 C  
HETATM    7  O   UNL     1     -12.733   7.567  71.794  1.00  0.00    -0.322 OA 
ENDROOT
BRANCH   4   8
HETATM    8  C   UNL     1     -13.036  10.856  70.714  1.00  0.00    -0.222 C  
HETATM    9  O   UNL     1     -12.614  10.537  69.384  1.00  0.00    -0.701 OA 
HETATM   10  H   UNL     1     -13.041  11.104  68.753  1.00  0.00     0.000 HD 
BRANCH   8  11
HETATM   11  C   UNL     1     -12.735  12.324  70.978  1.00  0.00    -0.319 A  
HETATM   12  C   UNL     1     -13.291  12.990  72.088  1.00  0.00    -0.622 A  
HETATM   13  C   UNL     1     -13.054  14.345  72.277  1.00  0.00    -0.389 A  
HETATM   14  C   UNL     1     -12.257  15.049  71.381  1.00  0.00    -0.328 A  
HETATM   15  O   UNL     1     -13.597  15.033  73.327  1.00  0.00    -0.563 OA 
HETATM   16  H   UNL     1     -13.434  15.960  73.456  1.00  0.00     0.000 HD 
HETATM   17  O   UNL     1     -12.038  16.383  71.566  1.00  0.00    -0.627 OA 
HETATM   18  C   UNL     1     -11.682  14.411  70.292  1.00  0.00    -0.355 A  
HETATM   19  C   UNL     1     -11.924  13.049  70.088  1.00  0.00    -0.374 A  
HETATM   20  H   UNL     1     -11.493  16.864  70.954  1.00  0.00     0.000 HD 
ENDBRANCH   8  11
ENDBRANCH   4   8
TORSDOF 2
ENDMDL
MODEL       24
REMARK 921   NORMALIZED FREE ENERGY PREDICTED BY IDOCK:   -5.78 KCAL/MOL
REMARK 922        TOTAL FREE ENERGY PREDICTED BY IDOCK:   -6.72 KCAL/MOL
REMARK 923 INTER-LIGAND FREE ENERGY PREDICTED BY IDOCK:   -6.54 KCAL/MOL
REMARK 924 INTRA-LIGAND FREE ENERGY PREDICTED BY IDOCK:   -0.19 KCAL/MOL
REMARK 927      BINDING AFFINITY PREDICTED BY RF-SCORE:    0.00 PKD
ROOT
HETATM    1  N   UNL     1     -12.375  14.339  63.321  1.00  0.00    -1.092 NA 
HETATM    2  H1  UNL     1     -11.802  14.570  62.509  1.00  0.00     0.000 HD 
HETATM    3  H2  UNL     1     -12.649  15.161  63.859  1.00  0.00     0.000 HD 
HETATM    4  CA  UNL     1     -11.618  13.326  64.144  1.00  0.00    -0.405 C  
HETATM    5  OXT UNL     1     -12.218  12.114  66.184  1.00  0.00    -0.611 OA 
HETATM    6  C   UNL     1     -12.479  12.980  65.365  1.00  0.00    -0.476 C  
HETATM    7  O   UNL     1     -13.600  13.750  65.418  1.00  0.00    -0.517 OA 
ENDROOT
BRANCH   4   8
HETATM    8  C   UNL     1     -10.213  13.763  64.643  1.00  0.00    -0.284 C  
HETATM    9  O   UNL     1      -9.565  12.686  65.327  1.00  0.00    -0.458 OA 
HETATM   10  H   UNL     1      -8.705  12.953  65.632  1.00  0.00     0.000 HD 
BRANCH   8  11
HETATM   11  C   UNL     1     -10.292  14.956  65.584  1.00  0.00    -0.370 A  
HETATM   12  C   UNL     1     -10.455  16.264  65.085  1.00  0.00    -0.254 A  
HETATM   13  C   UNL     1     -10.463  17.345  65.957  1.00  0.00    -0.276 A  
HETATM   14  C   UNL     1     -10.324  17.143  67.326  1.00  0.00    -0.320 A  
HETATM   15  O   UNL     1     -10.592  18.631  65.511  1.00  0.00    -0.608 OA 
HETATM   16  H   UNL     1     -10.597  19.370  66.107  1.00  0.00     0.000 HD 
HETATM   17  O   UNL     1     -10.321  18.210  68.175  1.00  0.00    -0.364 OA 
HETATM   18  C   UNL     1     -10.184  15.864  67.843  1.00  0.00    -0.251 A  
HETATM   19  C   UNL     1     -10.163  14.770  66.971  1.00  0.00    -0.253 A  
HETATM   20  H   UNL     1     -10.227  18.073  69.111  1.00  0.00     0.000 HD 
ENDBRANCH   8  11
ENDBRANCH   4   8
TORSDOF 2
ENDMDL
MODEL       25
REMARK 921   NORMALIZED FREE ENERGY PREDICTED BY IDOCK:   -5.77 KCAL/MOL
REMARK 922        TOTAL FREE ENERGY PREDICTED BY IDOCK:   -6.71 KCAL/MOL
REMARK 923 INTER-LIGAND FREE ENERGY PREDICTED BY IDOCK:   -6.41 KCAL/MOL
REMARK 924 INTRA-LIGAND FREE ENERGY PREDICTED BY IDOCK:   -0.30 KCAL/MOL
REMARK 927      BINDING AFFINITY PREDICTED BY RF-SCORE:    0.00 PKD
ROOT
HETATM    1  N   UNL     1     -12.267  10.653  68.645  1.00  0.00    -0.814 NA 
HETATM    2  H1  UNL     1     -12.736  10.947  67.789  1.00  0.00     0.000 HD 
HETATM    3  H2  UNL     1     -12.426  11.293  69.424  1.00  0.00     0.000 HD 
HETATM    4  CA  UNL     1     -10.804  10.468  68.328  1.00  0.00    -0.248 C  
HETATM    5  OXT UNL     1      -8.930   9.686  69.694  1.00  0.00    -0.171 OA 
HETATM    6  C   UNL     1     -10.099  10.026  69.616  1.00  0.00    -0.236 C  
HETATM    7  O   UNL     1     -10.950  10.038  70.678  1.00  0.00    -0.300 OA 
ENDROOT
BRANCH   4   8
HETATM    8  C   UNL     1     -10.064  11.713  67.766  1.00  0.00    -0.187 C  
HETATM    9  O   UNL     1     -10.032  12.761  68.740  1.00  0.00    -0.397 OA 
HETATM   10  H   UNL     1      -9.580  13.523  68.397  1.00  0.00     0.000 HD 
BRANCH   8  11
HETATM   11  C   UNL     1     -10.728  12.245  66.505  1.00  0.00    -0.279 A  
HETATM   12  C   UNL     1     -10.766  11.475  65.325  1.00  0.00    -0.337 A  
HETATM   13  C   UNL     1     -11.322  12.004  64.167  1.00  0.00    -0.382 A  
HETATM   14  C   UNL     1     -11.855  13.288  64.168  1.00  0.00    -0.443 A  
HETATM   15  O   UNL     1     -11.354  11.299  62.996  1.00  0.00    -0.847 OA 
HETATM   16  H   UNL     1     -11.734  11.660  62.205  1.00  0.00     0.000 HD 
HETATM   17  O   UNL     1     -12.389  13.805  63.024  1.00  0.00    -1.089 OA 
HETATM   18  C   UNL     1     -11.848  14.057  65.322  1.00  0.00    -0.363 A  
HETATM   19  C   UNL     1     -11.280  13.538  66.490  1.00  0.00    -0.322 A  
HETATM   20  H   UNL     1     -12.753  14.682  63.025  1.00  0.00     0.000 HD 
ENDBRANCH   8  11
ENDBRANCH   4   8
TORSDOF 2
ENDMDL
MODEL       26
REMARK 921   NORMALIZED FREE ENERGY PREDICTED BY IDOCK:   -5.76 KCAL/MOL
REMARK 922        TOTAL FREE ENERGY PREDICTED BY IDOCK:   -6.71 KCAL/MOL
REMARK 923 INTER-LIGAND FREE ENERGY PREDICTED BY IDOCK:   -6.43 KCAL/MOL
REMARK 924 INTRA-LIGAND FREE ENERGY PREDICTED BY IDOCK:   -0.27 KCAL/MOL
REMARK 927      BINDING AFFINITY PREDICTED BY RF-SCORE:    0.00 PKD
ROOT
HETATM    1  N   UNL     1     -11.965  12.598  70.552  1.00  0.00    -0.533 NA 
HETATM    2  H1  UNL     1     -12.284  13.559  70.432  1.00  0.00     0.000 HD 
HETATM    3  H2  UNL     1     -11.211  12.514  71.235  1.00  0.00     0.000 HD 
HETATM    4  CA  UNL     1     -11.585  12.067  69.192  1.00  0.00    -0.312 C  
HETATM    5  OXT UNL     1     -10.821   9.859  68.465  1.00  0.00    -0.229 OA 
HETATM    6  C   UNL     1     -11.104  10.622  69.373  1.00  0.00    -0.260 C  
HETATM    7  O   UNL     1     -11.047  10.277  70.688  1.00  0.00    -0.315 OA 
ENDROOT
BRANCH   4   8
HETATM    8  C   UNL     1     -10.486  12.859  68.431  1.00  0.00    -0.251 C  
HETATM    9  O   UNL     1     -10.056  13.988  69.200  1.00  0.00    -0.416 OA 
HETATM   10  H   UNL     1      -9.384  14.472  68.735  1.00  0.00     0.000 HD 
BRANCH   8  11
HETATM   11  C   UNL     1     -10.977  13.353  67.079  1.00  0.00    -0.298 A  
HETATM   12  C   UNL     1     -10.515  14.570  66.540  1.00  0.00    -0.285 A  
HETATM   13  C   UNL     1     -11.022  15.033  65.332  1.00  0.00    -0.373 A  
HETATM   14  C   UNL     1     -11.978  14.295  64.644  1.00  0.00    -0.455 A  
HETATM   15  O   UNL     1     -10.619  16.221  64.789  1.00  0.00    -0.677 OA 
HETATM   16  H   UNL     1     -10.966  16.538  63.964  1.00  0.00     0.000 HD 
HETATM   17  O   UNL     1     -12.481  14.762  63.465  1.00  0.00    -1.053 OA 
HETATM   18  C   UNL     1     -12.434  13.084  65.144  1.00  0.00    -0.552 A  
HETATM   19  C   UNL     1     -11.937  12.615  66.365  1.00  0.00    -0.425 A  
HETATM   20  H   UNL     1     -13.134  14.257  62.994  1.00  0.00     0.000 HD 
ENDBRANCH   8  11
ENDBRANCH   4   8
TORSDOF 2
ENDMDL
MODEL       27
REMARK 921   NORMALIZED FREE ENERGY PREDICTED BY IDOCK:   -5.72 KCAL/MOL
REMARK 922        TOTAL FREE ENERGY PREDICTED BY IDOCK:   -6.65 KCAL/MOL
REMARK 923 INTER-LIGAND FREE ENERGY PREDICTED BY IDOCK:   -6.28 KCAL/MOL
REMARK 924 INTRA-LIGAND FREE ENERGY PREDICTED BY IDOCK:   -0.37 KCAL/MOL
REMARK 927      BINDING AFFINITY PREDICTED BY RF-SCORE:    0.00 PKD
ROOT
HETATM    1  N   UNL     1     -12.552  14.401  64.324  1.00  0.00    -0.669 NA 
HETATM    2  H1  UNL     1     -12.326  15.253  64.838  1.00  0.00     0.000 HD 
HETATM    3  H2  UNL     1     -13.441  13.990  64.609  1.00  0.00     0.000 HD 
HETATM    4  CA  UNL     1     -11.391  13.451  64.476  1.00  0.00    -0.366 C  
HETATM    5  OXT UNL     1     -10.968  11.235  63.528  1.00  0.00    -0.381 OA 
HETATM    6  C   UNL     1     -11.731  12.171  63.703  1.00  0.00    -0.498 C  
HETATM    7  O   UNL     1     -12.998  12.210  63.209  1.00  0.00    -0.735 OA 
ENDROOT
BRANCH   4   8
HETATM    8  C   UNL     1     -11.015  13.060  65.932  1.00  0.00    -0.271 C  
HETATM    9  O   UNL     1     -11.980  12.153  66.475  1.00  0.00    -0.618 OA 
HETATM   10  H   UNL     1     -11.750  11.913  67.365  1.00  0.00     0.000 HD 
BRANCH   8  11
HETATM   11  C   UNL     1     -10.929  14.276  66.841  1.00  0.00    -0.304 A  
HETATM   12  C   UNL     1     -11.803  14.427  67.936  1.00  0.00    -0.384 A  
HETATM   13  C   UNL     1     -11.749  15.574  68.717  1.00  0.00    -0.357 A  
HETATM   14  C   UNL     1     -10.826  16.574  68.432  1.00  0.00    -0.348 A  
HETATM   15  O   UNL     1     -12.597  15.769  69.772  1.00  0.00    -0.521 OA 
HETATM   16  H   UNL     1     -12.560  16.553  70.305  1.00  0.00     0.000 HD 
HETATM   17  O   UNL     1     -10.787  17.704  69.195  1.00  0.00    -0.300 OA 
HETATM   18  C   UNL     1      -9.942  16.440  67.371  1.00  0.00    -0.251 A  
HETATM   19  C   UNL     1      -9.996  15.293  66.573  1.00  0.00    -0.278 A  
HETATM   20  H   UNL     1     -10.157  18.387  69.000  1.00  0.00     0.000 HD 
ENDBRANCH   8  11
ENDBRANCH   4   8
TORSDOF 2
ENDMDL
MODEL       28
REMARK 921   NORMALIZED FREE ENERGY PREDICTED BY IDOCK:   -5.72 KCAL/MOL
REMARK 922        TOTAL FREE ENERGY PREDICTED BY IDOCK:   -6.65 KCAL/MOL
REMARK 923 INTER-LIGAND FREE ENERGY PREDICTED BY IDOCK:   -6.31 KCAL/MOL
REMARK 924 INTRA-LIGAND FREE ENERGY PREDICTED BY IDOCK:   -0.34 KCAL/MOL
REMARK 927      BINDING AFFINITY PREDICTED BY RF-SCORE:    0.00 PKD
ROOT
HETATM    1  N   UNL     1      -9.540  14.523  65.591  1.00  0.00    -0.530 NA 
HETATM    2  H1  UNL     1      -9.192  13.589  65.810  1.00  0.00     0.000 HD 
HETATM    3  H2  UNL     1      -9.622  15.118  66.415  1.00  0.00     0.000 HD 
HETATM    4  CA  UNL     1     -10.845  14.364  64.850  1.00  0.00    -0.416 C  
HETATM    5  OXT UNL     1     -12.347  16.007  63.834  1.00  0.00    -0.855 OA 
HETATM    6  C   UNL     1     -11.368  15.768  64.521  1.00  0.00    -0.316 C  
HETATM    7  O   UNL     1     -10.587  16.733  65.077  1.00  0.00    -0.695 OA 
ENDROOT
BRANCH   4   8
HETATM    8  C   UNL     1     -11.964  13.585  65.595  1.00  0.00    -0.397 C  
HETATM    9  O   UNL     1     -12.545  14.398  66.621  1.00  0.00    -0.534 OA 
HETATM   10  H   UNL     1     -13.229  13.922  67.076  1.00  0.00     0.000 HD 
BRANCH   8  11
HETATM   11  C   UNL     1     -11.437  12.307  66.230  1.00  0.00    -0.435 A  
HETATM   12  C   UNL     1     -10.765  11.338  65.461  1.00  0.00    -0.283 A  
HETATM   13  C   UNL     1     -10.346  10.150  66.048  1.00  0.00    -0.164 A  
HETATM   14  C   UNL     1     -10.577   9.917  67.399  1.00  0.00    -0.277 A  
HETATM   15  O   UNL     1      -9.714   9.175  65.329  1.00  0.00    -0.462 OA 
HETATM   16  H   UNL     1      -9.428   8.363  65.730  1.00  0.00     0.000 HD 
HETATM   17  O   UNL     1     -10.174   8.744  67.966  1.00  0.00    -0.194 OA 
HETATM   18  C   UNL     1     -11.219  10.865  68.182  1.00  0.00    -0.363 A  
HETATM   19  C   UNL     1     -11.654  12.059  67.597  1.00  0.00    -0.392 A  
HETATM   20  H   UNL     1     -10.331   8.584  68.889  1.00  0.00     0.000 HD 
ENDBRANCH   8  11
ENDBRANCH   4   8
TORSDOF 2
ENDMDL
MODEL       29
REMARK 921   NORMALIZED FREE ENERGY PREDICTED BY IDOCK:   -5.71 KCAL/MOL
REMARK 922        TOTAL FREE ENERGY PREDICTED BY IDOCK:   -6.64 KCAL/MOL
REMARK 923 INTER-LIGAND FREE ENERGY PREDICTED BY IDOCK:   -6.96 KCAL/MOL
REMARK 924 INTRA-LIGAND FREE ENERGY PREDICTED BY IDOCK:    0.32 KCAL/MOL
REMARK 927      BINDING AFFINITY PREDICTED BY RF-SCORE:    0.00 PKD
ROOT
HETATM    1  N   UNL     1     -12.427  15.709  69.131  1.00  0.00    -0.560 NA 
HETATM    2  H1  UNL     1     -13.043  14.950  69.421  1.00  0.00     0.000 HD 
HETATM    3  H2  UNL     1     -12.610  16.026  68.178  1.00  0.00     0.000 HD 
HETATM    4  CA  UNL     1     -11.005  15.249  69.333  1.00  0.00    -0.271 C  
HETATM    5  OXT UNL     1      -8.866  16.398  69.025  1.00  0.00    -0.253 OA 
HETATM    6  C   UNL     1     -10.079  16.391  68.896  1.00  0.00    -0.255 C  
HETATM    7  O   UNL     1     -10.782  17.424  68.356  1.00  0.00    -0.358 OA 
ENDROOT
BRANCH   4   8
HETATM    8  C   UNL     1     -10.588  13.961  68.570  1.00  0.00    -0.252 C  
HETATM    9  O   UNL     1      -9.165  13.805  68.587  1.00  0.00    -0.317 OA 
HETATM   10  H   UNL     1      -8.910  13.017  68.121  1.00  0.00     0.000 HD 
BRANCH   8  11
HETATM   11  C   UNL     1     -11.055  13.984  67.123  1.00  0.00    -0.313 A  
HETATM   12  C   UNL     1     -10.739  15.064  66.275  1.00  0.00    -0.322 A  
HETATM   13  C   UNL     1     -11.227  15.095  64.975  1.00  0.00    -0.409 A  
HETATM   14  C   UNL     1     -12.019  14.056  64.499  1.00  0.00    -0.448 A  
HETATM   15  O   UNL     1     -10.965  16.138  64.131  1.00  0.00    -1.061 OA 
HETATM   16  H   UNL     1     -11.299  16.159  63.242  1.00  0.00     0.000 HD 
HETATM   17  O   UNL     1     -12.504  14.098  63.225  1.00  0.00    -1.146 OA 
HETATM   18  C   UNL     1     -12.327  12.972  65.307  1.00  0.00    -0.537 A  
HETATM   19  C   UNL     1     -11.849  12.937  66.621  1.00  0.00    -0.461 A  
HETATM   20  H   UNL     1     -13.045  13.388  62.899  1.00  0.00     0.000 HD 
ENDBRANCH   8  11
ENDBRANCH   4   8
TORSDOF 2
ENDMDL
MODEL       30
REMARK 921   NORMALIZED FREE ENERGY PREDICTED BY IDOCK:   -5.69 KCAL/MOL
REMARK 922        TOTAL FREE ENERGY PREDICTED BY IDOCK:   -6.62 KCAL/MOL
REMARK 923 INTER-LIGAND FREE ENERGY PREDICTED BY IDOCK:   -6.35 KCAL/MOL
REMARK 924 INTRA-LIGAND FREE ENERGY PREDICTED BY IDOCK:   -0.27 KCAL/MOL
REMARK 927      BINDING AFFINITY PREDICTED BY RF-SCORE:    0.00 PKD
ROOT
HETATM    1  N   UNL     1     -12.443  14.043  66.759  1.00  0.00    -0.526 NA 
HETATM    2  H1  UNL     1     -13.172  13.523  67.248  1.00  0.00     0.000 HD 
HETATM    3  H2  UNL     1     -11.802  13.437  66.245  1.00  0.00     0.000 HD 
HETATM    4  CA  UNL     1     -11.742  14.913  67.772  1.00  0.00    -0.317 C  
HETATM    5  OXT UNL     1      -9.955  16.568  67.534  1.00  0.00    -0.246 OA 
HETATM    6  C   UNL     1     -10.645  15.693  67.037  1.00  0.00    -0.311 C  
HETATM    7  O   UNL     1     -10.542  15.303  65.737  1.00  0.00    -0.308 OA 
ENDROOT
BRANCH   4   8
HETATM    8  C   UNL     1     -11.095  14.175  68.977  1.00  0.00    -0.263 C  
HETATM    9  O   UNL     1     -11.239  12.758  68.834  1.00  0.00    -0.256 OA 
HETATM   10  H   UNL     1     -10.843  12.306  69.570  1.00  0.00     0.000 HD 
BRANCH   8  11
HETATM   11  C   UNL     1     -11.721  14.593  70.299  1.00  0.00    -0.355 A  
HETATM   12  C   UNL     1     -12.749  13.832  70.889  1.00  0.00    -0.394 A  
HETATM   13  C   UNL     1     -13.349  14.264  72.064  1.00  0.00    -0.398 A  
HETATM   14  C   UNL     1     -12.929  15.442  72.673  1.00  0.00    -0.422 A  
HETATM   15  O   UNL     1     -14.367  13.568  72.653  1.00  0.00    -0.716 OA 
HETATM   16  H   UNL     1     -14.777  13.863  73.457  1.00  0.00     0.000 HD 
HETATM   17  O   UNL     1     -13.531  15.867  73.821  1.00  0.00    -0.787 OA 
HETATM   18  C   UNL     1     -11.905  16.198  72.123  1.00  0.00    -0.626 A  
HETATM   19  C   UNL     1     -11.303  15.777  70.933  1.00  0.00    -0.426 A  
HETATM   20  H   UNL     1     -13.245  16.672  74.237  1.00  0.00     0.000 HD 
ENDBRANCH   8  11
ENDBRANCH   4   8
TORSDOF 2
ENDMDL
MODEL       31
REMARK 921   NORMALIZED FREE ENERGY PREDICTED BY IDOCK:   -5.68 KCAL/MOL
REMARK 922        TOTAL FREE ENERGY PREDICTED BY IDOCK:   -6.61 KCAL/MOL
REMARK 923 INTER-LIGAND FREE ENERGY PREDICTED BY IDOCK:   -6.34 KCAL/MOL
REMARK 924 INTRA-LIGAND FREE ENERGY PREDICTED BY IDOCK:   -0.27 KCAL/MOL
REMARK 927      BINDING AFFINITY PREDICTED BY RF-SCORE:    0.00 PKD
ROOT
HETATM    1  N   UNL     1     -11.888  12.130  66.128  1.00  0.00    -0.582 NA 
HETATM    2  H1  UNL     1     -11.456  12.018  67.045  1.00  0.00     0.000 HD 
HETATM    3  H2  UNL     1     -11.459  11.543  65.413  1.00  0.00     0.000 HD 
HETATM    4  CA  UNL     1     -11.854  13.598  65.780  1.00  0.00    -0.371 C  
HETATM    5  OXT UNL     1     -12.737  14.834  63.863  1.00  0.00    -0.794 OA 
HETATM    6  C   UNL     1     -12.504  13.765  64.402  1.00  0.00    -0.270 C  
HETATM    7  O   UNL     1     -12.814  12.562  63.848  1.00  0.00    -0.714 OA 
ENDROOT
BRANCH   4   8
HETATM    8  C   UNL     1     -10.448  14.258  65.744  1.00  0.00    -0.316 C  
HETATM    9  O   UNL     1      -9.461  13.370  66.279  1.00  0.00    -0.363 OA 
HETATM   10  H   UNL     1      -8.601  13.774  66.257  1.00  0.00     0.000 HD 
BRANCH   8  11
HETATM   11  C   UNL     1     -10.412  15.556  66.536  1.00  0.00    -0.301 A  
HETATM   12  C   UNL     1     -10.708  15.574  67.914  1.00  0.00    -0.294 A  
HETATM   13  C   UNL     1     -10.729  16.778  68.605  1.00  0.00    -0.352 A  
HETATM   14  C   UNL     1     -10.446  17.970  67.947  1.00  0.00    -0.396 A  
HETATM   15  O   UNL     1     -11.038  16.840  69.936  1.00  0.00    -0.423 OA 
HETATM   16  H   UNL     1     -11.052  17.664  70.408  1.00  0.00     0.000 HD 
HETATM   17  O   UNL     1     -10.480  19.150  68.630  1.00  0.00    -0.464 OA 
HETATM   18  C   UNL     1     -10.131  17.976  66.596  1.00  0.00    -0.372 A  
HETATM   19  C   UNL     1     -10.118  16.769  65.889  1.00  0.00    -0.324 A  
HETATM   20  H   UNL     1     -10.286  19.965  68.181  1.00  0.00     0.000 HD 
ENDBRANCH   8  11
ENDBRANCH   4   8
TORSDOF 2
ENDMDL
MODEL       32
REMARK 921   NORMALIZED FREE ENERGY PREDICTED BY IDOCK:   -5.67 KCAL/MOL
REMARK 922        TOTAL FREE ENERGY PREDICTED BY IDOCK:   -6.60 KCAL/MOL
REMARK 923 INTER-LIGAND FREE ENERGY PREDICTED BY IDOCK:   -6.42 KCAL/MOL
REMARK 924 INTRA-LIGAND FREE ENERGY PREDICTED BY IDOCK:   -0.18 KCAL/MOL
REMARK 927      BINDING AFFINITY PREDICTED BY RF-SCORE:    0.00 PKD
ROOT
HETATM    1  N   UNL     1     -10.156  13.104  63.869  1.00  0.00    -0.764 NA 
HETATM    2  H1  UNL     1      -9.228  12.831  64.195  1.00  0.00     0.000 HD 
HETATM    3  H2  UNL     1     -10.128  13.862  63.186  1.00  0.00     0.000 HD 
HETATM    4  CA  UNL     1     -10.990  13.437  65.081  1.00  0.00    -0.303 C  
HETATM    5  OXT UNL     1     -13.340  14.079  65.309  1.00  0.00    -0.741 OA 
HETATM    6  C   UNL     1     -12.383  13.848  64.589  1.00  0.00    -0.388 C  
HETATM    7  O   UNL     1     -12.435  13.905  63.231  1.00  0.00    -0.817 OA 
ENDROOT
BRANCH   4   8
HETATM    8  C   UNL     1     -10.442  14.565  65.998  1.00  0.00    -0.308 C  
HETATM    9  O   UNL     1      -9.010  14.556  66.006  1.00  0.00    -0.488 OA 
HETATM   10  H   UNL     1      -8.675  15.246  66.567  1.00  0.00     0.000 HD 
BRANCH   8  11
HETATM   11  C   UNL     1     -10.933  14.418  67.431  1.00  0.00    -0.303 A  
HETATM   12  C   UNL     1     -11.042  13.149  68.034  1.00  0.00    -0.290 A  
HETATM   13  C   UNL     1     -11.551  13.032  69.321  1.00  0.00    -0.310 A  
HETATM   14  C   UNL     1     -11.944  14.165  70.025  1.00  0.00    -0.340 A  
HETATM   15  O   UNL     1     -11.696  11.818  69.931  1.00  0.00    -0.310 OA 
HETATM   16  H   UNL     1     -12.044  11.738  70.811  1.00  0.00     0.000 HD 
HETATM   17  O   UNL     1     -12.454  14.042  71.285  1.00  0.00    -0.340 OA 
HETATM   18  C   UNL     1     -11.828  15.426  69.460  1.00  0.00    -0.370 A  
HETATM   19  C   UNL     1     -11.327  15.553  68.161  1.00  0.00    -0.348 A  
HETATM   20  H   UNL     1     -12.723  14.815  71.766  1.00  0.00     0.000 HD 
ENDBRANCH   8  11
ENDBRANCH   4   8
TORSDOF 2
ENDMDL
MODEL       33
REMARK 921   NORMALIZED FREE ENERGY PREDICTED BY IDOCK:   -5.67 KCAL/MOL
REMARK 922        TOTAL FREE ENERGY PREDICTED BY IDOCK:   -6.60 KCAL/MOL
REMARK 923 INTER-LIGAND FREE ENERGY PREDICTED BY IDOCK:   -6.23 KCAL/MOL
REMARK 924 INTRA-LIGAND FREE ENERGY PREDICTED BY IDOCK:   -0.37 KCAL/MOL
REMARK 927      BINDING AFFINITY PREDICTED BY RF-SCORE:    0.00 PKD
ROOT
HETATM    1  N   UNL     1      -9.432  14.511  65.727  1.00  0.00    -0.531 NA 
HETATM    2  H1  UNL     1      -9.063  13.566  65.836  1.00  0.00     0.000 HD 
HETATM    3  H2  UNL     1      -9.668  14.949  66.618  1.00  0.00     0.000 HD 
HETATM    4  CA  UNL     1     -10.604  14.439  64.780  1.00  0.00    -0.393 C  
HETATM    5  OXT UNL     1     -12.043  16.181  63.840  1.00  0.00    -0.956 OA 
HETATM    6  C   UNL     1     -11.160  15.859  64.618  1.00  0.00    -0.354 C  
HETATM    7  O   UNL     1     -10.527  16.739  65.441  1.00  0.00    -0.592 OA 
ENDROOT
BRANCH   4   8
HETATM    8  C   UNL     1     -11.769  13.502  65.205  1.00  0.00    -0.322 C  
HETATM    9  O   UNL     1     -12.544  14.104  66.247  1.00  0.00    -0.485 OA 
HETATM   10  H   UNL     1     -13.256  13.531  66.507  1.00  0.00     0.000 HD 
BRANCH   8  11
HETATM   11  C   UNL     1     -11.262  12.155  65.695  1.00  0.00    -0.381 A  
HETATM   12  C   UNL     1     -11.506  11.723  67.014  1.00  0.00    -0.368 A  
HETATM   13  C   UNL     1     -10.981  10.517  67.460  1.00  0.00    -0.303 A  
HETATM   14  C   UNL     1     -10.225   9.723  66.606  1.00  0.00    -0.226 A  
HETATM   15  O   UNL     1     -11.174  10.077  68.740  1.00  0.00    -0.391 OA 
HETATM   16  H   UNL     1     -10.815   9.252  69.045  1.00  0.00     0.000 HD 
HETATM   17  O   UNL     1      -9.703   8.545  67.054  1.00  0.00    -0.170 OA 
HETATM   18  C   UNL     1      -9.988  10.116  65.297  1.00  0.00    -0.381 A  
HETATM   19  C   UNL     1     -10.502  11.334  64.842  1.00  0.00    -0.375 A  
HETATM   20  H   UNL     1      -9.186   8.002  66.471  1.00  0.00     0.000 HD 
ENDBRANCH   8  11
ENDBRANCH   4   8
TORSDOF 2
ENDMDL
MODEL       34
REMARK 921   NORMALIZED FREE ENERGY PREDICTED BY IDOCK:   -5.63 KCAL/MOL
REMARK 922        TOTAL FREE ENERGY PREDICTED BY IDOCK:   -6.56 KCAL/MOL
REMARK 923 INTER-LIGAND FREE ENERGY PREDICTED BY IDOCK:   -6.50 KCAL/MOL
REMARK 924 INTRA-LIGAND FREE ENERGY PREDICTED BY IDOCK:   -0.06 KCAL/MOL
REMARK 927      BINDING AFFINITY PREDICTED BY RF-SCORE:    0.00 PKD
ROOT
HETATM    1  N   UNL     1     -10.265  13.199  63.835  1.00  0.00    -0.744 NA 
HETATM    2  H1  UNL     1      -9.316  12.988  64.144  1.00  0.00     0.000 HD 
HETATM    3  H2  UNL     1     -10.300  13.960  63.155  1.00  0.00     0.000 HD 
HETATM    4  CA  UNL     1     -11.099  13.471  65.063  1.00  0.00    -0.328 C  
HETATM    5  OXT UNL     1     -13.482  13.952  65.335  1.00  0.00    -0.672 OA 
HETATM    6  C   UNL     1     -12.525  13.788  64.597  1.00  0.00    -0.315 C  
HETATM    7  O   UNL     1     -12.604  13.847  63.240  1.00  0.00    -0.824 OA 
ENDROOT
BRANCH   4   8
HETATM    8  C   UNL     1     -10.611  14.629  65.977  1.00  0.00    -0.309 C  
HETATM    9  O   UNL     1      -9.182  14.705  65.974  1.00  0.00    -0.479 OA 
HETATM   10  H   UNL     1      -8.884  15.413  66.532  1.00  0.00     0.000 HD 
BRANCH   8  11
HETATM   11  C   UNL     1     -11.083  14.453  67.412  1.00  0.00    -0.317 A  
HETATM   12  C   UNL     1     -11.191  15.558  68.281  1.00  0.00    -0.343 A  
HETATM   13  C   UNL     1     -11.564  15.368  69.605  1.00  0.00    -0.331 A  
HETATM   14  C   UNL     1     -11.846  14.091  70.078  1.00  0.00    -0.320 A  
HETATM   15  O   UNL     1     -11.655  16.410  70.485  1.00  0.00    -0.497 OA 
HETATM   16  H   UNL     1     -11.910  16.281  71.390  1.00  0.00     0.000 HD 
HETATM   17  O   UNL     1     -12.201  13.911  71.383  1.00  0.00    -0.323 OA 
HETATM   18  C   UNL     1     -11.767  12.991  69.238  1.00  0.00    -0.375 A  
HETATM   19  C   UNL     1     -11.381  13.171  67.905  1.00  0.00    -0.321 A  
HETATM   20  H   UNL     1     -12.393  13.039  71.706  1.00  0.00     0.000 HD 
ENDBRANCH   8  11
ENDBRANCH   4   8
TORSDOF 2
ENDMDL
MODEL       35
REMARK 921   NORMALIZED FREE ENERGY PREDICTED BY IDOCK:   -5.62 KCAL/MOL
REMARK 922        TOTAL FREE ENERGY PREDICTED BY IDOCK:   -6.54 KCAL/MOL
REMARK 923 INTER-LIGAND FREE ENERGY PREDICTED BY IDOCK:   -6.27 KCAL/MOL
REMARK 924 INTRA-LIGAND FREE ENERGY PREDICTED BY IDOCK:   -0.27 KCAL/MOL
REMARK 927      BINDING AFFINITY PREDICTED BY RF-SCORE:    0.00 PKD
ROOT
HETATM    1  N   UNL     1     -10.233  13.910  64.415  1.00  0.00    -0.732 NA 
HETATM    2  H1  UNL     1      -9.405  14.023  65.001  1.00  0.00     0.000 HD 
HETATM    3  H2  UNL     1     -10.594  14.797  64.065  1.00  0.00     0.000 HD 
HETATM    4  CA  UNL     1     -11.254  13.133  65.208  1.00  0.00    -0.291 C  
HETATM    5  OXT UNL     1     -13.475  12.292  64.616  1.00  0.00    -0.620 OA 
HETATM    6  C   UNL     1     -12.498  12.963  64.327  1.00  0.00    -0.349 C  
HETATM    7  O   UNL     1     -12.374  13.642  63.155  1.00  0.00    -0.729 OA 
ENDROOT
BRANCH   4   8
HETATM    8  C   UNL     1     -11.693  13.761  66.559  1.00  0.00    -0.385 C  
HETATM    9  O   UNL     1     -10.839  14.858  66.905  1.00  0.00    -0.306 OA 
HETATM   10  H   UNL     1     -11.108  15.243  67.731  1.00  0.00     0.000 HD 
BRANCH   8  11
HETATM   11  C   UNL     1     -11.660  12.747  67.693  1.00  0.00    -0.412 A  
HETATM   12  C   UNL     1     -11.353  11.394  67.448  1.00  0.00    -0.359 A  
HETATM   13  C   UNL     1     -11.389  10.473  68.487  1.00  0.00    -0.257 A  
HETATM   14  C   UNL     1     -11.714  10.882  69.775  1.00  0.00    -0.338 A  
HETATM   15  O   UNL     1     -11.123   9.148  68.284  1.00  0.00    -0.478 OA 
HETATM   16  H   UNL     1     -11.147   8.518  68.994  1.00  0.00     0.000 HD 
HETATM   17  O   UNL     1     -11.759   9.969  70.788  1.00  0.00    -0.297 OA 
HETATM   18  C   UNL     1     -12.000  12.212  70.046  1.00  0.00    -0.391 A  
HETATM   19  C   UNL     1     -11.978  13.145  69.004  1.00  0.00    -0.329 A  
HETATM   20  H   UNL     1     -11.981  10.248  71.669  1.00  0.00     0.000 HD 
ENDBRANCH   8  11
ENDBRANCH   4   8
TORSDOF 2
ENDMDL
MODEL       36
REMARK 921   NORMALIZED FREE ENERGY PREDICTED BY IDOCK:   -5.61 KCAL/MOL
REMARK 922        TOTAL FREE ENERGY PREDICTED BY IDOCK:   -6.54 KCAL/MOL
REMARK 923 INTER-LIGAND FREE ENERGY PREDICTED BY IDOCK:   -6.43 KCAL/MOL
REMARK 924 INTRA-LIGAND FREE ENERGY PREDICTED BY IDOCK:   -0.11 KCAL/MOL
REMARK 927      BINDING AFFINITY PREDICTED BY RF-SCORE:    0.00 PKD
ROOT
HETATM    1  N   UNL     1      -8.817  11.898  66.142  1.00  0.00    -0.373 NA 
HETATM    2  H1  UNL     1      -8.413  12.806  66.373  1.00  0.00     0.000 HD 
HETATM    3  H2  UNL     1      -9.288  11.893  65.237  1.00  0.00     0.000 HD 
HETATM    4  CA  UNL     1      -9.724  11.496  67.278  1.00  0.00    -0.182 C  
HETATM    5  OXT UNL     1     -11.029   9.465  67.676  1.00  0.00    -0.223 OA 
HETATM    6  C   UNL     1     -10.332  10.132  66.930  1.00  0.00    -0.236 C  
HETATM    7  O   UNL     1      -9.979   9.735  65.677  1.00  0.00    -0.301 OA 
ENDROOT
BRANCH   4   8
HETATM    8  C   UNL     1     -10.882  12.479  67.609  1.00  0.00    -0.225 C  
HETATM    9  O   UNL     1     -12.111  11.767  67.784  1.00  0.00    -0.595 OA 
HETATM   10  H   UNL     1     -12.819  12.367  67.986  1.00  0.00     0.000 HD 
BRANCH   8  11
HETATM   11  C   UNL     1     -11.075  13.515  66.512  1.00  0.00    -0.310 A  
HETATM   12  C   UNL     1     -10.403  14.753  66.556  1.00  0.00    -0.287 A  
HETATM   13  C   UNL     1     -10.641  15.709  65.577  1.00  0.00    -0.404 A  
HETATM   14  C   UNL     1     -11.532  15.447  64.542  1.00  0.00    -0.311 A  
HETATM   15  O   UNL     1     -10.029  16.931  65.600  1.00  0.00    -0.552 OA 
HETATM   16  H   UNL     1     -10.192  17.585  64.931  1.00  0.00     0.000 HD 
HETATM   17  O   UNL     1     -11.769  16.395  63.591  1.00  0.00    -1.520 OA 
HETATM   18  C   UNL     1     -12.190  14.228  64.465  1.00  0.00    -0.476 A  
HETATM   19  C   UNL     1     -11.965  13.263  65.453  1.00  0.00    -0.432 A  
HETATM   20  H   UNL     1     -12.378  16.216  62.884  1.00  0.00     0.000 HD 
ENDBRANCH   8  11
ENDBRANCH   4   8
TORSDOF 2
ENDMDL
MODEL       37
REMARK 921   NORMALIZED FREE ENERGY PREDICTED BY IDOCK:   -5.61 KCAL/MOL
REMARK 922        TOTAL FREE ENERGY PREDICTED BY IDOCK:   -6.53 KCAL/MOL
REMARK 923 INTER-LIGAND FREE ENERGY PREDICTED BY IDOCK:   -6.30 KCAL/MOL
REMARK 924 INTRA-LIGAND FREE ENERGY PREDICTED BY IDOCK:   -0.23 KCAL/MOL
REMARK 927      BINDING AFFINITY PREDICTED BY RF-SCORE:    0.00 PKD
ROOT
HETATM    1  N   UNL     1     -10.448  15.848  68.781  1.00  0.00    -0.227 NA 
HETATM    2  H1  UNL     1     -10.471  15.011  69.363  1.00  0.00     0.000 HD 
HETATM    3  H2  UNL     1     -11.182  16.516  69.017  1.00  0.00     0.000 HD 
HETATM    4  CA  UNL     1     -10.498  15.407  67.339  1.00  0.00    -0.277 C  
HETATM    5  OXT UNL     1     -10.382  16.671  65.247  1.00  0.00    -0.609 OA 
HETATM    6  C   UNL     1     -10.463  16.666  66.465  1.00  0.00    -0.262 C  
HETATM    7  O   UNL     1     -10.512  17.797  67.219  1.00  0.00    -0.356 OA 
ENDROOT
BRANCH   4   8
HETATM    8  C   UNL     1     -11.732  14.557  66.927  1.00  0.00    -0.382 C  
HETATM    9  O   UNL     1     -12.265  13.862  68.060  1.00  0.00    -0.471 OA 
HETATM   10  H   UNL     1     -13.020  13.343  67.808  1.00  0.00     0.000 HD 
BRANCH   8  11
HETATM   11  C   UNL     1     -11.384  13.537  65.854  1.00  0.00    -0.321 A  
HETATM   12  C   UNL     1     -12.325  13.165  64.874  1.00  0.00    -0.494 A  
HETATM   13  C   UNL     1     -12.009  12.187  63.940  1.00  0.00    -0.486 A  
HETATM   14  C   UNL     1     -10.758  11.579  63.959  1.00  0.00    -0.384 A  
HETATM   15  O   UNL     1     -12.904  11.780  62.991  1.00  0.00    -0.844 OA 
HETATM   16  H   UNL     1     -12.687  11.111  62.352  1.00  0.00     0.000 HD 
HETATM   17  O   UNL     1     -10.458  10.610  63.046  1.00  0.00    -0.668 OA 
HETATM   18  C   UNL     1      -9.807  11.942  64.900  1.00  0.00    -0.224 A  
HETATM   19  C   UNL     1     -10.121  12.918  65.852  1.00  0.00    -0.295 A  
HETATM   20  H   UNL     1      -9.604  10.195  63.058  1.00  0.00     0.000 HD 
ENDBRANCH   8  11
ENDBRANCH   4   8
TORSDOF 2
ENDMDL
MODEL       38
REMARK 921   NORMALIZED FREE ENERGY PREDICTED BY IDOCK:   -5.61 KCAL/MOL
REMARK 922        TOTAL FREE ENERGY PREDICTED BY IDOCK:   -6.53 KCAL/MOL
REMARK 923 INTER-LIGAND FREE ENERGY PREDICTED BY IDOCK:   -6.26 KCAL/MOL
REMARK 924 INTRA-LIGAND FREE ENERGY PREDICTED BY IDOCK:   -0.27 KCAL/MOL
REMARK 927      BINDING AFFINITY PREDICTED BY RF-SCORE:    0.00 PKD
ROOT
HETATM    1  N   UNL     1     -12.473  12.616  65.700  1.00  0.00    -0.620 NA 
HETATM    2  H1  UNL     1     -13.319  12.260  66.145  1.00  0.00     0.000 HD 
HETATM    3  H2  UNL     1     -12.002  11.915  65.127  1.00  0.00     0.000 HD 
HETATM    4  CA  UNL     1     -11.586  13.178  66.783  1.00  0.00    -0.366 C  
HETATM    5  OXT UNL     1      -9.430  14.330  66.684  1.00  0.00    -0.264 OA 
HETATM    6  C   UNL     1     -10.314  13.713  66.115  1.00  0.00    -0.297 C  
HETATM    7  O   UNL     1     -10.296  13.431  64.783  1.00  0.00    -0.378 OA 
ENDROOT
BRANCH   4   8
HETATM    8  C   UNL     1     -11.172  12.190  67.908  1.00  0.00    -0.272 C  
HETATM    9  O   UNL     1     -11.538  10.851  67.562  1.00  0.00    -0.526 OA 
HETATM   10  H   UNL     1     -11.284  10.246  68.249  1.00  0.00     0.000 HD 
BRANCH   8  11
HETATM   11  C   UNL     1     -11.822  12.541  69.238  1.00  0.00    -0.360 A  
HETATM   12  C   UNL     1     -12.185  11.535  70.156  1.00  0.00    -0.387 A  
HETATM   13  C   UNL     1     -12.833  11.872  71.337  1.00  0.00    -0.307 A  
HETATM   14  C   UNL     1     -13.116  13.202  71.627  1.00  0.00    -0.353 A  
HETATM   15  O   UNL     1     -13.224  10.923  72.240  1.00  0.00    -0.613 OA 
HETATM   16  H   UNL     1     -13.668  11.153  73.048  1.00  0.00     0.000 HD 
HETATM   17  O   UNL     1     -13.764  13.524  72.783  1.00  0.00    -0.710 OA 
HETATM   18  C   UNL     1     -12.751  14.212  70.749  1.00  0.00    -0.414 A  
HETATM   19  C   UNL     1     -12.108  13.881  69.552  1.00  0.00    -0.393 A  
HETATM   20  H   UNL     1     -13.958  14.433  72.982  1.00  0.00     0.000 HD 
ENDBRANCH   8  11
ENDBRANCH   4   8
TORSDOF 2
ENDMDL
MODEL       39
REMARK 921   NORMALIZED FREE ENERGY PREDICTED BY IDOCK:   -5.59 KCAL/MOL
REMARK 922        TOTAL FREE ENERGY PREDICTED BY IDOCK:   -6.51 KCAL/MOL
REMARK 923 INTER-LIGAND FREE ENERGY PREDICTED BY IDOCK:   -6.28 KCAL/MOL
REMARK 924 INTRA-LIGAND FREE ENERGY PREDICTED BY IDOCK:   -0.24 KCAL/MOL
REMARK 927      BINDING AFFINITY PREDICTED BY RF-SCORE:    0.00 PKD
ROOT
HETATM    1  N   UNL     1     -11.370  13.172  66.250  1.00  0.00    -0.305 NA 
HETATM    2  H1  UNL     1     -10.873  13.217  67.139  1.00  0.00     0.000 HD 
HETATM    3  H2  UNL     1     -10.874  12.626  65.546  1.00  0.00     0.000 HD 
HETATM    4  CA  UNL     1     -11.648  14.587  65.807  1.00  0.00    -0.347 C  
HETATM    5  OXT UNL     1     -12.868  15.477  63.882  1.00  0.00    -0.605 OA 
HETATM    6  C   UNL     1     -12.396  14.518  64.470  1.00  0.00    -0.414 C  
HETATM    7  O   UNL     1     -12.492  13.239  64.018  1.00  0.00    -0.618 OA 
ENDROOT
BRANCH   4   8
HETATM    8  C   UNL     1     -10.406  15.503  65.629  1.00  0.00    -0.384 C  
HETATM    9  O   UNL     1      -9.199  14.750  65.784  1.00  0.00    -0.513 OA 
HETATM   10  H   UNL     1      -8.439  15.310  65.675  1.00  0.00     0.000 HD 
BRANCH   8  11
HETATM   11  C   UNL     1     -10.397  16.646  66.633  1.00  0.00    -0.296 A  
HETATM   12  C   UNL     1     -10.177  17.974  66.219  1.00  0.00    -0.381 A  
HETATM   13  C   UNL     1     -10.111  18.995  67.159  1.00  0.00    -0.364 A  
HETATM   14  C   UNL     1     -10.273  18.714  68.511  1.00  0.00    -0.353 A  
HETATM   15  O   UNL     1      -9.874  20.292  66.800  1.00  0.00    -0.427 OA 
HETATM   16  H   UNL     1      -9.828  20.989  67.442  1.00  0.00     0.000 HD 
HETATM   17  O   UNL     1     -10.195  19.719  69.430  1.00  0.00    -0.641 OA 
HETATM   18  C   UNL     1     -10.511  17.417  68.942  1.00  0.00    -0.312 A  
HETATM   19  C   UNL     1     -10.568  16.381  68.004  1.00  0.00    -0.314 A  
HETATM   20  H   UNL     1     -10.306  19.527  70.354  1.00  0.00     0.000 HD 
ENDBRANCH   8  11
ENDBRANCH   4   8
TORSDOF 2
ENDMDL
MODEL       40
REMARK 921   NORMALIZED FREE ENERGY PREDICTED BY IDOCK:   -5.59 KCAL/MOL
REMARK 922        TOTAL FREE ENERGY PREDICTED BY IDOCK:   -6.51 KCAL/MOL
REMARK 923 INTER-LIGAND FREE ENERGY PREDICTED BY IDOCK:   -6.44 KCAL/MOL
REMARK 924 INTRA-LIGAND FREE ENERGY PREDICTED BY IDOCK:   -0.06 KCAL/MOL
REMARK 927      BINDING AFFINITY PREDICTED BY RF-SCORE:    0.00 PKD
ROOT
HETATM    1  N   UNL     1     -12.999  14.419  64.625  1.00  0.00    -0.485 NA 
HETATM    2  H1  UNL     1     -12.749  15.383  64.845  1.00  0.00     0.000 HD 
HETATM    3  H2  UNL     1     -13.414  13.927  65.417  1.00  0.00     0.000 HD 
HETATM    4  CA  UNL     1     -11.766  13.734  64.091  1.00  0.00    -0.364 C  
HETATM    5  OXT UNL     1     -11.410  11.479  63.211  1.00  0.00    -0.317 OA 
HETATM    6  C   UNL     1     -12.142  12.285  63.761  1.00  0.00    -0.532 C  
HETATM    7  O   UNL     1     -13.418  12.003  64.141  1.00  0.00    -0.672 OA 
ENDROOT
BRANCH   4   8
HETATM    8  C   UNL     1     -10.531  13.718  65.034  1.00  0.00    -0.402 C  
HETATM    9  O   UNL     1      -9.587  12.728  64.611  1.00  0.00    -0.507 OA 
HETATM   10  H   UNL     1      -8.832  12.718  65.187  1.00  0.00     0.000 HD 
BRANCH   8  11
HETATM   11  C   UNL     1     -10.923  13.426  66.475  1.00  0.00    -0.299 A  
HETATM   12  C   UNL     1     -11.358  12.144  66.863  1.00  0.00    -0.402 A  
HETATM   13  C   UNL     1     -11.770  11.914  68.170  1.00  0.00    -0.320 A  
HETATM   14  C   UNL     1     -11.743  12.944  69.104  1.00  0.00    -0.324 A  
HETATM   15  O   UNL     1     -12.224  10.691  68.579  1.00  0.00    -0.822 OA 
HETATM   16  H   UNL     1     -12.506  10.535  69.472  1.00  0.00     0.000 HD 
HETATM   17  O   UNL     1     -12.161  12.714  70.383  1.00  0.00    -0.397 OA 
HETATM   18  C   UNL     1     -11.300  14.209  68.752  1.00  0.00    -0.308 A  
HETATM   19  C   UNL     1     -10.894  14.453  67.435  1.00  0.00    -0.293 A  
HETATM   20  H   UNL     1     -12.142  13.418  71.021  1.00  0.00     0.000 HD 
ENDBRANCH   8  11
ENDBRANCH   4   8
TORSDOF 2
ENDMDL
MODEL       41
REMARK 921   NORMALIZED FREE ENERGY PREDICTED BY IDOCK:   -5.56 KCAL/MOL
REMARK 922        TOTAL FREE ENERGY PREDICTED BY IDOCK:   -6.48 KCAL/MOL
REMARK 923 INTER-LIGAND FREE ENERGY PREDICTED BY IDOCK:   -6.25 KCAL/MOL
REMARK 924 INTRA-LIGAND FREE ENERGY PREDICTED BY IDOCK:   -0.23 KCAL/MOL
REMARK 927      BINDING AFFINITY PREDICTED BY RF-SCORE:    0.00 PKD
ROOT
HETATM    1  N   UNL     1      -8.645  11.898  68.773  1.00  0.00    -0.360 NA 
HETATM    2  H1  UNL     1      -8.024  12.702  68.675  1.00  0.00     0.000 HD 
HETATM    3  H2  UNL     1      -8.224  11.030  68.440  1.00  0.00     0.000 HD 
HETATM    4  CA  UNL     1      -9.939  12.229  68.073  1.00  0.00    -0.202 C  
HETATM    5  OXT UNL     1     -12.038  10.987  67.865  1.00  0.00    -0.600 OA 
HETATM    6  C   UNL     1     -10.872  11.020  68.221  1.00  0.00    -0.215 C  
HETATM    7  O   UNL     1     -10.242   9.976  68.825  1.00  0.00    -0.170 OA 
ENDROOT
BRANCH   4   8
HETATM    8  C   UNL     1      -9.830  12.582  66.564  1.00  0.00    -0.246 C  
HETATM    9  O   UNL     1      -8.530  12.250  66.063  1.00  0.00    -0.377 OA 
HETATM   10  H   UNL     1      -8.463  12.465  65.140  1.00  0.00     0.000 HD 
BRANCH   8  11
HETATM   11  C   UNL     1     -10.083  14.060  66.309  1.00  0.00    -0.307 A  
HETATM   12  C   UNL     1     -10.800  14.488  65.174  1.00  0.00    -0.407 A  
HETATM   13  C   UNL     1     -10.968  15.845  64.927  1.00  0.00    -0.411 A  
HETATM   14  C   UNL     1     -10.441  16.787  65.803  1.00  0.00    -0.292 A  
HETATM   15  O   UNL     1     -11.634  16.299  63.824  1.00  0.00    -1.539 OA 
HETATM   16  H   UNL     1     -11.749  17.227  63.655  1.00  0.00     0.000 HD 
HETATM   17  O   UNL     1     -10.599  18.118  65.548  1.00  0.00    -0.638 OA 
HETATM   18  C   UNL     1      -9.748  16.391  66.937  1.00  0.00    -0.260 A  
HETATM   19  C   UNL     1      -9.565  15.027  67.189  1.00  0.00    -0.222 A  
HETATM   20  H   UNL     1     -10.239  18.762  66.146  1.00  0.00     0.000 HD 
ENDBRANCH   8  11
ENDBRANCH   4   8
TORSDOF 2
ENDMDL
MODEL       42
REMARK 921   NORMALIZED FREE ENERGY PREDICTED BY IDOCK:   -5.56 KCAL/MOL
REMARK 922        TOTAL FREE ENERGY PREDICTED BY IDOCK:   -6.48 KCAL/MOL
REMARK 923 INTER-LIGAND FREE ENERGY PREDICTED BY IDOCK:   -6.09 KCAL/MOL
REMARK 924 INTRA-LIGAND FREE ENERGY PREDICTED BY IDOCK:   -0.39 KCAL/MOL
REMARK 927      BINDING AFFINITY PREDICTED BY RF-SCORE:    0.00 PKD
ROOT
HETATM    1  N   UNL     1     -11.828  14.344  67.377  1.00  0.00    -0.417 NA 
HETATM    2  H1  UNL     1     -11.658  15.313  67.646  1.00  0.00     0.000 HD 
HETATM    3  H2  UNL     1     -11.067  13.720  67.644  1.00  0.00     0.000 HD 
HETATM    4  CA  UNL     1     -12.112  14.322  65.895  1.00  0.00    -0.404 C  
HETATM    5  OXT UNL     1     -12.732  12.498  64.386  1.00  0.00    -0.656 OA 
HETATM    6  C   UNL     1     -12.368  12.865  65.491  1.00  0.00    -0.461 C  
HETATM    7  O   UNL     1     -12.157  12.015  66.533  1.00  0.00    -0.617 OA 
ENDROOT
BRANCH   4   8
HETATM    8  C   UNL     1     -10.999  14.898  64.977  1.00  0.00    -0.420 C  
HETATM    9  O   UNL     1     -10.060  13.877  64.624  1.00  0.00    -0.589 OA 
HETATM   10  H   UNL     1      -9.380  14.228  64.062  1.00  0.00     0.000 HD 
BRANCH   8  11
HETATM   11  C   UNL     1     -10.245  16.037  65.647  1.00  0.00    -0.412 A  
HETATM   12  C   UNL     1     -10.766  17.346  65.655  1.00  0.00    -0.113 A  
HETATM   13  C   UNL     1     -10.033  18.383  66.218  1.00  0.00    -0.366 A  
HETATM   14  C   UNL     1      -8.790  18.134  66.788  1.00  0.00    -0.264 A  
HETATM   15  O   UNL     1     -10.492  19.671  66.222  1.00  0.00    -0.454 OA 
HETATM   16  H   UNL     1      -9.991  20.380  66.607  1.00  0.00     0.000 HD 
HETATM   17  O   UNL     1      -8.071  19.159  67.329  1.00  0.00    -0.259 OA 
HETATM   18  C   UNL     1      -8.265  16.850  66.811  1.00  0.00    -0.275 A  
HETATM   19  C   UNL     1      -8.991  15.802  66.237  1.00  0.00    -0.381 A  
HETATM   20  H   UNL     1      -7.221  18.989  67.719  1.00  0.00     0.000 HD 
ENDBRANCH   8  11
ENDBRANCH   4   8
TORSDOF 2
ENDMDL
MODEL       43
REMARK 921   NORMALIZED FREE ENERGY PREDICTED BY IDOCK:   -5.55 KCAL/MOL
REMARK 922        TOTAL FREE ENERGY PREDICTED BY IDOCK:   -6.47 KCAL/MOL
REMARK 923 INTER-LIGAND FREE ENERGY PREDICTED BY IDOCK:   -6.20 KCAL/MOL
REMARK 924 INTRA-LIGAND FREE ENERGY PREDICTED BY IDOCK:   -0.27 KCAL/MOL
REMARK 927      BINDING AFFINITY PREDICTED BY RF-SCORE:    0.00 PKD
ROOT
HETATM    1  N   UNL     1      -9.780  17.352  66.368  1.00  0.00    -0.290 NA 
HETATM    2  H1  UNL     1      -9.475  17.204  65.406  1.00  0.00     0.000 HD 
HETATM    3  H2  UNL     1      -9.002  17.508  67.010  1.00  0.00     0.000 HD 
HETATM    4  CA  UNL     1     -10.639  16.177  66.763  1.00  0.00    -0.277 C  
HETATM    5  OXT UNL     1     -11.891  15.694  68.810  1.00  0.00    -0.370 OA 
HETATM    6  C   UNL     1     -11.096  16.399  68.210  1.00  0.00    -0.337 C  
HETATM    7  O   UNL     1     -10.518  17.506  68.751  1.00  0.00    -0.355 OA 
ENDROOT
BRANCH   4   8
HETATM    8  C   UNL     1      -9.970  14.778  66.670  1.00  0.00    -0.264 C  
HETATM    9  O   UNL     1      -8.604  14.901  66.258  1.00  0.00    -0.445 OA 
HETATM   10  H   UNL     1      -8.194  14.046  66.201  1.00  0.00     0.000 HD 
BRANCH   8  11
HETATM   11  C   UNL     1     -10.692  13.870  65.686  1.00  0.00    -0.292 A  
HETATM   12  C   UNL     1      -9.981  13.164  64.694  1.00  0.00    -0.145 A  
HETATM   13  C   UNL     1     -10.666  12.388  63.767  1.00  0.00    -0.451 A  
HETATM   14  C   UNL     1     -12.052  12.293  63.820  1.00  0.00    -0.532 A  
HETATM   15  O   UNL     1     -10.015  11.710  62.774  1.00  0.00    -0.589 OA 
HETATM   16  H   UNL     1     -10.483  11.180  62.141  1.00  0.00     0.000 HD 
HETATM   17  O   UNL     1     -12.718  11.539  62.899  1.00  0.00    -0.947 OA 
HETATM   18  C   UNL     1     -12.771  12.961  64.799  1.00  0.00    -0.442 A  
HETATM   19  C   UNL     1     -12.092  13.754  65.730  1.00  0.00    -0.458 A  
HETATM   20  H   UNL     1     -13.665  11.473  62.935  1.00  0.00     0.000 HD 
ENDBRANCH   8  11
ENDBRANCH   4   8
TORSDOF 2
ENDMDL
MODEL       44
REMARK 921   NORMALIZED FREE ENERGY PREDICTED BY IDOCK:   -5.54 KCAL/MOL
REMARK 922        TOTAL FREE ENERGY PREDICTED BY IDOCK:   -6.45 KCAL/MOL
REMARK 923 INTER-LIGAND FREE ENERGY PREDICTED BY IDOCK:   -6.19 KCAL/MOL
REMARK 924 INTRA-LIGAND FREE ENERGY PREDICTED BY IDOCK:   -0.26 KCAL/MOL
REMARK 927      BINDING AFFINITY PREDICTED BY RF-SCORE:    0.00 PKD
ROOT
HETATM    1  N   UNL     1      -7.059  15.528  66.833  1.00  0.00    -0.256 NA 
HETATM    2  H1  UNL     1      -7.189  14.516  66.830  1.00  0.00     0.000 HD 
HETATM    3  H2  UNL     1      -6.734  15.882  67.733  1.00  0.00     0.000 HD 
HETATM    4  CA  UNL     1      -8.355  16.159  66.388  1.00  0.00    -0.322 C  
HETATM    5  OXT UNL     1      -8.972  18.492  65.985  1.00  0.00    -0.491 OA 
HETATM    6  C   UNL     1      -8.158  17.680  66.393  1.00  0.00    -0.267 C  
HETATM    7  O   UNL     1      -6.941  18.023  66.895  1.00  0.00    -0.179 OA 
ENDROOT
BRANCH   4   8
HETATM    8  C   UNL     1      -9.608  15.823  67.242  1.00  0.00    -0.217 C  
HETATM    9  O   UNL     1      -9.224  15.219  68.482  1.00  0.00    -0.186 OA 
HETATM   10  H   UNL     1      -9.990  15.014  69.005  1.00  0.00     0.000 HD 
BRANCH   8  11
HETATM   11  C   UNL     1     -10.552  14.877  66.515  1.00  0.00    -0.306 A  
HETATM   12  C   UNL     1     -10.984  15.150  65.202  1.00  0.00    -0.428 A  
HETATM   13  C   UNL     1     -11.894  14.306  64.579  1.00  0.00    -0.442 A  
HETATM   14  C   UNL     1     -12.374  13.182  65.241  1.00  0.00    -0.481 A  
HETATM   15  O   UNL     1     -12.356  14.551  63.316  1.00  0.00    -1.033 OA 
HETATM   16  H   UNL     1     -12.979  13.974  62.890  1.00  0.00     0.000 HD 
HETATM   17  O   UNL     1     -13.277  12.364  64.627  1.00  0.00    -0.822 OA 
HETATM   18  C   UNL     1     -11.949  12.881  66.526  1.00  0.00    -0.447 A  
HETATM   19  C   UNL     1     -11.041  13.731  67.166  1.00  0.00    -0.315 A  
HETATM   20  H   UNL     1     -13.605  11.595  65.079  1.00  0.00     0.000 HD 
ENDBRANCH   8  11
ENDBRANCH   4   8
TORSDOF 2
ENDMDL
MODEL       45
REMARK 921   NORMALIZED FREE ENERGY PREDICTED BY IDOCK:   -5.53 KCAL/MOL
REMARK 922        TOTAL FREE ENERGY PREDICTED BY IDOCK:   -6.44 KCAL/MOL
REMARK 923 INTER-LIGAND FREE ENERGY PREDICTED BY IDOCK:   -6.20 KCAL/MOL
REMARK 924 INTRA-LIGAND FREE ENERGY PREDICTED BY IDOCK:   -0.24 KCAL/MOL
REMARK 927      BINDING AFFINITY PREDICTED BY RF-SCORE:    0.00 PKD
ROOT
HETATM    1  N   UNL     1     -10.001   9.221  66.986  1.00  0.00    -0.206 NA 
HETATM    2  H1  UNL     1      -9.771   8.331  67.428  1.00  0.00     0.000 HD 
HETATM    3  H2  UNL     1      -9.174   9.742  66.692  1.00  0.00     0.000 HD 
HETATM    4  CA  UNL     1     -10.874   9.997  67.940  1.00  0.00    -0.271 C  
HETATM    5  OXT UNL     1     -11.995  12.161  67.725  1.00  0.00    -0.506 OA 
HETATM    6  C   UNL     1     -11.219  11.335  67.275  1.00  0.00    -0.296 C  
HETATM    7  O   UNL     1     -10.562  11.487  66.093  1.00  0.00    -0.250 OA 
ENDROOT
BRANCH   4   8
HETATM    8  C   UNL     1     -10.267  10.287  69.340  1.00  0.00    -0.235 C  
HETATM    9  O   UNL     1      -9.045   9.562  69.519  1.00  0.00    -0.160 OA 
HETATM   10  H   UNL     1      -8.673   9.740  70.374  1.00  0.00     0.000 HD 
BRANCH   8  11
HETATM   11  C   UNL     1     -11.222   9.908  70.462  1.00  0.00    -0.399 A  
HETATM   12  C   UNL     1     -11.173   8.631  71.056  1.00  0.00    -0.321 A  
HETATM   13  C   UNL     1     -12.094   8.284  72.036  1.00  0.00    -0.348 A  
HETATM   14  C   UNL     1     -13.060   9.196  72.445  1.00  0.00    -0.423 A  
HETATM   15  O   UNL     1     -12.096   7.046  72.618  1.00  0.00    -0.498 OA 
HETATM   16  H   UNL     1     -12.725   6.809  73.288  1.00  0.00     0.000 HD 
HETATM   17  O   UNL     1     -13.969   8.844  73.400  1.00  0.00    -1.236 OA 
HETATM   18  C   UNL     1     -13.116  10.466  71.890  1.00  0.00    -0.563 A  
HETATM   19  C   UNL     1     -12.199  10.821  70.895  1.00  0.00    -0.487 A  
HETATM   20  H   UNL     1     -14.629   9.467  73.680  1.00  0.00     0.000 HD 
ENDBRANCH   8  11
ENDBRANCH   4   8
TORSDOF 2
ENDMDL
MODEL       46
REMARK 921   NORMALIZED FREE ENERGY PREDICTED BY IDOCK:   -5.52 KCAL/MOL
REMARK 922        TOTAL FREE ENERGY PREDICTED BY IDOCK:   -6.44 KCAL/MOL
REMARK 923 INTER-LIGAND FREE ENERGY PREDICTED BY IDOCK:   -6.17 KCAL/MOL
REMARK 924 INTRA-LIGAND FREE ENERGY PREDICTED BY IDOCK:   -0.27 KCAL/MOL
REMARK 927      BINDING AFFINITY PREDICTED BY RF-SCORE:    0.00 PKD
ROOT
HETATM    1  N   UNL     1     -10.657  18.832  66.274  1.00  0.00    -0.412 NA 
HETATM    2  H1  UNL     1     -11.657  18.657  66.371  1.00  0.00     0.000 HD 
HETATM    3  H2  UNL     1     -10.432  19.408  65.463  1.00  0.00     0.000 HD 
HETATM    4  CA  UNL     1      -9.957  17.496  66.257  1.00  0.00    -0.308 C  
HETATM    5  OXT UNL     1      -7.584  16.905  66.168  1.00  0.00    -0.297 OA 
HETATM    6  C   UNL     1      -8.453  17.759  66.111  1.00  0.00    -0.123 C  
HETATM    7  O   UNL     1      -8.195  19.082  65.928  1.00  0.00    -0.465 OA 
ENDROOT
BRANCH   4   8
HETATM    8  C   UNL     1     -10.393  16.510  65.138  1.00  0.00    -0.020 C  
HETATM    9  O   UNL     1     -11.477  17.058  64.379  1.00  0.00    -1.048 OA 
HETATM   10  H   UNL     1     -11.743  16.456  63.695  1.00  0.00     0.000 HD 
BRANCH   8  11
HETATM   11  C   UNL     1     -10.830  15.168  65.704  1.00  0.00    -0.367 A  
HETATM   12  C   UNL     1     -11.742  14.349  65.010  1.00  0.00    -0.389 A  
HETATM   13  C   UNL     1     -12.175  13.156  65.573  1.00  0.00    -0.461 A  
HETATM   14  C   UNL     1     -11.702  12.755  66.818  1.00  0.00    -0.392 A  
HETATM   15  O   UNL     1     -13.080  12.347  64.943  1.00  0.00    -0.765 OA 
HETATM   16  H   UNL     1     -13.376  11.531  65.328  1.00  0.00     0.000 HD 
HETATM   17  O   UNL     1     -12.141  11.588  67.370  1.00  0.00    -0.593 OA 
HETATM   18  C   UNL     1     -10.788  13.534  67.512  1.00  0.00    -0.276 A  
HETATM   19  C   UNL     1     -10.355  14.743  66.958  1.00  0.00    -0.255 A  
HETATM   20  H   UNL     1     -11.817  11.314  68.221  1.00  0.00     0.000 HD 
ENDBRANCH   8  11
ENDBRANCH   4   8
TORSDOF 2
ENDMDL
MODEL       47
REMARK 921   NORMALIZED FREE ENERGY PREDICTED BY IDOCK:   -5.52 KCAL/MOL
REMARK 922        TOTAL FREE ENERGY PREDICTED BY IDOCK:   -6.43 KCAL/MOL
REMARK 923 INTER-LIGAND FREE ENERGY PREDICTED BY IDOCK:   -6.18 KCAL/MOL
REMARK 924 INTRA-LIGAND FREE ENERGY PREDICTED BY IDOCK:   -0.25 KCAL/MOL
REMARK 927      BINDING AFFINITY PREDICTED BY RF-SCORE:    0.00 PKD
ROOT
HETATM    1  N   UNL     1     -11.351  11.456  63.098  1.00  0.00    -0.864 NA 
HETATM    2  H1  UNL     1     -12.025  12.092  62.670  1.00  0.00     0.000 HD 
HETATM    3  H2  UNL     1     -11.731  10.523  63.255  1.00  0.00     0.000 HD 
HETATM    4  CA  UNL     1     -10.846  12.105  64.363  1.00  0.00    -0.328 C  
HETATM    5  OXT UNL     1      -9.153  11.403  65.984  1.00  0.00    -0.205 OA 
HETATM    6  C   UNL     1      -9.833  11.148  65.005  1.00  0.00    -0.266 C  
HETATM    7  O   UNL     1      -9.766   9.969  64.330  1.00  0.00    -0.305 OA 
ENDROOT
BRANCH   4   8
HETATM    8  C   UNL     1     -11.923  12.463  65.424  1.00  0.00    -0.398 C  
HETATM    9  O   UNL     1     -13.203  12.629  64.805  1.00  0.00    -0.846 OA 
HETATM   10  H   UNL     1     -13.862  12.848  65.453  1.00  0.00     0.000 HD 
BRANCH   8  11
HETATM   11  C   UNL     1     -11.578  13.742  66.171  1.00  0.00    -0.369 A  
HETATM   12  C   UNL     1     -10.986  14.835  65.505  1.00  0.00    -0.350 A  
HETATM   13  C   UNL     1     -10.623  15.970  66.218  1.00  0.00    -0.285 A  
HETATM   14  C   UNL     1     -10.851  16.041  67.588  1.00  0.00    -0.311 A  
HETATM   15  O   UNL     1     -10.023  17.039  65.614  1.00  0.00    -0.554 OA 
HETATM   16  H   UNL     1      -9.775  17.816  66.101  1.00  0.00     0.000 HD 
HETATM   17  O   UNL     1     -10.481  17.154  68.284  1.00  0.00    -0.333 OA 
HETATM   18  C   UNL     1     -11.450  14.987  68.262  1.00  0.00    -0.349 A  
HETATM   19  C   UNL     1     -11.810  13.835  67.555  1.00  0.00    -0.422 A  
HETATM   20  H   UNL     1     -10.637  17.203  69.219  1.00  0.00     0.000 HD 
ENDBRANCH   8  11
ENDBRANCH   4   8
TORSDOF 2
ENDMDL
MODEL       48
REMARK 921   NORMALIZED FREE ENERGY PREDICTED BY IDOCK:   -5.51 KCAL/MOL
REMARK 922        TOTAL FREE ENERGY PREDICTED BY IDOCK:   -6.43 KCAL/MOL
REMARK 923 INTER-LIGAND FREE ENERGY PREDICTED BY IDOCK:   -6.15 KCAL/MOL
REMARK 924 INTRA-LIGAND FREE ENERGY PREDICTED BY IDOCK:   -0.27 KCAL/MOL
REMARK 927      BINDING AFFINITY PREDICTED BY RF-SCORE:    0.00 PKD
ROOT
HETATM    1  N   UNL     1     -11.623  11.575  63.413  1.00  0.00    -0.807 NA 
HETATM    2  H1  UNL     1     -11.167  10.682  63.600  1.00  0.00     0.000 HD 
HETATM    3  H2  UNL     1     -11.076  12.177  62.798  1.00  0.00     0.000 HD 
HETATM    4  CA  UNL     1     -11.932  12.220  64.742  1.00  0.00    -0.362 C  
HETATM    5  OXT UNL     1     -13.096  14.296  65.309  1.00  0.00    -0.707 OA 
HETATM    6  C   UNL     1     -12.617  13.563  64.460  1.00  0.00    -0.206 C  
HETATM    7  O   UNL     1     -12.646  13.837  63.128  1.00  0.00    -0.793 OA 
ENDROOT
BRANCH   4   8
HETATM    8  C   UNL     1     -10.717  12.474  65.676  1.00  0.00    -0.266 C  
HETATM    9  O   UNL     1      -9.536  11.867  65.143  1.00  0.00    -0.357 OA 
HETATM   10  H   UNL     1      -8.793  12.023  65.714  1.00  0.00     0.000 HD 
BRANCH   8  11
HETATM   11  C   UNL     1     -10.954  11.926  67.075  1.00  0.00    -0.326 A  
HETATM   12  C   UNL     1     -10.739  10.564  67.367  1.00  0.00    -0.334 A  
HETATM   13  C   UNL     1     -11.020  10.071  68.634  1.00  0.00    -0.204 A  
HETATM   14  C   UNL     1     -11.503  10.918  69.625  1.00  0.00    -0.305 A  
HETATM   15  O   UNL     1     -10.849   8.751  68.949  1.00  0.00    -0.405 OA 
HETATM   16  H   UNL     1     -11.042   8.414  69.815  1.00  0.00     0.000 HD 
HETATM   17  O   UNL     1     -11.788  10.424  70.865  1.00  0.00    -0.331 OA 
HETATM   18  C   UNL     1     -11.704  12.266  69.369  1.00  0.00    -0.392 A  
HETATM   19  C   UNL     1     -11.434  12.770  68.092  1.00  0.00    -0.357 A  
HETATM   20  H   UNL     1     -12.117  11.003  71.542  1.00  0.00     0.000 HD 
ENDBRANCH   8  11
ENDBRANCH   4   8
TORSDOF 2
ENDMDL
MODEL       49
REMARK 921   NORMALIZED FREE ENERGY PREDICTED BY IDOCK:   -5.47 KCAL/MOL
REMARK 922        TOTAL FREE ENERGY PREDICTED BY IDOCK:   -6.38 KCAL/MOL
REMARK 923 INTER-LIGAND FREE ENERGY PREDICTED BY IDOCK:   -6.12 KCAL/MOL
REMARK 924 INTRA-LIGAND FREE ENERGY PREDICTED BY IDOCK:   -0.26 KCAL/MOL
REMARK 927      BINDING AFFINITY PREDICTED BY RF-SCORE:    0.00 PKD
ROOT
HETATM    1  N   UNL     1     -10.147  15.317  70.201  1.00  0.00    -0.500 NA 
HETATM    2  H1  UNL     1      -9.541  15.115  69.406  1.00  0.00     0.000 HD 
HETATM    3  H2  UNL     1      -9.930  14.748  71.019  1.00  0.00     0.000 HD 
HETATM    4  CA  UNL     1     -11.576  15.159  69.741  1.00  0.00    -0.311 C  
HETATM    5  OXT UNL     1     -13.704  15.530  70.890  1.00  0.00    -0.524 OA 
HETATM    6  C   UNL     1     -12.487  15.461  70.936  1.00  0.00    -0.418 C  
HETATM    7  O   UNL     1     -11.767  15.667  72.072  1.00  0.00    -0.382 OA 
ENDROOT
BRANCH   4   8
HETATM    8  C   UNL     1     -11.960  13.766  69.171  1.00  0.00    -0.361 C  
HETATM    9  O   UNL     1     -11.424  12.721  69.991  1.00  0.00    -0.508 OA 
HETATM   10  H   UNL     1     -11.659  11.869  69.643  1.00  0.00     0.000 HD 
BRANCH   8  11
HETATM   11  C   UNL     1     -11.449  13.575  67.750  1.00  0.00    -0.349 A  
HETATM   12  C   UNL     1     -10.279  12.834  67.493  1.00  0.00    -0.216 A  
HETATM   13  C   UNL     1      -9.796  12.723  66.196  1.00  0.00    -0.267 A  
HETATM   14  C   UNL     1     -10.471  13.331  65.142  1.00  0.00    -0.333 A  
HETATM   15  O   UNL     1      -8.650  12.035  65.909  1.00  0.00    -0.392 OA 
HETATM   16  H   UNL     1      -8.320  11.960  65.022  1.00  0.00     0.000 HD 
HETATM   17  O   UNL     1      -9.984  13.228  63.872  1.00  0.00    -0.753 OA 
HETATM   18  C   UNL     1     -11.636  14.048  65.367  1.00  0.00    -0.329 A  
HETATM   19  C   UNL     1     -12.124  14.174  66.672  1.00  0.00    -0.480 A  
HETATM   20  H   UNL     1     -10.445  13.643  63.152  1.00  0.00     0.000 HD 
ENDBRANCH   8  11
ENDBRANCH   4   8
TORSDOF 2
ENDMDL
MODEL       50
REMARK 921   NORMALIZED FREE ENERGY PREDICTED BY IDOCK:   -5.46 KCAL/MOL
REMARK 922        TOTAL FREE ENERGY PREDICTED BY IDOCK:   -6.36 KCAL/MOL
REMARK 923 INTER-LIGAND FREE ENERGY PREDICTED BY IDOCK:   -6.09 KCAL/MOL
REMARK 924 INTRA-LIGAND FREE ENERGY PREDICTED BY IDOCK:   -0.27 KCAL/MOL
REMARK 927      BINDING AFFINITY PREDICTED BY RF-SCORE:    0.00 PKD
ROOT
HETATM    1  N   UNL     1     -10.691   8.857  72.057  1.00  0.00    -0.344 NA 
HETATM    2  H1  UNL     1      -9.984   9.573  72.227  1.00  0.00     0.000 HD 
HETATM    3  H2  UNL     1     -10.409   8.182  71.346  1.00  0.00     0.000 HD 
HETATM    4  CA  UNL     1     -11.983   9.559  71.719  1.00  0.00    -0.371 C  
HETATM    5  OXT UNL     1     -14.230   8.701  71.270  1.00  0.00    -0.336 OA 
HETATM    6  C   UNL     1     -13.046   8.483  71.464  1.00  0.00    -0.299 C  
HETATM    7  O   UNL     1     -12.508   7.234  71.500  1.00  0.00    -0.336 OA 
ENDROOT
BRANCH   4   8
HETATM    8  C   UNL     1     -11.943  10.511  70.492  1.00  0.00    -0.342 C  
HETATM    9  O   UNL     1     -10.610  10.619  69.982  1.00  0.00    -0.429 OA 
HETATM   10  H   UNL     1     -10.585  11.200  69.231  1.00  0.00     0.000 HD 
BRANCH   8  11
HETATM   11  C   UNL     1     -12.443  11.905  70.839  1.00  0.00    -0.397 A  
HETATM   12  C   UNL     1     -12.158  13.006  70.007  1.00  0.00    -0.367 A  
HETATM   13  C   UNL     1     -12.570  14.281  70.374  1.00  0.00    -0.343 A  
HETATM   14  C   UNL     1     -13.277  14.476  71.556  1.00  0.00    -0.358 A  
HETATM   15  O   UNL     1     -12.291  15.377  69.608  1.00  0.00    -0.521 OA 
HETATM   16  H   UNL     1     -12.572  16.249  69.858  1.00  0.00     0.000 HD 
HETATM   17  O   UNL     1     -13.668  15.732  71.916  1.00  0.00    -0.444 OA 
HETATM   18  C   UNL     1     -13.587  13.405  72.381  1.00  0.00    -0.708 A  
HETATM   19  C   UNL     1     -13.166  12.120  72.026  1.00  0.00    -0.496 A  
HETATM   20  H   UNL     1     -14.151  15.866  72.723  1.00  0.00     0.000 HD 
ENDBRANCH   8  11
ENDBRANCH   4   8
TORSDOF 2
ENDMDL
MODEL       51
REMARK 921   NORMALIZED FREE ENERGY PREDICTED BY IDOCK:   -5.44 KCAL/MOL
REMARK 922        TOTAL FREE ENERGY PREDICTED BY IDOCK:   -6.35 KCAL/MOL
REMARK 923 INTER-LIGAND FREE ENERGY PREDICTED BY IDOCK:   -6.09 KCAL/MOL
REMARK 924 INTRA-LIGAND FREE ENERGY PREDICTED BY IDOCK:   -0.26 KCAL/MOL
REMARK 927      BINDING AFFINITY PREDICTED BY RF-SCORE:    0.00 PKD
ROOT
HETATM    1  N   UNL     1     -10.827  17.142  67.623  1.00  0.00    -0.296 NA 
HETATM    2  H1  UNL     1     -10.632  17.406  66.658  1.00  0.00     0.000 HD 
HETATM    3  H2  UNL     1     -10.064  17.374  68.259  1.00  0.00     0.000 HD 
HETATM    4  CA  UNL     1     -11.174  15.673  67.636  1.00  0.00    -0.274 C  
HETATM    5  OXT UNL     1     -11.882  14.186  69.445  1.00  0.00    -0.288 OA 
HETATM    6  C   UNL     1     -11.466  15.276  69.088  1.00  0.00    -0.316 C  
HETATM    7  O   UNL     1     -11.224  16.305  69.944  1.00  0.00    -0.340 OA 
ENDROOT
BRANCH   4   8
HETATM    8  C   UNL     1     -10.092  14.711  67.072  1.00  0.00    -0.249 C  
HETATM    9  O   UNL     1      -8.980  15.450  66.557  1.00  0.00    -0.264 OA 
HETATM   10  H   UNL     1      -8.318  14.862  66.213  1.00  0.00     0.000 HD 
BRANCH   8  11
HETATM   11  C   UNL     1     -10.643  13.830  65.961  1.00  0.00    -0.290 A  
HETATM   12  C   UNL     1     -11.368  14.383  64.887  1.00  0.00    -0.380 A  
HETATM   13  C   UNL     1     -11.914  13.554  63.915  1.00  0.00    -0.440 A  
HETATM   14  C   UNL     1     -11.739  12.177  63.989  1.00  0.00    -0.430 A  
HETATM   15  O   UNL     1     -12.646  14.051  62.873  1.00  0.00    -0.958 OA 
HETATM   16  H   UNL     1     -13.020  13.484  62.209  1.00  0.00     0.000 HD 
HETATM   17  O   UNL     1     -12.288  11.368  63.038  1.00  0.00    -0.952 OA 
HETATM   18  C   UNL     1     -11.012  11.610  65.025  1.00  0.00    -0.334 A  
HETATM   19  C   UNL     1     -10.467  12.435  66.014  1.00  0.00    -0.281 A  
HETATM   20  H   UNL     1     -12.168  10.427  63.088  1.00  0.00     0.000 HD 
ENDBRANCH   8  11
ENDBRANCH   4   8
TORSDOF 2
ENDMDL
MODEL       52
REMARK 921   NORMALIZED FREE ENERGY PREDICTED BY IDOCK:   -5.43 KCAL/MOL
REMARK 922        TOTAL FREE ENERGY PREDICTED BY IDOCK:   -6.33 KCAL/MOL
REMARK 923 INTER-LIGAND FREE ENERGY PREDICTED BY IDOCK:   -6.23 KCAL/MOL
REMARK 924 INTRA-LIGAND FREE ENERGY PREDICTED BY IDOCK:   -0.10 KCAL/MOL
REMARK 927      BINDING AFFINITY PREDICTED BY RF-SCORE:    0.00 PKD
ROOT
HETATM    1  N   UNL     1      -9.356  13.055  68.903  1.00  0.00    -0.378 NA 
HETATM    2  H1  UNL     1      -8.455  12.619  68.708  1.00  0.00     0.000 HD 
HETATM    3  H2  UNL     1     -10.101  12.712  68.296  1.00  0.00     0.000 HD 
HETATM    4  CA  UNL     1      -9.172  14.550  68.818  1.00  0.00    -0.162 C  
HETATM    5  OXT UNL     1     -10.716  16.403  69.228  1.00  0.00    -0.282 OA 
HETATM    6  C   UNL     1     -10.528  15.204  69.110  1.00  0.00    -0.252 C  
HETATM    7  O   UNL     1     -11.511  14.273  69.246  1.00  0.00    -0.256 OA 
ENDROOT
BRANCH   4   8
HETATM    8  C   UNL     1      -8.646  15.097  67.463  1.00  0.00    -0.180 C  
HETATM    9  O   UNL     1      -8.472  16.517  67.527  1.00  0.00    -0.173 OA 
HETATM   10  H   UNL     1      -8.150  16.852  66.699  1.00  0.00     0.000 HD 
BRANCH   8  11
HETATM   11  C   UNL     1      -9.593  14.778  66.316  1.00  0.00    -0.339 A  
HETATM   12  C   UNL     1     -10.257  15.804  65.616  1.00  0.00    -0.407 A  
HETATM   13  C   UNL     1     -11.165  15.487  64.613  1.00  0.00    -0.371 A  
HETATM   14  C   UNL     1     -11.413  14.159  64.286  1.00  0.00    -0.272 A  
HETATM   15  O   UNL     1     -11.849  16.453  63.929  1.00  0.00    -1.404 OA 
HETATM   16  H   UNL     1     -12.469  16.237  63.243  1.00  0.00     0.000 HD 
HETATM   17  O   UNL     1     -12.314  13.856  63.308  1.00  0.00    -1.115 OA 
HETATM   18  C   UNL     1     -10.756  13.132  64.947  1.00  0.00    -0.362 A  
HETATM   19  C   UNL     1      -9.849  13.440  65.965  1.00  0.00    -0.273 A  
HETATM   20  H   UNL     1     -12.484  12.948  63.084  1.00  0.00     0.000 HD 
ENDBRANCH   8  11
ENDBRANCH   4   8
TORSDOF 2
ENDMDL
MODEL       53
REMARK 921   NORMALIZED FREE ENERGY PREDICTED BY IDOCK:   -5.40 KCAL/MOL
REMARK 922        TOTAL FREE ENERGY PREDICTED BY IDOCK:   -6.30 KCAL/MOL
REMARK 923 INTER-LIGAND FREE ENERGY PREDICTED BY IDOCK:   -6.18 KCAL/MOL
REMARK 924 INTRA-LIGAND FREE ENERGY PREDICTED BY IDOCK:   -0.12 KCAL/MOL
REMARK 927      BINDING AFFINITY PREDICTED BY RF-SCORE:    0.00 PKD
ROOT
HETATM    1  N   UNL     1      -7.687  13.548  67.323  1.00  0.00    -0.333 NA 
HETATM    2  H1  UNL     1      -7.548  14.526  67.576  1.00  0.00     0.000 HD 
HETATM    3  H2  UNL     1      -7.928  13.423  66.339  1.00  0.00     0.000 HD 
HETATM    4  CA  UNL     1      -8.724  12.975  68.258  1.00  0.00    -0.173 C  
HETATM    5  OXT UNL     1      -9.625  10.712  68.495  1.00  0.00    -0.161 OA 
HETATM    6  C   UNL     1      -8.933  11.504  67.877  1.00  0.00    -0.159 C  
HETATM    7  O   UNL     1      -8.229  11.174  66.761  1.00  0.00    -0.142 OA 
ENDROOT
BRANCH   4   8
HETATM    8  C   UNL     1     -10.107  13.683  68.260  1.00  0.00    -0.240 C  
HETATM    9  O   UNL     1     -11.023  12.994  69.118  1.00  0.00    -0.359 OA 
HETATM   10  H   UNL     1     -11.868  13.427  69.120  1.00  0.00     0.000 HD 
BRANCH   8  11
HETATM   11  C   UNL     1     -10.710  13.753  66.865  1.00  0.00    -0.280 A  
HETATM   12  C   UNL     1     -10.593  14.918  66.082  1.00  0.00    -0.322 A  
HETATM   13  C   UNL     1     -11.203  14.983  64.836  1.00  0.00    -0.416 A  
HETATM   14  C   UNL     1     -11.921  13.896  64.349  1.00  0.00    -0.450 A  
HETATM   15  O   UNL     1     -11.135  16.105  64.057  1.00  0.00    -1.137 OA 
HETATM   16  H   UNL     1     -11.553  16.149  63.206  1.00  0.00     0.000 HD 
HETATM   17  O   UNL     1     -12.528  13.971  63.130  1.00  0.00    -1.137 OA 
HETATM   18  C   UNL     1     -12.033  12.731  65.093  1.00  0.00    -0.466 A  
HETATM   19  C   UNL     1     -11.431  12.660  66.353  1.00  0.00    -0.409 A  
HETATM   20  H   UNL     1     -13.018  13.229  62.797  1.00  0.00     0.000 HD 
ENDBRANCH   8  11
ENDBRANCH   4   8
TORSDOF 2
ENDMDL
MODEL       54
REMARK 921   NORMALIZED FREE ENERGY PREDICTED BY IDOCK:   -5.39 KCAL/MOL
REMARK 922        TOTAL FREE ENERGY PREDICTED BY IDOCK:   -6.29 KCAL/MOL
REMARK 923 INTER-LIGAND FREE ENERGY PREDICTED BY IDOCK:   -6.05 KCAL/MOL
REMARK 924 INTRA-LIGAND FREE ENERGY PREDICTED BY IDOCK:   -0.24 KCAL/MOL
REMARK 927      BINDING AFFINITY PREDICTED BY RF-SCORE:    0.00 PKD
ROOT
HETATM    1  N   UNL     1     -12.632  14.392  63.688  1.00  0.00    -0.997 NA 
HETATM    2  H1  UNL     1     -12.517  15.355  64.006  1.00  0.00     0.000 HD 
HETATM    3  H2  UNL     1     -13.543  14.002  63.931  1.00  0.00     0.000 HD 
HETATM    4  CA  UNL     1     -11.483  13.586  64.241  1.00  0.00    -0.383 C  
HETATM    5  OXT UNL     1     -10.849  11.241  63.939  1.00  0.00    -0.375 OA 
HETATM    6  C   UNL     1     -11.657  12.139  63.764  1.00  0.00    -0.470 C  
HETATM    7  O   UNL     1     -12.829  11.973  63.093  1.00  0.00    -0.661 OA 
ENDROOT
BRANCH   4   8
HETATM    8  C   UNL     1     -11.334  13.578  65.787  1.00  0.00    -0.305 C  
HETATM    9  O   UNL     1     -12.449  14.231  66.403  1.00  0.00    -0.489 OA 
HETATM   10  H   UNL     1     -12.359  14.227  67.348  1.00  0.00     0.000 HD 
BRANCH   8  11
HETATM   11  C   UNL     1     -10.058  14.274  66.236  1.00  0.00    -0.308 A  
HETATM   12  C   UNL     1      -9.772  15.595  65.838  1.00  0.00    -0.388 A  
HETATM   13  C   UNL     1      -8.573  16.190  66.209  1.00  0.00    -0.338 A  
HETATM   14  C   UNL     1      -7.654  15.492  66.984  1.00  0.00    -0.193 A  
HETATM   15  O   UNL     1      -8.248  17.459  65.820  1.00  0.00    -0.540 OA 
HETATM   16  H   UNL     1      -7.428  17.866  66.073  1.00  0.00     0.000 HD 
HETATM   17  O   UNL     1      -6.474  16.078  67.335  1.00  0.00    -0.158 OA 
HETATM   18  C   UNL     1      -7.921  14.198  67.406  1.00  0.00    -0.201 A  
HETATM   19  C   UNL     1      -9.121  13.586  67.029  1.00  0.00    -0.248 A  
HETATM   20  H   UNL     1      -5.846  15.601  67.865  1.00  0.00     0.000 HD 
ENDBRANCH   8  11
ENDBRANCH   4   8
TORSDOF 2
ENDMDL
MODEL       55
REMARK 921   NORMALIZED FREE ENERGY PREDICTED BY IDOCK:   -5.39 KCAL/MOL
REMARK 922        TOTAL FREE ENERGY PREDICTED BY IDOCK:   -6.29 KCAL/MOL
REMARK 923 INTER-LIGAND FREE ENERGY PREDICTED BY IDOCK:   -6.07 KCAL/MOL
REMARK 924 INTRA-LIGAND FREE ENERGY PREDICTED BY IDOCK:   -0.22 KCAL/MOL
REMARK 927      BINDING AFFINITY PREDICTED BY RF-SCORE:    0.00 PKD
ROOT
HETATM    1  N   UNL     1      -9.721  14.110  65.707  1.00  0.00    -0.498 NA 
HETATM    2  H1  UNL     1      -9.376  13.274  66.180  1.00  0.00     0.000 HD 
HETATM    3  H2  UNL     1      -9.701  14.938  66.303  1.00  0.00     0.000 HD 
HETATM    4  CA  UNL     1     -11.100  13.801  65.178  1.00  0.00    -0.328 C  
HETATM    5  OXT UNL     1     -12.659  15.125  63.834  1.00  0.00    -0.794 OA 
HETATM    6  C   UNL     1     -11.619  15.058  64.469  1.00  0.00    -0.343 C  
HETATM    7  O   UNL     1     -10.759  16.103  64.614  1.00  0.00    -0.637 OA 
ENDROOT
BRANCH   4   8
HETATM    8  C   UNL     1     -12.154  13.362  66.232  1.00  0.00    -0.422 C  
HETATM    9  O   UNL     1     -12.499  14.459  67.085  1.00  0.00    -0.590 OA 
HETATM   10  H   UNL     1     -13.144  14.191  67.729  1.00  0.00     0.000 HD 
BRANCH   8  11
HETATM   11  C   UNL     1     -11.647  12.218  67.097  1.00  0.00    -0.423 A  
HETATM   12  C   UNL     1     -11.812  12.238  68.496  1.00  0.00    -0.359 A  
HETATM   13  C   UNL     1     -11.288  11.213  69.273  1.00  0.00    -0.281 A  
HETATM   14  C   UNL     1     -10.610  10.156  68.675  1.00  0.00    -0.210 A  
HETATM   15  O   UNL     1     -11.404  11.209  70.635  1.00  0.00    -0.417 OA 
HETATM   16  H   UNL     1     -11.046  10.508  71.166  1.00  0.00     0.000 HD 
HETATM   17  O   UNL     1     -10.087   9.159  69.446  1.00  0.00    -0.185 OA 
HETATM   18  C   UNL     1     -10.452  10.104  67.298  1.00  0.00    -0.313 A  
HETATM   19  C   UNL     1     -10.967  11.137  66.508  1.00  0.00    -0.270 A  
HETATM   20  H   UNL     1      -9.624   8.437  69.037  1.00  0.00     0.000 HD 
ENDBRANCH   8  11
ENDBRANCH   4   8
TORSDOF 2
ENDMDL
MODEL       56
REMARK 921   NORMALIZED FREE ENERGY PREDICTED BY IDOCK:   -5.38 KCAL/MOL
REMARK 922        TOTAL FREE ENERGY PREDICTED BY IDOCK:   -6.27 KCAL/MOL
REMARK 923 INTER-LIGAND FREE ENERGY PREDICTED BY IDOCK:   -5.93 KCAL/MOL
REMARK 924 INTRA-LIGAND FREE ENERGY PREDICTED BY IDOCK:   -0.34 KCAL/MOL
REMARK 927      BINDING AFFINITY PREDICTED BY RF-SCORE:    0.00 PKD
ROOT
HETATM    1  N   UNL     1     -12.297  12.730  70.869  1.00  0.00    -0.399 NA 
HETATM    2  H1  UNL     1     -11.584  12.590  70.154  1.00  0.00     0.000 HD 
HETATM    3  H2  UNL     1     -13.244  12.583  70.519  1.00  0.00     0.000 HD 
HETATM    4  CA  UNL     1     -12.096  14.106  71.454  1.00  0.00    -0.227 C  
HETATM    5  OXT UNL     1     -13.234  15.280  73.275  1.00  0.00    -0.478 OA 
HETATM    6  C   UNL     1     -13.170  14.317  72.529  1.00  0.00    -0.490 C  
HETATM    7  O   UNL     1     -14.046  13.277  72.569  1.00  0.00    -0.709 OA 
ENDROOT
BRANCH   4   8
HETATM    8  C   UNL     1     -12.166  15.291  70.452  1.00  0.00    -0.363 C  
HETATM    9  O   UNL     1     -13.526  15.662  70.205  1.00  0.00    -0.761 OA 
HETATM   10  H   UNL     1     -13.569  16.387  69.593  1.00  0.00     0.000 HD 
BRANCH   8  11
HETATM   11  C   UNL     1     -11.509  14.949  69.123  1.00  0.00    -0.324 A  
HETATM   12  C   UNL     1     -12.274  14.488  68.033  1.00  0.00    -0.127 A  
HETATM   13  C   UNL     1     -11.647  14.123  66.849  1.00  0.00    -0.391 A  
HETATM   14  C   UNL     1     -10.266  14.221  66.727  1.00  0.00    -0.272 A  
HETATM   15  O   UNL     1     -12.351  13.647  65.778  1.00  0.00    -0.433 OA 
HETATM   16  H   UNL     1     -11.923  13.396  64.968  1.00  0.00     0.000 HD 
HETATM   17  O   UNL     1      -9.656  13.848  65.565  1.00  0.00    -0.517 OA 
HETATM   18  C   UNL     1      -9.493  14.690  67.779  1.00  0.00    -0.205 A  
HETATM   19  C   UNL     1     -10.114  15.050  68.980  1.00  0.00    -0.241 A  
HETATM   20  H   UNL     1      -8.712  13.915  65.482  1.00  0.00     0.000 HD 
ENDBRANCH   8  11
ENDBRANCH   4   8
TORSDOF 2
ENDMDL
MODEL       57
REMARK 921   NORMALIZED FREE ENERGY PREDICTED BY IDOCK:   -5.38 KCAL/MOL
REMARK 922        TOTAL FREE ENERGY PREDICTED BY IDOCK:   -6.27 KCAL/MOL
REMARK 923 INTER-LIGAND FREE ENERGY PREDICTED BY IDOCK:   -5.99 KCAL/MOL
REMARK 924 INTRA-LIGAND FREE ENERGY PREDICTED BY IDOCK:   -0.28 KCAL/MOL
REMARK 927      BINDING AFFINITY PREDICTED BY RF-SCORE:    0.00 PKD
ROOT
HETATM    1  N   UNL     1      -9.645  12.781  64.969  1.00  0.00    -0.479 NA 
HETATM    2  H1  UNL     1      -8.923  12.781  65.690  1.00  0.00     0.000 HD 
HETATM    3  H2  UNL     1      -9.611  13.610  64.375  1.00  0.00     0.000 HD 
HETATM    4  CA  UNL     1     -10.978  12.605  65.654  1.00  0.00    -0.280 C  
HETATM    5  OXT UNL     1     -13.246  12.378  64.762  1.00  0.00    -0.784 OA 
HETATM    6  C   UNL     1     -12.063  12.605  64.570  1.00  0.00    -0.417 C  
HETATM    7  O   UNL     1     -11.540  12.873  63.342  1.00  0.00    -0.498 OA 
ENDROOT
BRANCH   4   8
HETATM    8  C   UNL     1     -11.347  13.675  66.718  1.00  0.00    -0.328 C  
HETATM    9  O   UNL     1     -10.266  14.596  66.900  1.00  0.00    -0.257 OA 
HETATM   10  H   UNL     1     -10.492  15.251  67.550  1.00  0.00     0.000 HD 
BRANCH   8  11
HETATM   11  C   UNL     1     -11.678  13.047  68.063  1.00  0.00    -0.397 A  
HETATM   12  C   UNL     1     -11.670  11.648  68.232  1.00  0.00    -0.374 A  
HETATM   13  C   UNL     1     -12.035  11.092  69.451  1.00  0.00    -0.337 A  
HETATM   14  C   UNL     1     -12.399  11.911  70.514  1.00  0.00    -0.284 A  
HETATM   15  O   UNL     1     -12.065   9.739  69.646  1.00  0.00    -0.436 OA 
HETATM   16  H   UNL     1     -12.315   9.359  70.480  1.00  0.00     0.000 HD 
HETATM   17  O   UNL     1     -12.768  11.357  71.705  1.00  0.00    -0.375 OA 
HETATM   18  C   UNL     1     -12.395  13.291  70.379  1.00  0.00    -0.365 A  
HETATM   19  C   UNL     1     -12.040  13.860  69.151  1.00  0.00    -0.377 A  
HETATM   20  H   UNL     1     -13.016  11.917  72.432  1.00  0.00     0.000 HD 
ENDBRANCH   8  11
ENDBRANCH   4   8
TORSDOF 2
ENDMDL
MODEL       58
REMARK 921   NORMALIZED FREE ENERGY PREDICTED BY IDOCK:   -5.35 KCAL/MOL
REMARK 922        TOTAL FREE ENERGY PREDICTED BY IDOCK:   -6.24 KCAL/MOL
REMARK 923 INTER-LIGAND FREE ENERGY PREDICTED BY IDOCK:   -6.19 KCAL/MOL
REMARK 924 INTRA-LIGAND FREE ENERGY PREDICTED BY IDOCK:   -0.05 KCAL/MOL
REMARK 927      BINDING AFFINITY PREDICTED BY RF-SCORE:    0.00 PKD
ROOT
HETATM    1  N   UNL     1      -9.232  11.974  68.599  1.00  0.00    -0.380 NA 
HETATM    2  H1  UNL     1      -8.818  12.629  67.936  1.00  0.00     0.000 HD 
HETATM    3  H2  UNL     1      -8.888  11.021  68.483  1.00  0.00     0.000 HD 
HETATM    4  CA  UNL     1     -10.732  12.076  68.469  1.00  0.00    -0.234 C  
HETATM    5  OXT UNL     1     -12.547  10.991  69.700  1.00  0.00    -0.238 OA 
HETATM    6  C   UNL     1     -11.354  11.091  69.466  1.00  0.00    -0.287 C  
HETATM    7  O   UNL     1     -10.403  10.342  70.086  1.00  0.00    -0.256 OA 
ENDROOT
BRANCH   4   8
HETATM    8  C   UNL     1     -11.317  11.783  67.060  1.00  0.00    -0.321 C  
HETATM    9  O   UNL     1     -10.571  10.748  66.411  1.00  0.00    -0.246 OA 
HETATM   10  H   UNL     1     -10.928  10.568  65.549  1.00  0.00     0.000 HD 
BRANCH   8  11
HETATM   11  C   UNL     1     -11.302  13.019  66.173  1.00  0.00    -0.349 A  
HETATM   12  C   UNL     1     -10.391  14.068  66.405  1.00  0.00    -0.289 A  
HETATM   13  C   UNL     1     -10.435  15.214  65.622  1.00  0.00    -0.359 A  
HETATM   14  C   UNL     1     -11.368  15.328  64.597  1.00  0.00    -0.358 A  
HETATM   15  O   UNL     1      -9.586  16.264  65.832  1.00  0.00    -0.334 OA 
HETATM   16  H   UNL     1      -9.616  17.048  65.297  1.00  0.00     0.000 HD 
HETATM   17  O   UNL     1     -11.414  16.461  63.839  1.00  0.00    -1.569 OA 
HETATM   18  C   UNL     1     -12.262  14.300  64.336  1.00  0.00    -0.471 A  
HETATM   19  C   UNL     1     -12.233  13.147  65.126  1.00  0.00    -0.497 A  
HETATM   20  H   UNL     1     -12.051  16.539  63.139  1.00  0.00     0.000 HD 
ENDBRANCH   8  11
ENDBRANCH   4   8
TORSDOF 2
ENDMDL
MODEL       59
REMARK 921   NORMALIZED FREE ENERGY PREDICTED BY IDOCK:   -5.31 KCAL/MOL
REMARK 922        TOTAL FREE ENERGY PREDICTED BY IDOCK:   -6.20 KCAL/MOL
REMARK 923 INTER-LIGAND FREE ENERGY PREDICTED BY IDOCK:   -5.82 KCAL/MOL
REMARK 924 INTRA-LIGAND FREE ENERGY PREDICTED BY IDOCK:   -0.38 KCAL/MOL
REMARK 927      BINDING AFFINITY PREDICTED BY RF-SCORE:    0.00 PKD
ROOT
HETATM    1  N   UNL     1     -10.892  17.122  68.240  1.00  0.00    -0.357 NA 
HETATM    2  H1  UNL     1     -11.588  16.404  68.037  1.00  0.00     0.000 HD 
HETATM    3  H2  UNL     1     -10.975  17.937  67.631  1.00  0.00     0.000 HD 
HETATM    4  CA  UNL     1      -9.531  16.475  68.170  1.00  0.00    -0.222 C  
HETATM    5  OXT UNL     1      -7.289  17.355  68.605  1.00  0.00    -0.224 OA 
HETATM    6  C   UNL     1      -8.485  17.555  68.474  1.00  0.00    -0.280 C  
HETATM    7  O   UNL     1      -9.060  18.782  68.603  1.00  0.00    -0.333 OA 
ENDROOT
BRANCH   4   8
HETATM    8  C   UNL     1      -9.162  15.802  66.819  1.00  0.00    -0.243 C  
HETATM    9  O   UNL     1      -8.876  16.792  65.825  1.00  0.00    -0.505 OA 
HETATM   10  H   UNL     1      -8.650  16.381  64.999  1.00  0.00     0.000 HD 
BRANCH   8  11
HETATM   11  C   UNL     1     -10.284  14.912  66.305  1.00  0.00    -0.306 A  
HETATM   12  C   UNL     1     -10.562  13.672  66.913  1.00  0.00    -0.271 A  
HETATM   13  C   UNL     1     -11.550  12.847  66.391  1.00  0.00    -0.371 A  
HETATM   14  C   UNL     1     -12.278  13.244  65.275  1.00  0.00    -0.448 A  
HETATM   15  O   UNL     1     -11.832  11.625  66.936  1.00  0.00    -0.577 OA 
HETATM   16  H   UNL     1     -12.507  11.061  66.579  1.00  0.00     0.000 HD 
HETATM   17  O   UNL     1     -13.238  12.424  64.760  1.00  0.00    -0.784 OA 
HETATM   18  C   UNL     1     -12.036  14.469  64.671  1.00  0.00    -0.486 A  
HETATM   19  C   UNL     1     -11.036  15.302  65.183  1.00  0.00    -0.412 A  
HETATM   20  H   UNL     1     -13.735  12.695  63.997  1.00  0.00     0.000 HD 
ENDBRANCH   8  11
ENDBRANCH   4   8
TORSDOF 2
ENDMDL
MODEL       60
REMARK 921   NORMALIZED FREE ENERGY PREDICTED BY IDOCK:   -5.29 KCAL/MOL
REMARK 922        TOTAL FREE ENERGY PREDICTED BY IDOCK:   -6.18 KCAL/MOL
REMARK 923 INTER-LIGAND FREE ENERGY PREDICTED BY IDOCK:   -5.91 KCAL/MOL
REMARK 924 INTRA-LIGAND FREE ENERGY PREDICTED BY IDOCK:   -0.27 KCAL/MOL
REMARK 927      BINDING AFFINITY PREDICTED BY RF-SCORE:    0.00 PKD
ROOT
HETATM    1  N   UNL     1     -14.031  15.390  70.588  1.00  0.00    -0.783 NA 
HETATM    2  H1  UNL     1     -13.901  15.177  69.599  1.00  0.00     0.000 HD 
HETATM    3  H2  UNL     1     -14.234  16.376  70.757  1.00  0.00     0.000 HD 
HETATM    4  CA  UNL     1     -12.808  14.908  71.328  1.00  0.00    -0.348 C  
HETATM    5  OXT UNL     1     -12.254  14.882  73.711  1.00  0.00    -0.473 OA 
HETATM    6  C   UNL     1     -13.005  15.230  72.814  1.00  0.00    -0.438 C  
HETATM    7  O   UNL     1     -14.145  15.943  73.023  1.00  0.00    -0.518 OA 
ENDROOT
BRANCH   4   8
HETATM    8  C   UNL     1     -11.451  15.512  70.871  1.00  0.00    -0.375 C  
HETATM    9  O   UNL     1     -11.378  16.901  71.212  1.00  0.00    -0.397 OA 
HETATM   10  H   UNL     1     -10.549  17.270  70.933  1.00  0.00     0.000 HD 
BRANCH   8  11
HETATM   11  C   UNL     1     -11.246  15.372  69.370  1.00  0.00    -0.300 A  
HETATM   12  C   UNL     1     -10.869  16.477  68.582  1.00  0.00    -0.345 A  
HETATM   13  C   UNL     1     -10.747  16.342  67.205  1.00  0.00    -0.265 A  
HETATM   14  C   UNL     1     -10.982  15.113  66.598  1.00  0.00    -0.318 A  
HETATM   15  O   UNL     1     -10.409  17.397  66.404  1.00  0.00    -0.332 OA 
HETATM   16  H   UNL     1     -10.325  17.304  65.463  1.00  0.00     0.000 HD 
HETATM   17  O   UNL     1     -10.871  14.990  65.244  1.00  0.00    -0.334 OA 
HETATM   18  C   UNL     1     -11.334  14.005  67.354  1.00  0.00    -0.350 A  
HETATM   19  C   UNL     1     -11.471  14.135  68.740  1.00  0.00    -0.333 A  
HETATM   20  H   UNL     1     -11.032  14.151  64.829  1.00  0.00     0.000 HD 
ENDBRANCH   8  11
ENDBRANCH   4   8
TORSDOF 2
ENDMDL
MODEL       61
REMARK 921   NORMALIZED FREE ENERGY PREDICTED BY IDOCK:   -5.28 KCAL/MOL
REMARK 922        TOTAL FREE ENERGY PREDICTED BY IDOCK:   -6.17 KCAL/MOL
REMARK 923 INTER-LIGAND FREE ENERGY PREDICTED BY IDOCK:   -5.93 KCAL/MOL
REMARK 924 INTRA-LIGAND FREE ENERGY PREDICTED BY IDOCK:   -0.24 KCAL/MOL
REMARK 927      BINDING AFFINITY PREDICTED BY RF-SCORE:    0.00 PKD
ROOT
HETATM    1  N   UNL     1     -12.489  14.576  63.706  1.00  0.00    -1.065 NA 
HETATM    2  H1  UNL     1     -12.357  15.535  64.028  1.00  0.00     0.000 HD 
HETATM    3  H2  UNL     1     -13.446  14.245  63.829  1.00  0.00     0.000 HD 
HETATM    4  CA  UNL     1     -11.474  13.711  64.411  1.00  0.00    -0.386 C  
HETATM    5  OXT UNL     1     -10.953  11.328  64.214  1.00  0.00    -0.354 OA 
HETATM    6  C   UNL     1     -11.674  12.270  63.927  1.00  0.00    -0.451 C  
HETATM    7  O   UNL     1     -12.755  12.164  63.108  1.00  0.00    -0.621 OA 
ENDROOT
BRANCH   4   8
HETATM    8  C   UNL     1     -11.530  13.719  65.963  1.00  0.00    -0.326 C  
HETATM    9  O   UNL     1     -12.750  14.315  66.420  1.00  0.00    -0.524 OA 
HETATM   10  H   UNL     1     -12.784  14.320  67.369  1.00  0.00     0.000 HD 
BRANCH   8  11
HETATM   11  C   UNL     1     -10.363  14.484  66.568  1.00  0.00    -0.283 A  
HETATM   12  C   UNL     1      -9.986  14.290  67.912  1.00  0.00    -0.230 A  
HETATM   13  C   UNL     1      -8.957  15.044  68.462  1.00  0.00    -0.186 A  
HETATM   14  C   UNL     1      -8.284  15.983  67.688  1.00  0.00    -0.148 A  
HETATM   15  O   UNL     1      -8.580  14.904  69.768  1.00  0.00    -0.443 OA 
HETATM   16  H   UNL     1      -7.876  15.419  70.145  1.00  0.00     0.000 HD 
HETATM   17  O   UNL     1      -7.282  16.727  68.238  1.00  0.00    -0.162 OA 
HETATM   18  C   UNL     1      -8.623  16.177  66.357  1.00  0.00    -0.365 A  
HETATM   19  C   UNL     1      -9.665  15.432  65.798  1.00  0.00    -0.385 A  
HETATM   20  H   UNL     1      -6.823  17.369  67.709  1.00  0.00     0.000 HD 
ENDBRANCH   8  11
ENDBRANCH   4   8
TORSDOF 2
ENDMDL
MODEL       62
REMARK 921   NORMALIZED FREE ENERGY PREDICTED BY IDOCK:   -5.27 KCAL/MOL
REMARK 922        TOTAL FREE ENERGY PREDICTED BY IDOCK:   -6.15 KCAL/MOL
REMARK 923 INTER-LIGAND FREE ENERGY PREDICTED BY IDOCK:   -5.87 KCAL/MOL
REMARK 924 INTRA-LIGAND FREE ENERGY PREDICTED BY IDOCK:   -0.28 KCAL/MOL
REMARK 927      BINDING AFFINITY PREDICTED BY RF-SCORE:    0.00 PKD
ROOT
HETATM    1  N   UNL     1      -9.009  13.690  67.350  1.00  0.00    -0.207 NA 
HETATM    2  H1  UNL     1      -8.454  13.498  68.184  1.00  0.00     0.000 HD 
HETATM    3  H2  UNL     1      -8.932  14.659  67.038  1.00  0.00     0.000 HD 
HETATM    4  CA  UNL     1     -10.431  13.278  67.639  1.00  0.00    -0.229 C  
HETATM    5  OXT UNL     1     -12.435  13.258  66.234  1.00  0.00    -0.354 OA 
HETATM    6  C   UNL     1     -11.264  13.568  66.384  1.00  0.00    -0.307 C  
HETATM    7  O   UNL     1     -10.528  14.204  65.433  1.00  0.00    -0.316 OA 
ENDROOT
BRANCH   4   8
HETATM    8  C   UNL     1     -11.111  13.973  68.851  1.00  0.00    -0.268 C  
HETATM    9  O   UNL     1     -10.150  14.713  69.611  1.00  0.00    -0.422 OA 
HETATM   10  H   UNL     1     -10.565  15.138  70.352  1.00  0.00     0.000 HD 
BRANCH   8  11
HETATM   11  C   UNL     1     -11.787  12.969  69.772  1.00  0.00    -0.381 A  
HETATM   12  C   UNL     1     -12.591  13.398  70.847  1.00  0.00    -0.406 A  
HETATM   13  C   UNL     1     -13.149  12.467  71.714  1.00  0.00    -0.342 A  
HETATM   14  C   UNL     1     -12.930  11.108  71.518  1.00  0.00    -0.437 A  
HETATM   15  O   UNL     1     -13.912  12.844  72.783  1.00  0.00    -0.730 OA 
HETATM   16  H   UNL     1     -14.294  12.207  73.376  1.00  0.00     0.000 HD 
HETATM   17  O   UNL     1     -13.471  10.199  72.380  1.00  0.00    -0.620 OA 
HETATM   18  C   UNL     1     -12.159  10.660  70.456  1.00  0.00    -0.448 A  
HETATM   19  C   UNL     1     -11.584  11.591  69.584  1.00  0.00    -0.403 A  
HETATM   20  H   UNL     1     -13.321   9.271  72.247  1.00  0.00     0.000 HD 
ENDBRANCH   8  11
ENDBRANCH   4   8
TORSDOF 2
ENDMDL
MODEL       63
REMARK 921   NORMALIZED FREE ENERGY PREDICTED BY IDOCK:   -5.25 KCAL/MOL
REMARK 922        TOTAL FREE ENERGY PREDICTED BY IDOCK:   -6.13 KCAL/MOL
REMARK 923 INTER-LIGAND FREE ENERGY PREDICTED BY IDOCK:   -5.93 KCAL/MOL
REMARK 924 INTRA-LIGAND FREE ENERGY PREDICTED BY IDOCK:   -0.20 KCAL/MOL
REMARK 927      BINDING AFFINITY PREDICTED BY RF-SCORE:    0.00 PKD
ROOT
HETATM    1  N   UNL     1      -9.284  14.842  69.803  1.00  0.00    -0.442 NA 
HETATM    2  H1  UNL     1      -9.532  13.923  70.169  1.00  0.00     0.000 HD 
HETATM    3  H2  UNL     1      -9.005  15.497  70.534  1.00  0.00     0.000 HD 
HETATM    4  CA  UNL     1     -10.449  15.339  68.983  1.00  0.00    -0.248 C  
HETATM    5  OXT UNL     1     -10.746  17.365  67.643  1.00  0.00    -0.363 OA 
HETATM    6  C   UNL     1     -10.076  16.721  68.434  1.00  0.00    -0.285 C  
HETATM    7  O   UNL     1      -8.879  17.146  68.923  1.00  0.00    -0.259 OA 
ENDROOT
BRANCH   4   8
HETATM    8  C   UNL     1     -11.807  15.457  69.727  1.00  0.00    -0.347 C  
HETATM    9  O   UNL     1     -11.750  16.487  70.720  1.00  0.00    -0.533 OA 
HETATM   10  H   UNL     1     -12.581  16.559  71.175  1.00  0.00     0.000 HD 
BRANCH   8  11
HETATM   11  C   UNL     1     -12.196  14.152  70.406  1.00  0.00    -0.427 A  
HETATM   12  C   UNL     1     -11.992  12.913  69.768  1.00  0.00    -0.365 A  
HETATM   13  C   UNL     1     -12.410  11.738  70.379  1.00  0.00    -0.277 A  
HETATM   14  C   UNL     1     -13.020  11.776  71.628  1.00  0.00    -0.362 A  
HETATM   15  O   UNL     1     -12.254  10.519  69.781  1.00  0.00    -0.463 OA 
HETATM   16  H   UNL     1     -12.540   9.716  70.198  1.00  0.00     0.000 HD 
HETATM   17  O   UNL     1     -13.439  10.619  72.217  1.00  0.00    -0.594 OA 
HETATM   18  C   UNL     1     -13.214  12.982  72.285  1.00  0.00    -0.539 A  
HETATM   19  C   UNL     1     -12.806  14.171  71.673  1.00  0.00    -0.428 A  
HETATM   20  H   UNL     1     -13.856  10.645  73.070  1.00  0.00     0.000 HD 
ENDBRANCH   8  11
ENDBRANCH   4   8
TORSDOF 2
ENDMDL
MODEL       64
REMARK 921   NORMALIZED FREE ENERGY PREDICTED BY IDOCK:   -5.23 KCAL/MOL
REMARK 922        TOTAL FREE ENERGY PREDICTED BY IDOCK:   -6.11 KCAL/MOL
REMARK 923 INTER-LIGAND FREE ENERGY PREDICTED BY IDOCK:   -5.84 KCAL/MOL
REMARK 924 INTRA-LIGAND FREE ENERGY PREDICTED BY IDOCK:   -0.27 KCAL/MOL
REMARK 927      BINDING AFFINITY PREDICTED BY RF-SCORE:    0.00 PKD
ROOT
HETATM    1  N   UNL     1      -8.766  16.683  68.695  1.00  0.00    -0.241 NA 
HETATM    2  H1  UNL     1      -8.670  15.669  68.750  1.00  0.00     0.000 HD 
HETATM    3  H2  UNL     1      -8.714  17.136  69.608  1.00  0.00     0.000 HD 
HETATM    4  CA  UNL     1     -10.050  16.985  67.963  1.00  0.00    -0.305 C  
HETATM    5  OXT UNL     1     -11.065  19.098  67.263  1.00  0.00    -0.417 OA 
HETATM    6  C   UNL     1     -10.194  18.509  67.882  1.00  0.00    -0.384 C  
HETATM    7  O   UNL     1      -9.208  19.140  68.575  1.00  0.00    -0.346 OA 
ENDROOT
BRANCH   4   8
HETATM    8  C   UNL     1     -11.347  16.402  68.590  1.00  0.00    -0.289 C  
HETATM    9  O   UNL     1     -11.384  16.660  69.998  1.00  0.00    -0.405 OA 
HETATM   10  H   UNL     1     -12.177  16.304  70.382  1.00  0.00     0.000 HD 
BRANCH   8  11
HETATM   11  C   UNL     1     -11.457  14.901  68.370  1.00  0.00    -0.338 A  
HETATM   12  C   UNL     1     -11.830  14.377  67.117  1.00  0.00    -0.437 A  
HETATM   13  C   UNL     1     -11.985  13.006  66.954  1.00  0.00    -0.352 A  
HETATM   14  C   UNL     1     -11.761  12.143  68.021  1.00  0.00    -0.344 A  
HETATM   15  O   UNL     1     -12.370  12.461  65.761  1.00  0.00    -0.644 OA 
HETATM   16  H   UNL     1     -12.477  11.524  65.650  1.00  0.00     0.000 HD 
HETATM   17  O   UNL     1     -11.927  10.799  67.857  1.00  0.00    -0.753 OA 
HETATM   18  C   UNL     1     -11.374  12.634  69.259  1.00  0.00    -0.306 A  
HETATM   19  C   UNL     1     -11.226  14.013  69.436  1.00  0.00    -0.283 A  
HETATM   20  H   UNL     1     -11.774  10.210  68.586  1.00  0.00     0.000 HD 
ENDBRANCH   8  11
ENDBRANCH   4   8
TORSDOF 2
ENDMDL
MODEL       65
REMARK 921   NORMALIZED FREE ENERGY PREDICTED BY IDOCK:   -5.21 KCAL/MOL
REMARK 922        TOTAL FREE ENERGY PREDICTED BY IDOCK:   -6.08 KCAL/MOL
REMARK 923 INTER-LIGAND FREE ENERGY PREDICTED BY IDOCK:   -5.94 KCAL/MOL
REMARK 924 INTRA-LIGAND FREE ENERGY PREDICTED BY IDOCK:   -0.15 KCAL/MOL
REMARK 927      BINDING AFFINITY PREDICTED BY RF-SCORE:    0.00 PKD
ROOT
HETATM    1  N   UNL     1     -12.383  15.582  69.333  1.00  0.00    -0.595 NA 
HETATM    2  H1  UNL     1     -12.996  14.779  69.478  1.00  0.00     0.000 HD 
HETATM    3  H2  UNL     1     -12.510  16.016  68.419  1.00  0.00     0.000 HD 
HETATM    4  CA  UNL     1     -10.965  15.126  69.574  1.00  0.00    -0.272 C  
HETATM    5  OXT UNL     1      -8.843  16.345  69.569  1.00  0.00    -0.095 OA 
HETATM    6  C   UNL     1     -10.044  16.332  69.354  1.00  0.00    -0.253 C  
HETATM    7  O   UNL     1     -10.738  17.413  68.904  1.00  0.00    -0.284 OA 
ENDROOT
BRANCH   4   8
HETATM    8  C   UNL     1     -10.463  13.956  68.683  1.00  0.00    -0.246 C  
HETATM    9  O   UNL     1      -9.032  13.943  68.630  1.00  0.00    -0.288 OA 
HETATM   10  H   UNL     1      -8.725  13.228  68.086  1.00  0.00     0.000 HD 
BRANCH   8  11
HETATM   11  C   UNL     1     -10.999  14.056  67.263  1.00  0.00    -0.303 A  
HETATM   12  C   UNL     1     -12.055  13.232  66.827  1.00  0.00    -0.403 A  
HETATM   13  C   UNL     1     -12.489  13.296  65.508  1.00  0.00    -0.474 A  
HETATM   14  C   UNL     1     -11.892  14.180  64.616  1.00  0.00    -0.431 A  
HETATM   15  O   UNL     1     -13.493  12.495  65.040  1.00  0.00    -0.436 OA 
HETATM   16  H   UNL     1     -13.789  12.538  64.139  1.00  0.00     0.000 HD 
HETATM   17  O   UNL     1     -12.315  14.228  63.320  1.00  0.00    -1.118 OA 
HETATM   18  C   UNL     1     -10.864  15.015  65.027  1.00  0.00    -0.439 A  
HETATM   19  C   UNL     1     -10.413  14.950  66.349  1.00  0.00    -0.301 A  
HETATM   20  H   UNL     1     -11.907  14.832  62.710  1.00  0.00     0.000 HD 
ENDBRANCH   8  11
ENDBRANCH   4   8
TORSDOF 2
ENDMDL
MODEL       66
REMARK 921   NORMALIZED FREE ENERGY PREDICTED BY IDOCK:   -5.16 KCAL/MOL
REMARK 922        TOTAL FREE ENERGY PREDICTED BY IDOCK:   -6.03 KCAL/MOL
REMARK 923 INTER-LIGAND FREE ENERGY PREDICTED BY IDOCK:   -5.76 KCAL/MOL
REMARK 924 INTRA-LIGAND FREE ENERGY PREDICTED BY IDOCK:   -0.27 KCAL/MOL
REMARK 927      BINDING AFFINITY PREDICTED BY RF-SCORE:    0.00 PKD
ROOT
HETATM    1  N   UNL     1     -11.790  16.583  70.218  1.00  0.00    -0.228 NA 
HETATM    2  H1  UNL     1     -11.693  17.309  69.509  1.00  0.00     0.000 HD 
HETATM    3  H2  UNL     1     -11.045  16.607  70.914  1.00  0.00     0.000 HD 
HETATM    4  CA  UNL     1     -11.886  15.256  69.507  1.00  0.00    -0.345 C  
HETATM    5  OXT UNL     1     -12.240  12.985  70.346  1.00  0.00    -0.351 OA 
HETATM    6  C   UNL     1     -12.032  14.165  70.575  1.00  0.00    -0.323 C  
HETATM    7  O   UNL     1     -11.920  14.678  71.830  1.00  0.00    -0.345 OA 
ENDROOT
BRANCH   4   8
HETATM    8  C   UNL     1     -10.690  14.886  68.587  1.00  0.00    -0.250 C  
HETATM    9  O   UNL     1      -9.729  15.947  68.559  1.00  0.00    -0.203 OA 
HETATM   10  H   UNL     1      -8.998  15.721  67.997  1.00  0.00     0.000 HD 
BRANCH   8  11
HETATM   11  C   UNL     1     -11.139  14.602  67.162  1.00  0.00    -0.328 A  
HETATM   12  C   UNL     1     -11.807  13.405  66.836  1.00  0.00    -0.453 A  
HETATM   13  C   UNL     1     -12.154  13.138  65.518  1.00  0.00    -0.442 A  
HETATM   14  C   UNL     1     -11.855  14.054  64.515  1.00  0.00    -0.434 A  
HETATM   15  O   UNL     1     -12.779  11.977  65.158  1.00  0.00    -0.335 OA 
HETATM   16  H   UNL     1     -13.016  11.794  64.256  1.00  0.00     0.000 HD 
HETATM   17  O   UNL     1     -12.188  13.780  63.221  1.00  0.00    -1.021 OA 
HETATM   18  C   UNL     1     -11.216  15.248  64.813  1.00  0.00    -0.405 A  
HETATM   19  C   UNL     1     -10.853  15.521  66.136  1.00  0.00    -0.295 A  
HETATM   20  H   UNL     1     -11.984  14.405  62.536  1.00  0.00     0.000 HD 
ENDBRANCH   8  11
ENDBRANCH   4   8
TORSDOF 2
ENDMDL
MODEL       67
REMARK 921   NORMALIZED FREE ENERGY PREDICTED BY IDOCK:   -5.12 KCAL/MOL
REMARK 922        TOTAL FREE ENERGY PREDICTED BY IDOCK:   -5.99 KCAL/MOL
REMARK 923 INTER-LIGAND FREE ENERGY PREDICTED BY IDOCK:   -5.74 KCAL/MOL
REMARK 924 INTRA-LIGAND FREE ENERGY PREDICTED BY IDOCK:   -0.25 KCAL/MOL
REMARK 927      BINDING AFFINITY PREDICTED BY RF-SCORE:    0.00 PKD
ROOT
HETATM    1  N   UNL     1     -11.857  11.648  63.220  1.00  0.00    -0.877 NA 
HETATM    2  H1  UNL     1     -11.458  10.714  63.314  1.00  0.00     0.000 HD 
HETATM    3  H2  UNL     1     -11.311  12.252  62.605  1.00  0.00     0.000 HD 
HETATM    4  CA  UNL     1     -12.024  12.218  64.606  1.00  0.00    -0.366 C  
HETATM    5  OXT UNL     1     -12.987  14.326  65.392  1.00  0.00    -0.654 OA 
HETATM    6  C   UNL     1     -12.624  13.622  64.464  1.00  0.00    -0.197 C  
HETATM    7  O   UNL     1     -12.726  13.990  63.158  1.00  0.00    -0.676 OA 
ENDROOT
BRANCH   4   8
HETATM    8  C   UNL     1     -10.732  12.321  65.462  1.00  0.00    -0.279 C  
HETATM    9  O   UNL     1      -9.606  12.642  64.638  1.00  0.00    -0.498 OA 
HETATM   10  H   UNL     1      -8.816  12.705  65.161  1.00  0.00     0.000 HD 
BRANCH   8  11
HETATM   11  C   UNL     1     -10.437  11.025  66.201  1.00  0.00    -0.301 A  
HETATM   12  C   UNL     1     -11.018  10.756  67.456  1.00  0.00    -0.372 A  
HETATM   13  C   UNL     1     -10.688   9.594  68.142  1.00  0.00    -0.217 A  
HETATM   14  C   UNL     1      -9.793   8.684  67.589  1.00  0.00    -0.180 A  
HETATM   15  O   UNL     1     -11.210   9.310  69.372  1.00  0.00    -0.424 OA 
HETATM   16  H   UNL     1     -10.984   8.516  69.841  1.00  0.00     0.000 HD 
HETATM   17  O   UNL     1      -9.464   7.551  68.274  1.00  0.00    -0.144 OA 
HETATM   18  C   UNL     1      -9.222   8.917  66.347  1.00  0.00    -0.240 A  
HETATM   19  C   UNL     1      -9.541  10.089  65.654  1.00  0.00    -0.313 A  
HETATM   20  H   UNL     1      -8.852   6.930  67.897  1.00  0.00     0.000 HD 
ENDBRANCH   8  11
ENDBRANCH   4   8
TORSDOF 2
ENDMDL
MODEL       68
REMARK 921   NORMALIZED FREE ENERGY PREDICTED BY IDOCK:   -5.11 KCAL/MOL
REMARK 922        TOTAL FREE ENERGY PREDICTED BY IDOCK:   -5.98 KCAL/MOL
REMARK 923 INTER-LIGAND FREE ENERGY PREDICTED BY IDOCK:   -5.60 KCAL/MOL
REMARK 924 INTRA-LIGAND FREE ENERGY PREDICTED BY IDOCK:   -0.37 KCAL/MOL
REMARK 927      BINDING AFFINITY PREDICTED BY RF-SCORE:    0.00 PKD
ROOT
HETATM    1  N   UNL     1     -12.203  12.820  70.912  1.00  0.00    -0.447 NA 
HETATM    2  H1  UNL     1     -11.447  12.666  70.246  1.00  0.00     0.000 HD 
HETATM    3  H2  UNL     1     -13.125  12.638  70.515  1.00  0.00     0.000 HD 
HETATM    4  CA  UNL     1     -12.063  14.223  71.449  1.00  0.00    -0.279 C  
HETATM    5  OXT UNL     1     -13.326  15.446  73.152  1.00  0.00    -0.484 OA 
HETATM    6  C   UNL     1     -13.201  14.455  72.451  1.00  0.00    -0.440 C  
HETATM    7  O   UNL     1     -14.058  13.399  72.484  1.00  0.00    -0.726 OA 
ENDROOT
BRANCH   4   8
HETATM    8  C   UNL     1     -12.097  15.365  70.396  1.00  0.00    -0.372 C  
HETATM    9  O   UNL     1     -13.446  15.757  70.122  1.00  0.00    -0.598 OA 
HETATM   10  H   UNL     1     -13.467  16.455  69.478  1.00  0.00     0.000 HD 
BRANCH   8  11
HETATM   11  C   UNL     1     -11.439  14.948  69.089  1.00  0.00    -0.324 A  
HETATM   12  C   UNL     1     -10.042  15.026  68.922  1.00  0.00    -0.234 A  
HETATM   13  C   UNL     1      -9.468  14.700  67.700  1.00  0.00    -0.205 A  
HETATM   14  C   UNL     1     -10.265  14.283  66.640  1.00  0.00    -0.272 A  
HETATM   15  O   UNL     1      -8.120  14.788  67.491  1.00  0.00    -0.153 OA 
HETATM   16  H   UNL     1      -7.727  14.565  66.656  1.00  0.00     0.000 HD 
HETATM   17  O   UNL     1      -9.695  13.975  65.439  1.00  0.00    -0.535 OA 
HETATM   18  C   UNL     1     -11.640  14.178  66.786  1.00  0.00    -0.409 A  
HETATM   19  C   UNL     1     -12.229  14.516  68.009  1.00  0.00    -0.127 A  
HETATM   20  H   UNL     1     -10.240  13.690  64.715  1.00  0.00     0.000 HD 
ENDBRANCH   8  11
ENDBRANCH   4   8
TORSDOF 2
ENDMDL
MODEL       69
REMARK 921   NORMALIZED FREE ENERGY PREDICTED BY IDOCK:   -5.11 KCAL/MOL
REMARK 922        TOTAL FREE ENERGY PREDICTED BY IDOCK:   -5.97 KCAL/MOL
REMARK 923 INTER-LIGAND FREE ENERGY PREDICTED BY IDOCK:   -5.77 KCAL/MOL
REMARK 924 INTRA-LIGAND FREE ENERGY PREDICTED BY IDOCK:   -0.20 KCAL/MOL
REMARK 927      BINDING AFFINITY PREDICTED BY RF-SCORE:    0.00 PKD
ROOT
HETATM    1  N   UNL     1     -10.398  12.122  67.222  1.00  0.00    -0.211 NA 
HETATM    2  H1  UNL     1     -10.123  12.043  68.201  1.00  0.00     0.000 HD 
HETATM    3  H2  UNL     1      -9.670  12.535  66.638  1.00  0.00     0.000 HD 
HETATM    4  CA  UNL     1     -11.696  12.888  67.169  1.00  0.00    -0.377 C  
HETATM    5  OXT UNL     1     -13.163  13.473  65.299  1.00  0.00    -0.688 OA 
HETATM    6  C   UNL     1     -12.108  13.006  65.696  1.00  0.00    -0.454 C  
HETATM    7  O   UNL     1     -11.153  12.501  64.870  1.00  0.00    -0.284 OA 
ENDROOT
BRANCH   4   8
HETATM    8  C   UNL     1     -11.675  14.312  67.788  1.00  0.00    -0.374 C  
HETATM    9  O   UNL     1     -10.364  14.880  67.698  1.00  0.00    -0.239 OA 
HETATM   10  H   UNL     1     -10.351  15.752  68.077  1.00  0.00     0.000 HD 
BRANCH   8  11
HETATM   11  C   UNL     1     -12.098  14.301  69.249  1.00  0.00    -0.351 A  
HETATM   12  C   UNL     1     -12.349  13.089  69.923  1.00  0.00    -0.177 A  
HETATM   13  C   UNL     1     -12.794  13.103  71.238  1.00  0.00    -0.296 A  
HETATM   14  C   UNL     1     -12.982  14.310  71.902  1.00  0.00    -0.350 A  
HETATM   15  O   UNL     1     -13.073  11.949  71.917  1.00  0.00    -0.458 OA 
HETATM   16  H   UNL     1     -13.378  11.959  72.817  1.00  0.00     0.000 HD 
HETATM   17  O   UNL     1     -13.430  14.316  73.191  1.00  0.00    -0.632 OA 
HETATM   18  C   UNL     1     -12.722  15.515  71.268  1.00  0.00    -0.526 A  
HETATM   19  C   UNL     1     -12.285  15.512  69.939  1.00  0.00    -0.351 A  
HETATM   20  H   UNL     1     -13.558  15.141  73.644  1.00  0.00     0.000 HD 
ENDBRANCH   8  11
ENDBRANCH   4   8
TORSDOF 2
ENDMDL
MODEL       70
REMARK 921   NORMALIZED FREE ENERGY PREDICTED BY IDOCK:   -5.10 KCAL/MOL
REMARK 922        TOTAL FREE ENERGY PREDICTED BY IDOCK:   -5.97 KCAL/MOL
REMARK 923 INTER-LIGAND FREE ENERGY PREDICTED BY IDOCK:   -5.70 KCAL/MOL
REMARK 924 INTRA-LIGAND FREE ENERGY PREDICTED BY IDOCK:   -0.27 KCAL/MOL
REMARK 927      BINDING AFFINITY PREDICTED BY RF-SCORE:    0.00 PKD
ROOT
HETATM    1  N   UNL     1      -8.784  12.059  65.934  1.00  0.00    -0.396 NA 
HETATM    2  H1  UNL     1      -8.102  12.801  65.781  1.00  0.00     0.000 HD 
HETATM    3  H2  UNL     1      -8.978  11.518  65.091  1.00  0.00     0.000 HD 
HETATM    4  CA  UNL     1     -10.023  12.688  66.524  1.00  0.00    -0.251 C  
HETATM    5  OXT UNL     1     -12.122  11.712  67.317  1.00  0.00    -0.595 OA 
HETATM    6  C   UNL     1     -11.048  11.571  66.754  1.00  0.00    -0.302 C  
HETATM    7  O   UNL     1     -10.606  10.380  66.267  1.00  0.00    -0.198 OA 
ENDROOT
BRANCH   4   8
HETATM    8  C   UNL     1     -10.693  13.803  65.674  1.00  0.00    -0.288 C  
HETATM    9  O   UNL     1     -10.001  13.974  64.433  1.00  0.00    -0.702 OA 
HETATM   10  H   UNL     1     -10.411  14.656  63.913  1.00  0.00     0.000 HD 
BRANCH   8  11
HETATM   11  C   UNL     1     -10.713  15.137  66.405  1.00  0.00    -0.317 A  
HETATM   12  C   UNL     1     -10.250  16.313  65.782  1.00  0.00    -0.390 A  
HETATM   13  C   UNL     1     -10.219  17.508  66.488  1.00  0.00    -0.342 A  
HETATM   14  C   UNL     1     -10.657  17.555  67.807  1.00  0.00    -0.375 A  
HETATM   15  O   UNL     1      -9.753  18.665  65.928  1.00  0.00    -0.498 OA 
HETATM   16  H   UNL     1      -9.732  19.482  66.410  1.00  0.00     0.000 HD 
HETATM   17  O   UNL     1     -10.613  18.731  68.498  1.00  0.00    -0.381 OA 
HETATM   18  C   UNL     1     -11.137  16.416  68.436  1.00  0.00    -0.351 A  
HETATM   19  C   UNL     1     -11.161  15.205  67.737  1.00  0.00    -0.313 A  
HETATM   20  H   UNL     1     -10.913  18.763  69.399  1.00  0.00     0.000 HD 
ENDBRANCH   8  11
ENDBRANCH   4   8
TORSDOF 2
ENDMDL
MODEL       71
REMARK 921   NORMALIZED FREE ENERGY PREDICTED BY IDOCK:   -5.07 KCAL/MOL
REMARK 922        TOTAL FREE ENERGY PREDICTED BY IDOCK:   -5.93 KCAL/MOL
REMARK 923 INTER-LIGAND FREE ENERGY PREDICTED BY IDOCK:   -5.69 KCAL/MOL
REMARK 924 INTRA-LIGAND FREE ENERGY PREDICTED BY IDOCK:   -0.25 KCAL/MOL
REMARK 927      BINDING AFFINITY PREDICTED BY RF-SCORE:    0.00 PKD
ROOT
HETATM    1  N   UNL     1     -12.033  12.061  67.074  1.00  0.00    -0.606 NA 
HETATM    2  H1  UNL     1     -12.322  11.137  67.397  1.00  0.00     0.000 HD 
HETATM    3  H2  UNL     1     -11.138  12.047  66.584  1.00  0.00     0.000 HD 
HETATM    4  CA  UNL     1     -12.035  12.985  68.267  1.00  0.00    -0.267 C  
HETATM    5  OXT UNL     1     -11.595  15.384  68.465  1.00  0.00    -0.336 OA 
HETATM    6  C   UNL     1     -11.600  14.373  67.782  1.00  0.00    -0.356 C  
HETATM    7  O   UNL     1     -11.235  14.351  66.471  1.00  0.00    -0.324 OA 
ENDROOT
BRANCH   4   8
HETATM    8  C   UNL     1     -11.121  12.571  69.453  1.00  0.00    -0.079 C  
HETATM    9  O   UNL     1      -9.960  11.882  68.977  1.00  0.00    -0.407 OA 
HETATM   10  H   UNL     1      -9.401  11.629  69.702  1.00  0.00     0.000 HD 
BRANCH   8  11
HETATM   11  C   UNL     1     -11.848  11.670  70.440  1.00  0.00    -0.385 A  
HETATM   12  C   UNL     1     -11.510  10.308  70.564  1.00  0.00    -0.427 A  
HETATM   13  C   UNL     1     -12.227   9.488  71.426  1.00  0.00    -0.371 A  
HETATM   14  C   UNL     1     -13.272  10.009  72.181  1.00  0.00    -0.390 A  
HETATM   15  O   UNL     1     -11.946   8.156  71.554  1.00  0.00    -0.280 OA 
HETATM   16  H   UNL     1     -12.436   7.596  72.144  1.00  0.00     0.000 HD 
HETATM   17  O   UNL     1     -13.979   9.195  73.017  1.00  0.00    -1.026 OA 
HETATM   18  C   UNL     1     -13.610  11.351  72.092  1.00  0.00    -0.084 A  
HETATM   19  C   UNL     1     -12.902  12.181  71.218  1.00  0.00    -0.349 A  
HETATM   20  H   UNL     1     -14.693   9.551  73.534  1.00  0.00     0.000 HD 
ENDBRANCH   8  11
ENDBRANCH   4   8
TORSDOF 2
ENDMDL
MODEL       72
REMARK 921   NORMALIZED FREE ENERGY PREDICTED BY IDOCK:   -5.07 KCAL/MOL
REMARK 922        TOTAL FREE ENERGY PREDICTED BY IDOCK:   -5.93 KCAL/MOL
REMARK 923 INTER-LIGAND FREE ENERGY PREDICTED BY IDOCK:   -5.66 KCAL/MOL
REMARK 924 INTRA-LIGAND FREE ENERGY PREDICTED BY IDOCK:   -0.27 KCAL/MOL
REMARK 927      BINDING AFFINITY PREDICTED BY RF-SCORE:    0.00 PKD
ROOT
HETATM    1  N   UNL     1     -12.436  14.421  68.281  1.00  0.00    -0.537 NA 
HETATM    2  H1  UNL     1     -12.924  13.528  68.219  1.00  0.00     0.000 HD 
HETATM    3  H2  UNL     1     -13.035  15.217  68.062  1.00  0.00     0.000 HD 
HETATM    4  CA  UNL     1     -11.218  14.341  67.394  1.00  0.00    -0.316 C  
HETATM    5  OXT UNL     1      -9.402  15.928  66.980  1.00  0.00    -0.207 OA 
HETATM    6  C   UNL     1     -10.484  15.684  67.488  1.00  0.00    -0.285 C  
HETATM    7  O   UNL     1     -11.182  16.583  68.234  1.00  0.00    -0.356 OA 
ENDROOT
BRANCH   4   8
HETATM    8  C   UNL     1     -11.484  14.031  65.895  1.00  0.00    -0.330 C  
HETATM    9  O   UNL     1     -12.891  13.961  65.638  1.00  0.00    -0.541 OA 
HETATM   10  H   UNL     1     -13.054  13.772  64.721  1.00  0.00     0.000 HD 
BRANCH   8  11
HETATM   11  C   UNL     1     -10.848  12.717  65.467  1.00  0.00    -0.310 A  
HETATM   12  C   UNL     1     -10.879  12.300  64.122  1.00  0.00    -0.412 A  
HETATM   13  C   UNL     1     -10.347  11.068  63.762  1.00  0.00    -0.364 A  
HETATM   14  C   UNL     1      -9.770  10.246  64.724  1.00  0.00    -0.332 A  
HETATM   15  O   UNL     1     -10.381  10.617  62.472  1.00  0.00    -0.751 OA 
HETATM   16  H   UNL     1     -10.018   9.775  62.227  1.00  0.00     0.000 HD 
HETATM   17  O   UNL     1      -9.261   9.033  64.366  1.00  0.00    -0.424 OA 
HETATM   18  C   UNL     1      -9.710  10.643  66.051  1.00  0.00    -0.258 A  
HETATM   19  C   UNL     1     -10.253  11.877  66.425  1.00  0.00    -0.240 A  
HETATM   20  H   UNL     1      -8.867   8.471  65.022  1.00  0.00     0.000 HD 
ENDBRANCH   8  11
ENDBRANCH   4   8
TORSDOF 2
ENDMDL
MODEL       73
REMARK 921   NORMALIZED FREE ENERGY PREDICTED BY IDOCK:   -5.06 KCAL/MOL
REMARK 922        TOTAL FREE ENERGY PREDICTED BY IDOCK:   -5.92 KCAL/MOL
REMARK 923 INTER-LIGAND FREE ENERGY PREDICTED BY IDOCK:   -5.83 KCAL/MOL
REMARK 924 INTRA-LIGAND FREE ENERGY PREDICTED BY IDOCK:   -0.08 KCAL/MOL
REMARK 927      BINDING AFFINITY PREDICTED BY RF-SCORE:    0.00 PKD
ROOT
HETATM    1  N   UNL     1      -8.811  12.306  67.280  1.00  0.00    -0.182 NA 
HETATM    2  H1  UNL     1      -8.959  13.267  67.590  1.00  0.00     0.000 HD 
HETATM    3  H2  UNL     1      -8.937  12.191  66.274  1.00  0.00     0.000 HD 
HETATM    4  CA  UNL     1      -9.721  11.416  68.090  1.00  0.00    -0.192 C  
HETATM    5  OXT UNL     1      -9.994   8.985  68.139  1.00  0.00    -0.161 OA 
HETATM    6  C   UNL     1      -9.498   9.973  67.623  1.00  0.00    -0.144 C  
HETATM    7  O   UNL     1      -8.650   9.918  66.560  1.00  0.00    -0.124 OA 
ENDROOT
BRANCH   4   8
HETATM    8  C   UNL     1     -11.240  11.731  68.003  1.00  0.00    -0.263 C  
HETATM    9  O   UNL     1     -12.010  10.530  68.117  1.00  0.00    -0.788 OA 
HETATM   10  H   UNL     1     -12.939  10.722  68.064  1.00  0.00     0.000 HD 
BRANCH   8  11
HETATM   11  C   UNL     1     -11.602  12.415  66.693  1.00  0.00    -0.447 A  
HETATM   12  C   UNL     1     -11.610  11.700  65.479  1.00  0.00    -0.085 A  
HETATM   13  C   UNL     1     -11.883  12.357  64.286  1.00  0.00    -0.398 A  
HETATM   14  C   UNL     1     -12.162  13.719  64.284  1.00  0.00    -0.400 A  
HETATM   15  O   UNL     1     -11.876  11.704  63.085  1.00  0.00    -0.844 OA 
HETATM   16  H   UNL     1     -12.062  12.154  62.269  1.00  0.00     0.000 HD 
HETATM   17  O   UNL     1     -12.418  14.361  63.107  1.00  0.00    -1.009 OA 
HETATM   18  C   UNL     1     -12.180  14.441  65.468  1.00  0.00    -0.352 A  
HETATM   19  C   UNL     1     -11.895  13.790  66.673  1.00  0.00    -0.445 A  
HETATM   20  H   UNL     1     -12.609  15.291  63.106  1.00  0.00     0.000 HD 
ENDBRANCH   8  11
ENDBRANCH   4   8
TORSDOF 2
ENDMDL
MODEL       74
REMARK 921   NORMALIZED FREE ENERGY PREDICTED BY IDOCK:   -5.03 KCAL/MOL
REMARK 922        TOTAL FREE ENERGY PREDICTED BY IDOCK:   -5.89 KCAL/MOL
REMARK 923 INTER-LIGAND FREE ENERGY PREDICTED BY IDOCK:   -5.61 KCAL/MOL
REMARK 924 INTRA-LIGAND FREE ENERGY PREDICTED BY IDOCK:   -0.27 KCAL/MOL
REMARK 927      BINDING AFFINITY PREDICTED BY RF-SCORE:    0.00 PKD
ROOT
HETATM    1  N   UNL     1     -11.178   9.908  67.366  1.00  0.00    -0.365 NA 
HETATM    2  H1  UNL     1     -11.477   9.351  68.166  1.00  0.00     0.000 HD 
HETATM    3  H2  UNL     1     -10.208   9.735  67.103  1.00  0.00     0.000 HD 
HETATM    4  CA  UNL     1     -11.448  11.357  67.689  1.00  0.00    -0.273 C  
HETATM    5  OXT UNL     1     -11.169  13.396  66.365  1.00  0.00    -0.296 OA 
HETATM    6  C   UNL     1     -10.998  12.195  66.485  1.00  0.00    -0.284 C  
HETATM    7  O   UNL     1     -10.393  11.424  65.541  1.00  0.00    -0.247 OA 
ENDROOT
BRANCH   4   8
HETATM    8  C   UNL     1     -10.754  11.914  68.962  1.00  0.00    -0.156 C  
HETATM    9  O   UNL     1     -10.026  10.879  69.632  1.00  0.00    -0.438 OA 
HETATM   10  H   UNL     1      -9.601  11.220  70.410  1.00  0.00     0.000 HD 
BRANCH   8  11
HETATM   11  C   UNL     1     -11.756  12.511  69.939  1.00  0.00    -0.327 A  
HETATM   12  C   UNL     1     -12.103  13.875  69.879  1.00  0.00    -0.406 A  
HETATM   13  C   UNL     1     -12.973  14.413  70.819  1.00  0.00    -0.326 A  
HETATM   14  C   UNL     1     -13.516  13.607  71.814  1.00  0.00    -0.384 A  
HETATM   15  O   UNL     1     -13.314  15.737  70.811  1.00  0.00    -0.719 OA 
HETATM   16  H   UNL     1     -13.909  16.104  71.454  1.00  0.00     0.000 HD 
HETATM   17  O   UNL     1     -14.360  14.145  72.741  1.00  0.00    -0.473 OA 
HETATM   18  C   UNL     1     -13.205  12.257  71.881  1.00  0.00    -0.481 A  
HETATM   19  C   UNL     1     -12.321  11.709  70.946  1.00  0.00    -0.436 A  
HETATM   20  H   UNL     1     -14.731  13.595  73.421  1.00  0.00     0.000 HD 
ENDBRANCH   8  11
ENDBRANCH   4   8
TORSDOF 2
ENDMDL
MODEL       75
REMARK 921   NORMALIZED FREE ENERGY PREDICTED BY IDOCK:   -5.03 KCAL/MOL
REMARK 922        TOTAL FREE ENERGY PREDICTED BY IDOCK:   -5.88 KCAL/MOL
REMARK 923 INTER-LIGAND FREE ENERGY PREDICTED BY IDOCK:   -5.65 KCAL/MOL
REMARK 924 INTRA-LIGAND FREE ENERGY PREDICTED BY IDOCK:   -0.24 KCAL/MOL
REMARK 927      BINDING AFFINITY PREDICTED BY RF-SCORE:    0.00 PKD
ROOT
HETATM    1  N   UNL     1      -8.713  14.091  68.886  1.00  0.00    -0.367 NA 
HETATM    2  H1  UNL     1      -8.185  13.457  68.286  1.00  0.00     0.000 HD 
HETATM    3  H2  UNL     1      -8.752  13.778  69.856  1.00  0.00     0.000 HD 
HETATM    4  CA  UNL     1     -10.080  14.272  68.273  1.00  0.00    -0.238 C  
HETATM    5  OXT UNL     1     -11.979  15.672  68.921  1.00  0.00    -0.367 OA 
HETATM    6  C   UNL     1     -10.873  15.225  69.175  1.00  0.00    -0.250 C  
HETATM    7  O   UNL     1     -10.178  15.537  70.303  1.00  0.00    -0.294 OA 
ENDROOT
BRANCH   4   8
HETATM    8  C   UNL     1     -10.915  12.978  68.071  1.00  0.00    -0.250 C  
HETATM    9  O   UNL     1     -10.424  11.926  68.909  1.00  0.00    -0.289 OA 
HETATM   10  H   UNL     1     -10.935  11.135  68.786  1.00  0.00     0.000 HD 
BRANCH   8  11
HETATM   11  C   UNL     1     -10.881  12.501  66.627  1.00  0.00    -0.277 A  
HETATM   12  C   UNL     1     -11.981  12.704  65.769  1.00  0.00    -0.503 A  
HETATM   13  C   UNL     1     -11.953  12.207  64.473  1.00  0.00    -0.337 A  
HETATM   14  C   UNL     1     -10.838  11.518  64.010  1.00  0.00    -0.387 A  
HETATM   15  O   UNL     1     -13.010  12.360  63.619  1.00  0.00    -0.758 OA 
HETATM   16  H   UNL     1     -12.992  12.020  62.733  1.00  0.00     0.000 HD 
HETATM   17  O   UNL     1     -10.823  11.022  62.739  1.00  0.00    -0.780 OA 
HETATM   18  C   UNL     1      -9.735  11.323  64.828  1.00  0.00    -0.298 A  
HETATM   19  C   UNL     1      -9.758  11.811  66.138  1.00  0.00    -0.250 A  
HETATM   20  H   UNL     1     -10.061  10.551  62.422  1.00  0.00     0.000 HD 
ENDBRANCH   8  11
ENDBRANCH   4   8
TORSDOF 2
ENDMDL
MODEL       76
REMARK 921   NORMALIZED FREE ENERGY PREDICTED BY IDOCK:   -5.02 KCAL/MOL
REMARK 922        TOTAL FREE ENERGY PREDICTED BY IDOCK:   -5.87 KCAL/MOL
REMARK 923 INTER-LIGAND FREE ENERGY PREDICTED BY IDOCK:   -5.60 KCAL/MOL
REMARK 924 INTRA-LIGAND FREE ENERGY PREDICTED BY IDOCK:   -0.28 KCAL/MOL
REMARK 927      BINDING AFFINITY PREDICTED BY RF-SCORE:    0.00 PKD
ROOT
HETATM    1  N   UNL     1      -9.178  13.685  66.288  1.00  0.00    -0.478 NA 
HETATM    2  H1  UNL     1      -8.636  13.833  67.139  1.00  0.00     0.000 HD 
HETATM    3  H2  UNL     1      -8.880  14.287  65.520  1.00  0.00     0.000 HD 
HETATM    4  CA  UNL     1     -10.636  13.857  66.636  1.00  0.00    -0.274 C  
HETATM    5  OXT UNL     1     -12.668  13.595  65.299  1.00  0.00    -0.583 OA 
HETATM    6  C   UNL     1     -11.450  13.635  65.356  1.00  0.00    -0.311 C  
HETATM    7  O   UNL     1     -10.642  13.466  64.275  1.00  0.00    -0.420 OA 
ENDROOT
BRANCH   4   8
HETATM    8  C   UNL     1     -11.037  15.231  67.241  1.00  0.00    -0.325 C  
HETATM    9  O   UNL     1      -9.936  16.145  67.187  1.00  0.00    -0.242 OA 
HETATM   10  H   UNL     1     -10.181  16.985  67.557  1.00  0.00     0.000 HD 
BRANCH   8  11
HETATM   11  C   UNL     1     -11.488  15.102  68.689  1.00  0.00    -0.341 A  
HETATM   12  C   UNL     1     -11.274  16.146  69.611  1.00  0.00    -0.331 A  
HETATM   13  C   UNL     1     -11.638  15.984  70.941  1.00  0.00    -0.418 A  
HETATM   14  C   UNL     1     -12.226  14.799  71.368  1.00  0.00    -0.342 A  
HETATM   15  O   UNL     1     -11.424  16.963  71.871  1.00  0.00    -0.399 OA 
HETATM   16  H   UNL     1     -11.672  16.852  72.781  1.00  0.00     0.000 HD 
HETATM   17  O   UNL     1     -12.570  14.642  72.679  1.00  0.00    -0.347 OA 
HETATM   18  C   UNL     1     -12.465  13.765  70.476  1.00  0.00    -0.409 A  
HETATM   19  C   UNL     1     -12.092  13.914  69.136  1.00  0.00    -0.377 A  
HETATM   20  H   UNL     1     -12.972  13.832  72.971  1.00  0.00     0.000 HD 
ENDBRANCH   8  11
ENDBRANCH   4   8
TORSDOF 2
ENDMDL
MODEL       77
REMARK 921   NORMALIZED FREE ENERGY PREDICTED BY IDOCK:   -4.98 KCAL/MOL
REMARK 922        TOTAL FREE ENERGY PREDICTED BY IDOCK:   -5.83 KCAL/MOL
REMARK 923 INTER-LIGAND FREE ENERGY PREDICTED BY IDOCK:   -5.59 KCAL/MOL
REMARK 924 INTRA-LIGAND FREE ENERGY PREDICTED BY IDOCK:   -0.24 KCAL/MOL
REMARK 927      BINDING AFFINITY PREDICTED BY RF-SCORE:    0.00 PKD
ROOT
HETATM    1  N   UNL     1      -8.062  11.867  68.766  1.00  0.00    -0.325 NA 
HETATM    2  H1  UNL     1      -8.934  11.338  68.738  1.00  0.00     0.000 HD 
HETATM    3  H2  UNL     1      -7.770  12.099  69.715  1.00  0.00     0.000 HD 
HETATM    4  CA  UNL     1      -8.236  13.084  67.891  1.00  0.00    -0.166 C  
HETATM    5  OXT UNL     1      -6.681  14.864  67.257  1.00  0.00    -0.277 OA 
HETATM    6  C   UNL     1      -6.925  13.879  67.934  1.00  0.00    -0.160 C  
HETATM    7  O   UNL     1      -6.042  13.336  68.815  1.00  0.00    -0.078 OA 
ENDROOT
BRANCH   4   8
HETATM    8  C   UNL     1      -9.401  14.039  68.272  1.00  0.00    -0.208 C  
HETATM    9  O   UNL     1     -10.402  13.338  69.018  1.00  0.00    -0.416 OA 
HETATM   10  H   UNL     1     -11.114  13.922  69.252  1.00  0.00     0.000 HD 
BRANCH   8  11
HETATM   11  C   UNL     1     -10.055  14.652  67.043  1.00  0.00    -0.249 A  
HETATM   12  C   UNL     1     -10.653  13.841  66.058  1.00  0.00    -0.290 A  
HETATM   13  C   UNL     1     -11.190  14.417  64.914  1.00  0.00    -0.389 A  
HETATM   14  C   UNL     1     -11.153  15.796  64.740  1.00  0.00    -0.400 A  
HETATM   15  O   UNL     1     -11.755  13.662  63.924  1.00  0.00    -0.573 OA 
HETATM   16  H   UNL     1     -12.122  14.056  63.142  1.00  0.00     0.000 HD 
HETATM   17  O   UNL     1     -11.672  16.354  63.608  1.00  0.00    -1.520 OA 
HETATM   18  C   UNL     1     -10.588  16.617  65.705  1.00  0.00    -0.282 A  
HETATM   19  C   UNL     1     -10.035  16.045  66.855  1.00  0.00    -0.255 A  
HETATM   20  H   UNL     1     -11.647  17.296  63.489  1.00  0.00     0.000 HD 
ENDBRANCH   8  11
ENDBRANCH   4   8
TORSDOF 2
ENDMDL
MODEL       78
REMARK 921   NORMALIZED FREE ENERGY PREDICTED BY IDOCK:   -4.97 KCAL/MOL
REMARK 922        TOTAL FREE ENERGY PREDICTED BY IDOCK:   -5.82 KCAL/MOL
REMARK 923 INTER-LIGAND FREE ENERGY PREDICTED BY IDOCK:   -5.59 KCAL/MOL
REMARK 924 INTRA-LIGAND FREE ENERGY PREDICTED BY IDOCK:   -0.23 KCAL/MOL
REMARK 927      BINDING AFFINITY PREDICTED BY RF-SCORE:    0.00 PKD
ROOT
HETATM    1  N   UNL     1      -8.787  11.154  68.068  1.00  0.00    -0.137 NA 
HETATM    2  H1  UNL     1      -9.609  11.510  67.580  1.00  0.00     0.000 HD 
HETATM    3  H2  UNL     1      -8.195  10.573  67.474  1.00  0.00     0.000 HD 
HETATM    4  CA  UNL     1      -9.264  10.434  69.305  1.00  0.00    -0.184 C  
HETATM    5  OXT UNL     1      -8.042   9.357  71.131  1.00  0.00    -0.322 OA 
HETATM    6  C   UNL     1      -8.028   9.898  70.038  1.00  0.00    -0.180 C  
HETATM    7  O   UNL     1      -6.891  10.118  69.324  1.00  0.00    -0.054 OA 
ENDROOT
BRANCH   4   8
HETATM    8  C   UNL     1     -10.246   9.254  69.073  1.00  0.00    -0.206 C  
HETATM    9  O   UNL     1     -10.977   9.440  67.856  1.00  0.00    -0.471 OA 
HETATM   10  H   UNL     1     -11.578   8.718  67.713  1.00  0.00     0.000 HD 
BRANCH   8  11
HETATM   11  C   UNL     1     -11.240   9.110  70.216  1.00  0.00    -0.249 A  
HETATM   12  C   UNL     1     -11.587   7.841  70.720  1.00  0.00    -0.270 A  
HETATM   13  C   UNL     1     -12.542   7.729  71.723  1.00  0.00    -0.329 A  
HETATM   14  C   UNL     1     -13.150   8.866  72.243  1.00  0.00    -0.436 A  
HETATM   15  O   UNL     1     -12.925   6.514  72.220  1.00  0.00    -0.554 OA 
HETATM   16  H   UNL     1     -13.578   6.437  72.905  1.00  0.00     0.000 HD 
HETATM   17  O   UNL     1     -14.096   8.747  73.219  1.00  0.00    -1.180 OA 
HETATM   18  C   UNL     1     -12.810  10.127  71.777  1.00  0.00    -0.554 A  
HETATM   19  C   UNL     1     -11.858  10.250  70.760  1.00  0.00    -0.459 A  
HETATM   20  H   UNL     1     -14.511   9.524  73.575  1.00  0.00     0.000 HD 
ENDBRANCH   8  11
ENDBRANCH   4   8
TORSDOF 2
ENDMDL
MODEL       79
REMARK 921   NORMALIZED FREE ENERGY PREDICTED BY IDOCK:   -4.95 KCAL/MOL
REMARK 922        TOTAL FREE ENERGY PREDICTED BY IDOCK:   -5.79 KCAL/MOL
REMARK 923 INTER-LIGAND FREE ENERGY PREDICTED BY IDOCK:   -5.50 KCAL/MOL
REMARK 924 INTRA-LIGAND FREE ENERGY PREDICTED BY IDOCK:   -0.29 KCAL/MOL
REMARK 927      BINDING AFFINITY PREDICTED BY RF-SCORE:    0.00 PKD
ROOT
HETATM    1  N   UNL     1     -12.909  12.271  64.425  1.00  0.00    -0.707 NA 
HETATM    2  H1  UNL     1     -12.588  11.372  64.065  1.00  0.00     0.000 HD 
HETATM    3  H2  UNL     1     -12.994  12.981  63.697  1.00  0.00     0.000 HD 
HETATM    4  CA  UNL     1     -11.974  12.679  65.537  1.00  0.00    -0.456 C  
HETATM    5  OXT UNL     1     -11.993  14.602  67.051  1.00  0.00    -0.382 OA 
HETATM    6  C   UNL     1     -12.456  14.031  66.077  1.00  0.00    -0.455 C  
HETATM    7  O   UNL     1     -13.492  14.520  65.343  1.00  0.00    -0.379 OA 
ENDROOT
BRANCH   4   8
HETATM    8  C   UNL     1     -10.474  12.810  65.155  1.00  0.00    -0.300 C  
HETATM    9  O   UNL     1     -10.284  13.876  64.219  1.00  0.00    -0.694 OA 
HETATM   10  H   UNL     1      -9.366  13.956  63.986  1.00  0.00     0.000 HD 
BRANCH   8  11
HETATM   11  C   UNL     1      -9.931  11.527  64.544  1.00  0.00    -0.306 A  
HETATM   12  C   UNL     1      -9.662  10.399  65.345  1.00  0.00    -0.325 A  
HETATM   13  C   UNL     1      -9.109   9.258  64.778  1.00  0.00    -0.144 A  
HETATM   14  C   UNL     1      -8.831   9.217  63.416  1.00  0.00    -0.126 A  
HETATM   15  O   UNL     1      -8.809   8.154  65.525  1.00  0.00    -0.281 OA 
HETATM   16  H   UNL     1      -8.431   7.374  65.137  1.00  0.00     0.000 HD 
HETATM   17  O   UNL     1      -8.277   8.098  62.867  1.00  0.00    -0.249 OA 
HETATM   18  C   UNL     1      -9.106  10.307  62.603  1.00  0.00    -0.299 A  
HETATM   19  C   UNL     1      -9.652  11.464  63.168  1.00  0.00    -0.398 A  
HETATM   20  H   UNL     1      -8.086   8.070  61.937  1.00  0.00     0.000 HD 
ENDBRANCH   8  11
ENDBRANCH   4   8
TORSDOF 2
ENDMDL
MODEL       80
REMARK 921   NORMALIZED FREE ENERGY PREDICTED BY IDOCK:   -4.94 KCAL/MOL
REMARK 922        TOTAL FREE ENERGY PREDICTED BY IDOCK:   -5.79 KCAL/MOL
REMARK 923 INTER-LIGAND FREE ENERGY PREDICTED BY IDOCK:   -5.57 KCAL/MOL
REMARK 924 INTRA-LIGAND FREE ENERGY PREDICTED BY IDOCK:   -0.22 KCAL/MOL
REMARK 927      BINDING AFFINITY PREDICTED BY RF-SCORE:    0.00 PKD
ROOT
HETATM    1  N   UNL     1      -9.883  14.867  67.092  1.00  0.00    -0.229 NA 
HETATM    2  H1  UNL     1     -10.039  13.922  67.444  1.00  0.00     0.000 HD 
HETATM    3  H2  UNL     1      -8.893  15.092  66.989  1.00  0.00     0.000 HD 
HETATM    4  CA  UNL     1     -10.610  15.823  68.004  1.00  0.00    -0.279 C  
HETATM    5  OXT UNL     1     -10.905  18.251  67.911  1.00  0.00    -0.363 OA 
HETATM    6  C   UNL     1     -10.375  17.243  67.474  1.00  0.00    -0.346 C  
HETATM    7  O   UNL     1      -9.505  17.246  66.428  1.00  0.00    -0.258 OA 
ENDROOT
BRANCH   4   8
HETATM    8  C   UNL     1     -10.200  15.784  69.502  1.00  0.00    -0.271 C  
HETATM    9  O   UNL     1      -8.964  15.081  69.667  1.00  0.00    -0.430 OA 
HETATM   10  H   UNL     1      -8.713  15.057  70.583  1.00  0.00     0.000 HD 
BRANCH   8  11
HETATM   11  C   UNL     1     -11.259  15.109  70.362  1.00  0.00    -0.310 A  
HETATM   12  C   UNL     1     -11.604  15.626  71.626  1.00  0.00    -0.519 A  
HETATM   13  C   UNL     1     -12.528  14.960  72.421  1.00  0.00    -0.343 A  
HETATM   14  C   UNL     1     -13.127  13.789  71.969  1.00  0.00    -0.396 A  
HETATM   15  O   UNL     1     -12.869  15.415  73.664  1.00  0.00    -0.496 OA 
HETATM   16  H   UNL     1     -13.501  14.959  74.208  1.00  0.00     0.000 HD 
HETATM   17  O   UNL     1     -14.025  13.135  72.760  1.00  0.00    -0.743 OA 
HETATM   18  C   UNL     1     -12.819  13.272  70.720  1.00  0.00    -0.194 A  
HETATM   19  C   UNL     1     -11.881  13.930  69.917  1.00  0.00    -0.394 A  
HETATM   20  H   UNL     1     -14.434  12.335  72.452  1.00  0.00     0.000 HD 
ENDBRANCH   8  11
ENDBRANCH   4   8
TORSDOF 2
ENDMDL
MODEL       81
REMARK 921   NORMALIZED FREE ENERGY PREDICTED BY IDOCK:   -4.92 KCAL/MOL
REMARK 922        TOTAL FREE ENERGY PREDICTED BY IDOCK:   -5.76 KCAL/MOL
REMARK 923 INTER-LIGAND FREE ENERGY PREDICTED BY IDOCK:   -5.51 KCAL/MOL
REMARK 924 INTRA-LIGAND FREE ENERGY PREDICTED BY IDOCK:   -0.25 KCAL/MOL
REMARK 927      BINDING AFFINITY PREDICTED BY RF-SCORE:    0.00 PKD
ROOT
HETATM    1  N   UNL     1     -10.130   8.953  66.040  1.00  0.00    -0.416 NA 
HETATM    2  H1  UNL     1     -10.833   9.180  66.743  1.00  0.00     0.000 HD 
HETATM    3  H2  UNL     1      -9.246   8.647  66.448  1.00  0.00     0.000 HD 
HETATM    4  CA  UNL     1      -9.976  10.153  65.139  1.00  0.00    -0.309 C  
HETATM    5  OXT UNL     1      -8.623  10.518  63.133  1.00  0.00    -0.171 OA 
HETATM    6  C   UNL     1      -8.918   9.812  64.083  1.00  0.00    -0.239 C  
HETATM    7  O   UNL     1      -8.351   8.598  64.321  1.00  0.00    -0.165 OA 
ENDROOT
BRANCH   4   8
HETATM    8  C   UNL     1      -9.564  11.480  65.835  1.00  0.00    -0.230 C  
HETATM    9  O   UNL     1      -9.851  11.424  67.236  1.00  0.00    -0.187 OA 
HETATM   10  H   UNL     1      -9.599  12.235  67.662  1.00  0.00     0.000 HD 
BRANCH   8  11
HETATM   11  C   UNL     1     -10.288  12.679  65.241  1.00  0.00    -0.309 A  
HETATM   12  C   UNL     1      -9.857  13.993  65.509  1.00  0.00    -0.229 A  
HETATM   13  C   UNL     1     -10.568  15.076  65.007  1.00  0.00    -0.412 A  
HETATM   14  C   UNL     1     -11.701  14.869  64.228  1.00  0.00    -0.247 A  
HETATM   15  O   UNL     1     -10.197  16.365  65.267  1.00  0.00    -0.575 OA 
HETATM   16  H   UNL     1     -10.683  17.105  64.924  1.00  0.00     0.000 HD 
HETATM   17  O   UNL     1     -12.401  15.937  63.748  1.00  0.00    -1.121 OA 
HETATM   18  C   UNL     1     -12.134  13.585  63.933  1.00  0.00    -0.493 A  
HETATM   19  C   UNL     1     -11.430  12.489  64.443  1.00  0.00    -0.406 A  
HETATM   20  H   UNL     1     -13.175  15.796  63.216  1.00  0.00     0.000 HD 
ENDBRANCH   8  11
ENDBRANCH   4   8
TORSDOF 2
ENDMDL
MODEL       82
REMARK 921   NORMALIZED FREE ENERGY PREDICTED BY IDOCK:   -4.91 KCAL/MOL
REMARK 922        TOTAL FREE ENERGY PREDICTED BY IDOCK:   -5.75 KCAL/MOL
REMARK 923 INTER-LIGAND FREE ENERGY PREDICTED BY IDOCK:   -5.51 KCAL/MOL
REMARK 924 INTRA-LIGAND FREE ENERGY PREDICTED BY IDOCK:   -0.24 KCAL/MOL
REMARK 927      BINDING AFFINITY PREDICTED BY RF-SCORE:    0.00 PKD
ROOT
HETATM    1  N   UNL     1      -8.791  11.153  68.066  1.00  0.00    -0.137 NA 
HETATM    2  H1  UNL     1      -9.596  11.528  67.565  1.00  0.00     0.000 HD 
HETATM    3  H2  UNL     1      -8.214  10.541  67.488  1.00  0.00     0.000 HD 
HETATM    4  CA  UNL     1      -9.302  10.471  69.312  1.00  0.00    -0.160 C  
HETATM    5  OXT UNL     1      -8.132   9.386  71.167  1.00  0.00    -0.322 OA 
HETATM    6  C   UNL     1      -8.091   9.907  70.065  1.00  0.00    -0.177 C  
HETATM    7  O   UNL     1      -6.941  10.076  69.357  1.00  0.00    -0.055 OA 
ENDROOT
BRANCH   4   8
HETATM    8  C   UNL     1     -10.322   9.321  69.091  1.00  0.00    -0.211 C  
HETATM    9  O   UNL     1     -11.008   9.489  67.846  1.00  0.00    -0.462 OA 
HETATM   10  H   UNL     1     -11.632   8.785  67.711  1.00  0.00     0.000 HD 
BRANCH   8  11
HETATM   11  C   UNL     1     -11.354   9.257  70.208  1.00  0.00    -0.238 A  
HETATM   12  C   UNL     1     -11.957  10.429  70.705  1.00  0.00    -0.462 A  
HETATM   13  C   UNL     1     -12.851  10.355  71.766  1.00  0.00    -0.456 A  
HETATM   14  C   UNL     1     -13.164   9.125  72.334  1.00  0.00    -0.444 A  
HETATM   15  O   UNL     1     -13.437  11.471  72.294  1.00  0.00    -0.602 OA 
HETATM   16  H   UNL     1     -14.048  11.421  73.019  1.00  0.00     0.000 HD 
HETATM   17  O   UNL     1     -14.034   9.062  73.384  1.00  0.00    -1.220 OA 
HETATM   18  C   UNL     1     -12.599   7.956  71.849  1.00  0.00    -0.348 A  
HETATM   19  C   UNL     1     -11.690   8.021  70.788  1.00  0.00    -0.215 A  
HETATM   20  H   UNL     1     -14.248   8.221  73.772  1.00  0.00     0.000 HD 
ENDBRANCH   8  11
ENDBRANCH   4   8
TORSDOF 2
ENDMDL
MODEL       83
REMARK 921   NORMALIZED FREE ENERGY PREDICTED BY IDOCK:   -4.91 KCAL/MOL
REMARK 922        TOTAL FREE ENERGY PREDICTED BY IDOCK:   -5.75 KCAL/MOL
REMARK 923 INTER-LIGAND FREE ENERGY PREDICTED BY IDOCK:   -5.55 KCAL/MOL
REMARK 924 INTRA-LIGAND FREE ENERGY PREDICTED BY IDOCK:   -0.20 KCAL/MOL
REMARK 927      BINDING AFFINITY PREDICTED BY RF-SCORE:    0.00 PKD
ROOT
HETATM    1  N   UNL     1      -9.385   9.077  62.975  1.00  0.00    -0.331 NA 
HETATM    2  H1  UNL     1     -10.379   9.290  62.888  1.00  0.00     0.000 HD 
HETATM    3  H2  UNL     1      -9.212   8.133  63.323  1.00  0.00     0.000 HD 
HETATM    4  CA  UNL     1      -8.760  10.144  63.839  1.00  0.00    -0.210 C  
HETATM    5  OXT UNL     1      -6.441  10.538  64.513  1.00  0.00    -0.082 OA 
HETATM    6  C   UNL     1      -7.267   9.822  63.970  1.00  0.00    -0.128 C  
HETATM    7  O   UNL     1      -6.960   8.634  63.382  1.00  0.00    -0.089 OA 
ENDROOT
BRANCH   4   8
HETATM    8  C   UNL     1      -9.355  10.305  65.265  1.00  0.00    -0.215 C  
HETATM    9  O   UNL     1      -9.878   9.058  65.735  1.00  0.00    -0.426 OA 
HETATM   10  H   UNL     1     -10.241   9.155  66.607  1.00  0.00     0.000 HD 
BRANCH   8  11
HETATM   11  C   UNL     1     -10.469  11.340  65.301  1.00  0.00    -0.341 A  
HETATM   12  C   UNL     1     -10.930  11.952  64.118  1.00  0.00    -0.430 A  
HETATM   13  C   UNL     1     -11.905  12.939  64.179  1.00  0.00    -0.414 A  
HETATM   14  C   UNL     1     -12.441  13.320  65.404  1.00  0.00    -0.489 A  
HETATM   15  O   UNL     1     -12.359  13.574  63.057  1.00  0.00    -0.970 OA 
HETATM   16  H   UNL     1     -13.025  14.249  63.098  1.00  0.00     0.000 HD 
HETATM   17  O   UNL     1     -13.389  14.299  65.457  1.00  0.00    -0.656 OA 
HETATM   18  C   UNL     1     -12.018  12.719  66.580  1.00  0.00    -0.428 A  
HETATM   19  C   UNL     1     -11.029  11.732  66.530  1.00  0.00    -0.342 A  
HETATM   20  H   UNL     1     -13.756  14.560  66.294  1.00  0.00     0.000 HD 
ENDBRANCH   8  11
ENDBRANCH   4   8
TORSDOF 2
ENDMDL
MODEL       84
REMARK 921   NORMALIZED FREE ENERGY PREDICTED BY IDOCK:   -4.88 KCAL/MOL
REMARK 922        TOTAL FREE ENERGY PREDICTED BY IDOCK:   -5.72 KCAL/MOL
REMARK 923 INTER-LIGAND FREE ENERGY PREDICTED BY IDOCK:   -5.71 KCAL/MOL
REMARK 924 INTRA-LIGAND FREE ENERGY PREDICTED BY IDOCK:   -0.01 KCAL/MOL
REMARK 927      BINDING AFFINITY PREDICTED BY RF-SCORE:    0.00 PKD
ROOT
HETATM    1  N   UNL     1     -11.102   8.117  68.066  1.00  0.00    -0.357 NA 
HETATM    2  H1  UNL     1     -11.868   8.728  67.781  1.00  0.00     0.000 HD 
HETATM    3  H2  UNL     1     -11.324   7.563  68.893  1.00  0.00     0.000 HD 
HETATM    4  CA  UNL     1      -9.873   8.974  68.246  1.00  0.00    -0.166 C  
HETATM    5  OXT UNL     1      -7.561   8.402  68.804  1.00  0.00    -0.096 OA 
HETATM    6  C   UNL     1      -8.723   8.055  68.674  1.00  0.00    -0.131 C  
HETATM    7  O   UNL     1      -9.153   6.780  68.877  1.00  0.00    -0.134 OA 
ENDROOT
BRANCH   4   8
HETATM    8  C   UNL     1      -9.991  10.128  69.280  1.00  0.00    -0.219 C  
HETATM    9  O   UNL     1      -8.724  10.384  69.895  1.00  0.00    -0.381 OA 
HETATM   10  H   UNL     1      -8.795  11.089  70.527  1.00  0.00     0.000 HD 
BRANCH   8  11
HETATM   11  C   UNL     1     -11.002   9.809  70.371  1.00  0.00    -0.371 A  
HETATM   12  C   UNL     1     -10.777   8.760  71.285  1.00  0.00    -0.339 A  
HETATM   13  C   UNL     1     -11.741   8.446  72.235  1.00  0.00    -0.385 A  
HETATM   14  C   UNL     1     -12.925   9.172  72.298  1.00  0.00    -0.420 A  
HETATM   15  O   UNL     1     -11.572   7.419  73.121  1.00  0.00    -0.598 OA 
HETATM   16  H   UNL     1     -12.230   7.204  73.770  1.00  0.00     0.000 HD 
HETATM   17  O   UNL     1     -13.872   8.850  73.226  1.00  0.00    -1.163 OA 
HETATM   18  C   UNL     1     -13.161  10.222  71.423  1.00  0.00    -0.512 A  
HETATM   19  C   UNL     1     -12.201  10.538  70.456  1.00  0.00    -0.435 A  
HETATM   20  H   UNL     1     -14.681   9.346  73.270  1.00  0.00     0.000 HD 
ENDBRANCH   8  11
ENDBRANCH   4   8
TORSDOF 2
ENDMDL
MODEL       85
REMARK 921   NORMALIZED FREE ENERGY PREDICTED BY IDOCK:   -4.88 KCAL/MOL
REMARK 922        TOTAL FREE ENERGY PREDICTED BY IDOCK:   -5.72 KCAL/MOL
REMARK 923 INTER-LIGAND FREE ENERGY PREDICTED BY IDOCK:   -5.37 KCAL/MOL
REMARK 924 INTRA-LIGAND FREE ENERGY PREDICTED BY IDOCK:   -0.34 KCAL/MOL
REMARK 927      BINDING AFFINITY PREDICTED BY RF-SCORE:    0.00 PKD
ROOT
HETATM    1  N   UNL     1     -11.673  10.459  68.255  1.00  0.00    -0.741 NA 
HETATM    2  H1  UNL     1     -11.081  10.158  67.481  1.00  0.00     0.000 HD 
HETATM    3  H2  UNL     1     -12.658  10.531  67.996  1.00  0.00     0.000 HD 
HETATM    4  CA  UNL     1     -11.111  11.754  68.787  1.00  0.00    -0.241 C  
HETATM    5  OXT UNL     1     -11.776  13.160  70.676  1.00  0.00    -0.127 OA 
HETATM    6  C   UNL     1     -12.002  12.206  69.950  1.00  0.00    -0.309 C  
HETATM    7  O   UNL     1     -13.084  11.393  70.094  1.00  0.00     0.151 OA 
ENDROOT
BRANCH   4   8
HETATM    8  C   UNL     1     -11.005  12.922  67.768  1.00  0.00    -0.243 C  
HETATM    9  O   UNL     1     -12.153  13.773  67.856  1.00  0.00    -0.365 OA 
HETATM   10  H   UNL     1     -12.088  14.488  67.233  1.00  0.00     0.000 HD 
BRANCH   8  11
HETATM   11  C   UNL     1     -10.887  12.417  66.338  1.00  0.00    -0.291 A  
HETATM   12  C   UNL     1     -11.962  12.535  65.435  1.00  0.00    -0.492 A  
HETATM   13  C   UNL     1     -11.855  12.012  64.153  1.00  0.00    -0.373 A  
HETATM   14  C   UNL     1     -10.684  11.382  63.748  1.00  0.00    -0.403 A  
HETATM   15  O   UNL     1     -12.885  12.083  63.257  1.00  0.00    -0.771 OA 
HETATM   16  H   UNL     1     -12.812  11.725  62.380  1.00  0.00     0.000 HD 
HETATM   17  O   UNL     1     -10.590  10.860  62.491  1.00  0.00    -0.646 OA 
HETATM   18  C   UNL     1      -9.604  11.272  64.611  1.00  0.00    -0.265 A  
HETATM   19  C   UNL     1      -9.706  11.785  65.908  1.00  0.00    -0.259 A  
HETATM   20  H   UNL     1      -9.789  10.430  62.214  1.00  0.00     0.000 HD 
ENDBRANCH   8  11
ENDBRANCH   4   8
TORSDOF 2
ENDMDL
MODEL       86
REMARK 921   NORMALIZED FREE ENERGY PREDICTED BY IDOCK:   -4.84 KCAL/MOL
REMARK 922        TOTAL FREE ENERGY PREDICTED BY IDOCK:   -5.67 KCAL/MOL
REMARK 923 INTER-LIGAND FREE ENERGY PREDICTED BY IDOCK:   -5.46 KCAL/MOL
REMARK 924 INTRA-LIGAND FREE ENERGY PREDICTED BY IDOCK:   -0.21 KCAL/MOL
REMARK 927      BINDING AFFINITY PREDICTED BY RF-SCORE:    0.00 PKD
ROOT
HETATM    1  N   UNL     1      -8.101  13.450  66.754  1.00  0.00    -0.381 NA 
HETATM    2  H1  UNL     1      -8.494  13.320  65.821  1.00  0.00     0.000 HD 
HETATM    3  H2  UNL     1      -8.462  12.779  67.433  1.00  0.00     0.000 HD 
HETATM    4  CA  UNL     1      -8.342  14.883  67.159  1.00  0.00    -0.221 C  
HETATM    5  OXT UNL     1      -7.678  16.143  69.149  1.00  0.00    -0.216 OA 
HETATM    6  C   UNL     1      -7.752  15.076  68.561  1.00  0.00    -0.121 C  
HETATM    7  O   UNL     1      -7.292  13.903  69.075  1.00  0.00    -0.111 OA 
ENDROOT
BRANCH   4   8
HETATM    8  C   UNL     1      -9.825  15.345  67.183  1.00  0.00    -0.221 C  
HETATM    9  O   UNL     1     -10.326  15.360  68.525  1.00  0.00    -0.219 OA 
HETATM   10  H   UNL     1     -11.233  15.643  68.540  1.00  0.00     0.000 HD 
BRANCH   8  11
HETATM   11  C   UNL     1     -10.715  14.439  66.346  1.00  0.00    -0.306 A  
HETATM   12  C   UNL     1     -11.068  14.787  65.027  1.00  0.00    -0.412 A  
HETATM   13  C   UNL     1     -11.931  13.976  64.300  1.00  0.00    -0.435 A  
HETATM   14  C   UNL     1     -12.440  12.812  64.864  1.00  0.00    -0.497 A  
HETATM   15  O   UNL     1     -12.318  14.293  63.028  1.00  0.00    -0.967 OA 
HETATM   16  H   UNL     1     -12.908  13.739  62.532  1.00  0.00     0.000 HD 
HETATM   17  O   UNL     1     -13.296  12.026  64.149  1.00  0.00    -0.725 OA 
HETATM   18  C   UNL     1     -12.091  12.437  66.153  1.00  0.00    -0.295 A  
HETATM   19  C   UNL     1     -11.232  13.253  66.896  1.00  0.00    -0.332 A  
HETATM   20  H   UNL     1     -13.644  11.230  64.535  1.00  0.00     0.000 HD 
ENDBRANCH   8  11
ENDBRANCH   4   8
TORSDOF 2
ENDMDL
MODEL       87
REMARK 921   NORMALIZED FREE ENERGY PREDICTED BY IDOCK:   -4.82 KCAL/MOL
REMARK 922        TOTAL FREE ENERGY PREDICTED BY IDOCK:   -5.66 KCAL/MOL
REMARK 923 INTER-LIGAND FREE ENERGY PREDICTED BY IDOCK:   -5.43 KCAL/MOL
REMARK 924 INTRA-LIGAND FREE ENERGY PREDICTED BY IDOCK:   -0.23 KCAL/MOL
REMARK 927      BINDING AFFINITY PREDICTED BY RF-SCORE:    0.00 PKD
ROOT
HETATM    1  N   UNL     1     -10.730  18.948  65.385  1.00  0.00    -0.497 NA 
HETATM    2  H1  UNL     1     -11.006  18.194  64.756  1.00  0.00     0.000 HD 
HETATM    3  H2  UNL     1      -9.932  19.482  65.037  1.00  0.00     0.000 HD 
HETATM    4  CA  UNL     1     -10.483  18.345  66.745  1.00  0.00    -0.385 C  
HETATM    5  OXT UNL     1      -9.896  19.362  68.892  1.00  0.00    -0.424 OA 
HETATM    6  C   UNL     1     -10.068  19.479  67.690  1.00  0.00    -0.408 C  
HETATM    7  O   UNL     1      -9.931  20.657  67.024  1.00  0.00    -0.441 OA 
ENDROOT
BRANCH   4   8
HETATM    8  C   UNL     1      -9.404  17.230  66.813  1.00  0.00    -0.259 C  
HETATM    9  O   UNL     1      -8.360  17.481  65.865  1.00  0.00    -0.538 OA 
HETATM   10  H   UNL     1      -7.700  16.800  65.907  1.00  0.00     0.000 HD 
BRANCH   8  11
HETATM   11  C   UNL     1      -9.991  15.855  66.531  1.00  0.00    -0.286 A  
HETATM   12  C   UNL     1     -10.381  15.003  67.584  1.00  0.00    -0.243 A  
HETATM   13  C   UNL     1     -10.858  13.728  67.307  1.00  0.00    -0.285 A  
HETATM   14  C   UNL     1     -10.965  13.290  65.992  1.00  0.00    -0.279 A  
HETATM   15  O   UNL     1     -11.222  12.863  68.301  1.00  0.00    -0.237 OA 
HETATM   16  H   UNL     1     -11.547  11.991  68.112  1.00  0.00     0.000 HD 
HETATM   17  O   UNL     1     -11.423  12.032  65.728  1.00  0.00    -0.343 OA 
HETATM   18  C   UNL     1     -10.607  14.117  64.938  1.00  0.00    -0.449 A  
HETATM   19  C   UNL     1     -10.115  15.399  65.207  1.00  0.00    -0.354 A  
HETATM   20  H   UNL     1     -11.497  11.733  64.830  1.00  0.00     0.000 HD 
ENDBRANCH   8  11
ENDBRANCH   4   8
TORSDOF 2
ENDMDL
MODEL       88
REMARK 921   NORMALIZED FREE ENERGY PREDICTED BY IDOCK:   -4.80 KCAL/MOL
REMARK 922        TOTAL FREE ENERGY PREDICTED BY IDOCK:   -5.63 KCAL/MOL
REMARK 923 INTER-LIGAND FREE ENERGY PREDICTED BY IDOCK:   -5.30 KCAL/MOL
REMARK 924 INTRA-LIGAND FREE ENERGY PREDICTED BY IDOCK:   -0.34 KCAL/MOL
REMARK 927      BINDING AFFINITY PREDICTED BY RF-SCORE:    0.00 PKD
ROOT
HETATM    1  N   UNL     1      -9.963   8.619  72.439  1.00  0.00    -0.288 NA 
HETATM    2  H1  UNL     1     -10.221   9.592  72.605  1.00  0.00     0.000 HD 
HETATM    3  H2  UNL     1      -9.448   8.489  71.568  1.00  0.00     0.000 HD 
HETATM    4  CA  UNL     1     -11.223   7.792  72.505  1.00  0.00    -0.363 C  
HETATM    5  OXT UNL     1     -11.593   5.379  72.343  1.00  0.00    -0.213 OA 
HETATM    6  C   UNL     1     -10.834   6.330  72.255  1.00  0.00    -0.240 C  
HETATM    7  O   UNL     1      -9.516   6.212  71.939  1.00  0.00    -0.151 OA 
ENDROOT
BRANCH   4   8
HETATM    8  C   UNL     1     -12.347   8.179  71.505  1.00  0.00    -0.306 C  
HETATM    9  O   UNL     1     -12.150   7.522  70.248  1.00  0.00    -0.502 OA 
HETATM   10  H   UNL     1     -12.838   7.758  69.637  1.00  0.00     0.000 HD 
BRANCH   8  11
HETATM   11  C   UNL     1     -12.399   9.680  71.264  1.00  0.00    -0.449 A  
HETATM   12  C   UNL     1     -13.148  10.525  72.107  1.00  0.00    -0.413 A  
HETATM   13  C   UNL     1     -13.231  11.884  71.833  1.00  0.00    -0.362 A  
HETATM   14  C   UNL     1     -12.568  12.420  70.735  1.00  0.00    -0.211 A  
HETATM   15  O   UNL     1     -13.969  12.732  72.611  1.00  0.00    -0.702 OA 
HETATM   16  H   UNL     1     -14.026  13.661  72.424  1.00  0.00     0.000 HD 
HETATM   17  O   UNL     1     -12.664  13.754  70.465  1.00  0.00    -0.298 OA 
HETATM   18  C   UNL     1     -11.808  11.612  69.903  1.00  0.00    -0.434 A  
HETATM   19  C   UNL     1     -11.726  10.241  70.164  1.00  0.00    -0.364 A  
HETATM   20  H   UNL     1     -12.210  14.121  69.715  1.00  0.00     0.000 HD 
ENDBRANCH   8  11
ENDBRANCH   4   8
TORSDOF 2
ENDMDL
MODEL       89
REMARK 921   NORMALIZED FREE ENERGY PREDICTED BY IDOCK:   -4.79 KCAL/MOL
REMARK 922        TOTAL FREE ENERGY PREDICTED BY IDOCK:   -5.62 KCAL/MOL
REMARK 923 INTER-LIGAND FREE ENERGY PREDICTED BY IDOCK:   -5.23 KCAL/MOL
REMARK 924 INTRA-LIGAND FREE ENERGY PREDICTED BY IDOCK:   -0.39 KCAL/MOL
REMARK 927      BINDING AFFINITY PREDICTED BY RF-SCORE:    0.00 PKD
ROOT
HETATM    1  N   UNL     1     -10.610  16.530  69.292  1.00  0.00    -0.309 NA 
HETATM    2  H1  UNL     1     -10.363  17.519  69.241  1.00  0.00     0.000 HD 
HETATM    3  H2  UNL     1      -9.815  15.935  69.526  1.00  0.00     0.000 HD 
HETATM    4  CA  UNL     1     -11.262  16.152  67.985  1.00  0.00    -0.291 C  
HETATM    5  OXT UNL     1     -12.271  14.058  67.219  1.00  0.00    -0.405 OA 
HETATM    6  C   UNL     1     -11.633  14.666  68.063  1.00  0.00    -0.340 C  
HETATM    7  O   UNL     1     -11.177  14.098  69.212  1.00  0.00    -0.255 OA 
ENDROOT
BRANCH   4   8
HETATM    8  C   UNL     1     -10.411  16.379  66.706  1.00  0.00    -0.293 C  
HETATM    9  O   UNL     1      -9.460  15.321  66.539  1.00  0.00    -0.245 OA 
HETATM   10  H   UNL     1      -8.940  15.460  65.757  1.00  0.00     0.000 HD 
BRANCH   8  11
HETATM   11  C   UNL     1      -9.660  17.701  66.753  1.00  0.00    -0.297 A  
HETATM   12  C   UNL     1      -8.278  17.741  67.024  1.00  0.00    -0.239 A  
HETATM   13  C   UNL     1      -7.623  18.963  67.123  1.00  0.00    -0.229 A  
HETATM   14  C   UNL     1      -8.324  20.150  66.943  1.00  0.00    -0.315 A  
HETATM   15  O   UNL     1      -6.289  19.044  67.411  1.00  0.00    -0.181 OA 
HETATM   16  H   UNL     1      -5.842  19.879  67.479  1.00  0.00     0.000 HD 
HETATM   17  O   UNL     1      -7.677  21.346  67.054  1.00  0.00    -0.772 OA 
HETATM   18  C   UNL     1      -9.680  20.136  66.655  1.00  0.00    -0.568 A  
HETATM   19  C   UNL     1     -10.350  18.911  66.564  1.00  0.00    -0.493 A  
HETATM   20  H   UNL     1      -8.155  22.157  66.930  1.00  0.00     0.000 HD 
ENDBRANCH   8  11
ENDBRANCH   4   8
TORSDOF 2
ENDMDL
MODEL       90
REMARK 921   NORMALIZED FREE ENERGY PREDICTED BY IDOCK:   -4.79 KCAL/MOL
REMARK 922        TOTAL FREE ENERGY PREDICTED BY IDOCK:   -5.62 KCAL/MOL
REMARK 923 INTER-LIGAND FREE ENERGY PREDICTED BY IDOCK:   -5.36 KCAL/MOL
REMARK 924 INTRA-LIGAND FREE ENERGY PREDICTED BY IDOCK:   -0.26 KCAL/MOL
REMARK 927      BINDING AFFINITY PREDICTED BY RF-SCORE:    0.00 PKD
ROOT
HETATM    1  N   UNL     1      -9.020  13.421  68.787  1.00  0.00    -0.388 NA 
HETATM    2  H1  UNL     1      -9.160  12.504  69.212  1.00  0.00     0.000 HD 
HETATM    3  H2  UNL     1      -9.359  14.184  69.373  1.00  0.00     0.000 HD 
HETATM    4  CA  UNL     1      -9.665  13.399  67.423  1.00  0.00    -0.221 C  
HETATM    5  OXT UNL     1      -9.757  15.074  65.642  1.00  0.00    -0.339 OA 
HETATM    6  C   UNL     1      -9.456  14.778  66.786  1.00  0.00    -0.254 C  
HETATM    7  O   UNL     1      -8.865  15.643  67.654  1.00  0.00    -0.172 OA 
ENDROOT
BRANCH   4   8
HETATM    8  C   UNL     1     -11.183  13.069  67.390  1.00  0.00    -0.288 C  
HETATM    9  O   UNL     1     -11.945  14.235  67.061  1.00  0.00    -0.414 OA 
HETATM   10  H   UNL     1     -12.873  14.033  67.041  1.00  0.00     0.000 HD 
BRANCH   8  11
HETATM   11  C   UNL     1     -11.674  12.531  68.726  1.00  0.00    -0.371 A  
HETATM   12  C   UNL     1     -11.738  11.144  68.970  1.00  0.00    -0.408 A  
HETATM   13  C   UNL     1     -12.248  10.673  70.173  1.00  0.00    -0.320 A  
HETATM   14  C   UNL     1     -12.685  11.564  71.147  1.00  0.00    -0.356 A  
HETATM   15  O   UNL     1     -12.350   9.336  70.438  1.00  0.00    -0.479 OA 
HETATM   16  H   UNL     1     -12.699   9.013  71.260  1.00  0.00     0.000 HD 
HETATM   17  O   UNL     1     -13.196  11.094  72.321  1.00  0.00    -0.616 OA 
HETATM   18  C   UNL     1     -12.614  12.933  70.938  1.00  0.00    -0.355 A  
HETATM   19  C   UNL     1     -12.112  13.417  69.725  1.00  0.00    -0.374 A  
HETATM   20  H   UNL     1     -13.495  11.702  72.986  1.00  0.00     0.000 HD 
ENDBRANCH   8  11
ENDBRANCH   4   8
TORSDOF 2
ENDMDL
MODEL       91
REMARK 921   NORMALIZED FREE ENERGY PREDICTED BY IDOCK:   -4.78 KCAL/MOL
REMARK 922        TOTAL FREE ENERGY PREDICTED BY IDOCK:   -5.61 KCAL/MOL
REMARK 923 INTER-LIGAND FREE ENERGY PREDICTED BY IDOCK:   -5.27 KCAL/MOL
REMARK 924 INTRA-LIGAND FREE ENERGY PREDICTED BY IDOCK:   -0.34 KCAL/MOL
REMARK 927      BINDING AFFINITY PREDICTED BY RF-SCORE:    0.00 PKD
ROOT
HETATM    1  N   UNL     1      -9.464  14.123  65.556  1.00  0.00    -0.519 NA 
HETATM    2  H1  UNL     1      -8.830  13.325  65.602  1.00  0.00     0.000 HD 
HETATM    3  H2  UNL     1      -9.771  14.438  66.476  1.00  0.00     0.000 HD 
HETATM    4  CA  UNL     1     -10.611  13.746  64.652  1.00  0.00    -0.425 C  
HETATM    5  OXT UNL     1     -12.542  15.023  63.858  1.00  0.00    -0.813 OA 
HETATM    6  C   UNL     1     -11.564  14.945  64.583  1.00  0.00    -0.395 C  
HETATM    7  O   UNL     1     -11.174  15.940  65.426  1.00  0.00    -0.224 OA 
ENDROOT
BRANCH   4   8
HETATM    8  C   UNL     1     -11.428  12.493  65.071  1.00  0.00    -0.326 C  
HETATM    9  O   UNL     1     -12.316  12.809  66.149  1.00  0.00    -0.542 OA 
HETATM   10  H   UNL     1     -12.817  12.043  66.405  1.00  0.00     0.000 HD 
BRANCH   8  11
HETATM   11  C   UNL     1     -10.526  11.349  65.508  1.00  0.00    -0.322 A  
HETATM   12  C   UNL     1      -9.937  10.487  64.562  1.00  0.00    -0.413 A  
HETATM   13  C   UNL     1      -9.167   9.412  64.984  1.00  0.00    -0.218 A  
HETATM   14  C   UNL     1      -8.962   9.186  66.341  1.00  0.00    -0.149 A  
HETATM   15  O   UNL     1      -8.600   8.538  64.098  1.00  0.00    -0.371 OA 
HETATM   16  H   UNL     1      -8.073   7.803  64.387  1.00  0.00     0.000 HD 
HETATM   17  O   UNL     1      -8.214   8.121  66.749  1.00  0.00    -0.104 OA 
HETATM   18  C   UNL     1      -9.514  10.032  67.291  1.00  0.00    -0.179 A  
HETATM   19  C   UNL     1     -10.301  11.111  66.876  1.00  0.00    -0.272 A  
HETATM   20  H   UNL     1      -8.074   7.966  67.676  1.00  0.00     0.000 HD 
ENDBRANCH   8  11
ENDBRANCH   4   8
TORSDOF 2
ENDMDL
MODEL       92
REMARK 921   NORMALIZED FREE ENERGY PREDICTED BY IDOCK:   -4.76 KCAL/MOL
REMARK 922        TOTAL FREE ENERGY PREDICTED BY IDOCK:   -5.58 KCAL/MOL
REMARK 923 INTER-LIGAND FREE ENERGY PREDICTED BY IDOCK:   -5.20 KCAL/MOL
REMARK 924 INTRA-LIGAND FREE ENERGY PREDICTED BY IDOCK:   -0.39 KCAL/MOL
REMARK 927      BINDING AFFINITY PREDICTED BY RF-SCORE:    0.00 PKD
ROOT
HETATM    1  N   UNL     1      -9.133  14.891  67.885  1.00  0.00    -0.179 NA 
HETATM    2  H1  UNL     1      -9.135  14.036  68.441  1.00  0.00     0.000 HD 
HETATM    3  H2  UNL     1      -9.266  15.731  68.449  1.00  0.00     0.000 HD 
HETATM    4  CA  UNL     1     -10.177  14.740  66.806  1.00  0.00    -0.266 C  
HETATM    5  OXT UNL     1     -10.821  16.200  64.951  1.00  0.00    -0.582 OA 
HETATM    6  C   UNL     1     -10.174  16.026  65.971  1.00  0.00    -0.341 C  
HETATM    7  O   UNL     1      -9.335  16.959  66.496  1.00  0.00    -0.246 OA 
ENDROOT
BRANCH   4   8
HETATM    8  C   UNL     1     -11.628  14.473  67.292  1.00  0.00    -0.385 C  
HETATM    9  O   UNL     1     -12.192  15.657  67.865  1.00  0.00    -0.204 OA 
HETATM   10  H   UNL     1     -13.080  15.495  68.161  1.00  0.00     0.000 HD 
BRANCH   8  11
HETATM   11  C   UNL     1     -11.683  13.361  68.328  1.00  0.00    -0.391 A  
HETATM   12  C   UNL     1     -11.427  12.022  67.971  1.00  0.00    -0.392 A  
HETATM   13  C   UNL     1     -11.543  11.014  68.919  1.00  0.00    -0.314 A  
HETATM   14  C   UNL     1     -11.899  11.321  70.228  1.00  0.00    -0.357 A  
HETATM   15  O   UNL     1     -11.329   9.701  68.606  1.00  0.00    -0.480 OA 
HETATM   16  H   UNL     1     -11.408   9.012  69.254  1.00  0.00     0.000 HD 
HETATM   17  O   UNL     1     -12.023  10.324  71.151  1.00  0.00    -0.342 OA 
HETATM   18  C   UNL     1     -12.136  12.633  70.609  1.00  0.00    -0.315 A  
HETATM   19  C   UNL     1     -12.033  13.653  69.658  1.00  0.00    -0.402 A  
HETATM   20  H   UNL     1     -12.266  10.533  72.046  1.00  0.00     0.000 HD 
ENDBRANCH   8  11
ENDBRANCH   4   8
TORSDOF 2
ENDMDL
MODEL       93
REMARK 921   NORMALIZED FREE ENERGY PREDICTED BY IDOCK:   -4.71 KCAL/MOL
REMARK 922        TOTAL FREE ENERGY PREDICTED BY IDOCK:   -5.53 KCAL/MOL
REMARK 923 INTER-LIGAND FREE ENERGY PREDICTED BY IDOCK:   -5.28 KCAL/MOL
REMARK 924 INTRA-LIGAND FREE ENERGY PREDICTED BY IDOCK:   -0.25 KCAL/MOL
REMARK 927      BINDING AFFINITY PREDICTED BY RF-SCORE:    0.00 PKD
ROOT
HETATM    1  N   UNL     1     -10.696  13.611  68.099  1.00  0.00    -0.242 NA 
HETATM    2  H1  UNL     1     -10.031  14.222  68.573  1.00  0.00     0.000 HD 
HETATM    3  H2  UNL     1     -10.293  12.710  67.842  1.00  0.00     0.000 HD 
HETATM    4  CA  UNL     1     -11.249  14.365  66.914  1.00  0.00    -0.334 C  
HETATM    5  OXT UNL     1     -12.958  13.776  65.266  1.00  0.00    -0.731 OA 
HETATM    6  C   UNL     1     -12.248  13.446  66.201  1.00  0.00    -0.415 C  
HETATM    7  O   UNL     1     -12.267  12.204  66.757  1.00  0.00    -0.553 OA 
ENDROOT
BRANCH   4   8
HETATM    8  C   UNL     1     -10.207  14.859  65.873  1.00  0.00    -0.314 C  
HETATM    9  O   UNL     1      -9.119  13.935  65.772  1.00  0.00    -0.428 OA 
HETATM   10  H   UNL     1      -8.482  14.237  65.135  1.00  0.00     0.000 HD 
BRANCH   8  11
HETATM   11  C   UNL     1      -9.648  16.227  66.236  1.00  0.00    -0.336 A  
HETATM   12  C   UNL     1      -8.303  16.381  66.624  1.00  0.00    -0.305 A  
HETATM   13  C   UNL     1      -7.828  17.628  67.011  1.00  0.00    -0.215 A  
HETATM   14  C   UNL     1      -8.673  18.732  67.004  1.00  0.00    -0.283 A  
HETATM   15  O   UNL     1      -6.537  17.813  67.419  1.00  0.00    -0.159 OA 
HETATM   16  H   UNL     1      -6.213  18.666  67.683  1.00  0.00     0.000 HD 
HETATM   17  O   UNL     1      -8.204  19.951  67.397  1.00  0.00    -0.297 OA 
HETATM   18  C   UNL     1      -9.996  18.610  66.607  1.00  0.00    -0.394 A  
HETATM   19  C   UNL     1     -10.486  17.356  66.227  1.00  0.00    -0.276 A  
HETATM   20  H   UNL     1      -8.781  20.706  67.393  1.00  0.00     0.000 HD 
ENDBRANCH   8  11
ENDBRANCH   4   8
TORSDOF 2
ENDMDL
MODEL       94
REMARK 921   NORMALIZED FREE ENERGY PREDICTED BY IDOCK:   -4.71 KCAL/MOL
REMARK 922        TOTAL FREE ENERGY PREDICTED BY IDOCK:   -5.53 KCAL/MOL
REMARK 923 INTER-LIGAND FREE ENERGY PREDICTED BY IDOCK:   -5.26 KCAL/MOL
REMARK 924 INTRA-LIGAND FREE ENERGY PREDICTED BY IDOCK:   -0.27 KCAL/MOL
REMARK 927      BINDING AFFINITY PREDICTED BY RF-SCORE:    0.00 PKD
ROOT
HETATM    1  N   UNL     1      -9.073  12.165  66.741  1.00  0.00    -0.202 NA 
HETATM    2  H1  UNL     1      -9.587  13.003  66.471  1.00  0.00     0.000 HD 
HETATM    3  H2  UNL     1      -9.105  11.434  66.029  1.00  0.00     0.000 HD 
HETATM    4  CA  UNL     1      -9.608  11.708  68.075  1.00  0.00    -0.184 C  
HETATM    5  OXT UNL     1      -8.940   9.876  69.553  1.00  0.00    -0.182 OA 
HETATM    6  C   UNL     1      -8.835  10.446  68.480  1.00  0.00    -0.142 C  
HETATM    7  O   UNL     1      -7.989  10.043  67.494  1.00  0.00    -0.105 OA 
ENDROOT
BRANCH   4   8
HETATM    8  C   UNL     1     -11.128  11.391  68.130  1.00  0.00    -0.248 C  
HETATM    9  O   UNL     1     -11.799  11.947  66.994  1.00  0.00    -0.585 OA 
HETATM   10  H   UNL     1     -12.728  11.753  67.027  1.00  0.00     0.000 HD 
BRANCH   8  11
HETATM   11  C   UNL     1     -11.776  11.939  69.392  1.00  0.00    -0.401 A  
HETATM   12  C   UNL     1     -12.368  11.078  70.337  1.00  0.00    -0.442 A  
HETATM   13  C   UNL     1     -13.009  11.604  71.452  1.00  0.00    -0.324 A  
HETATM   14  C   UNL     1     -13.059  12.979  71.648  1.00  0.00    -0.347 A  
HETATM   15  O   UNL     1     -13.617  10.803  72.378  1.00  0.00    -0.553 OA 
HETATM   16  H   UNL     1     -14.055  11.162  73.140  1.00  0.00     0.000 HD 
HETATM   17  O   UNL     1     -13.700  13.489  72.739  1.00  0.00    -0.710 OA 
HETATM   18  C   UNL     1     -12.466  13.846  70.743  1.00  0.00    -0.445 A  
HETATM   19  C   UNL     1     -11.828  13.327  69.611  1.00  0.00    -0.391 A  
HETATM   20  H   UNL     1     -13.734  14.428  72.874  1.00  0.00     0.000 HD 
ENDBRANCH   8  11
ENDBRANCH   4   8
TORSDOF 2
ENDMDL
MODEL       95
REMARK 921   NORMALIZED FREE ENERGY PREDICTED BY IDOCK:   -4.71 KCAL/MOL
REMARK 922        TOTAL FREE ENERGY PREDICTED BY IDOCK:   -5.52 KCAL/MOL
REMARK 923 INTER-LIGAND FREE ENERGY PREDICTED BY IDOCK:   -5.37 KCAL/MOL
REMARK 924 INTRA-LIGAND FREE ENERGY PREDICTED BY IDOCK:   -0.15 KCAL/MOL
REMARK 927      BINDING AFFINITY PREDICTED BY RF-SCORE:    0.00 PKD
ROOT
HETATM    1  N   UNL     1     -10.094  13.814  64.201  1.00  0.00    -0.655 NA 
HETATM    2  H1  UNL     1      -9.426  14.457  63.777  1.00  0.00     0.000 HD 
HETATM    3  H2  UNL     1     -10.785  13.465  63.537  1.00  0.00     0.000 HD 
HETATM    4  CA  UNL     1     -10.718  14.514  65.383  1.00  0.00    -0.361 C  
HETATM    5  OXT UNL     1     -12.329  13.750  67.060  1.00  0.00    -0.378 OA 
HETATM    6  C   UNL     1     -11.724  13.546  66.020  1.00  0.00    -0.359 C  
HETATM    7  O   UNL     1     -11.848  12.405  65.290  1.00  0.00    -0.379 OA 
ENDROOT
BRANCH   4   8
HETATM    8  C   UNL     1     -11.450  15.850  65.078  1.00  0.00    -0.079 C  
HETATM    9  O   UNL     1     -11.196  16.266  63.732  1.00  0.00    -1.195 OA 
HETATM   10  H   UNL     1     -11.643  17.083  63.545  1.00  0.00     0.000 HD 
BRANCH   8  11
HETATM   11  C   UNL     1     -11.011  16.963  66.018  1.00  0.00     0.141 A  
HETATM   12  C   UNL     1     -10.909  16.742  67.406  1.00  0.00    -0.176 A  
HETATM   13  C   UNL     1     -10.567  17.787  68.254  1.00  0.00    -0.319 A  
HETATM   14  C   UNL     1     -10.311  19.053  67.738  1.00  0.00    -0.417 A  
HETATM   15  O   UNL     1     -10.482  17.619  69.608  1.00  0.00    -0.299 OA 
HETATM   16  H   UNL     1     -10.249  18.334  70.188  1.00  0.00     0.000 HD 
HETATM   17  O   UNL     1      -9.988  20.078  68.578  1.00  0.00    -0.392 OA 
HETATM   18  C   UNL     1     -10.386  19.291  66.374  1.00  0.00    -0.558 A  
HETATM   19  C   UNL     1     -10.741  18.247  65.514  1.00  0.00     0.058 A  
HETATM   20  H   UNL     1      -9.813  20.943  68.226  1.00  0.00     0.000 HD 
ENDBRANCH   8  11
ENDBRANCH   4   8
TORSDOF 2
ENDMDL
MODEL       96
REMARK 921   NORMALIZED FREE ENERGY PREDICTED BY IDOCK:   -4.69 KCAL/MOL
REMARK 922        TOTAL FREE ENERGY PREDICTED BY IDOCK:   -5.51 KCAL/MOL
REMARK 923 INTER-LIGAND FREE ENERGY PREDICTED BY IDOCK:   -5.31 KCAL/MOL
REMARK 924 INTRA-LIGAND FREE ENERGY PREDICTED BY IDOCK:   -0.20 KCAL/MOL
REMARK 927      BINDING AFFINITY PREDICTED BY RF-SCORE:    0.00 PKD
ROOT
HETATM    1  N   UNL     1      -9.666  20.796  67.082  1.00  0.00    -0.652 NA 
HETATM    2  H1  UNL     1      -9.197  21.652  66.784  1.00  0.00     0.000 HD 
HETATM    3  H2  UNL     1      -9.522  20.590  68.071  1.00  0.00     0.000 HD 
HETATM    4  CA  UNL     1      -9.204  19.681  66.177  1.00  0.00    -0.340 C  
HETATM    5  OXT UNL     1      -9.847  17.323  66.047  1.00  0.00    -0.435 OA 
HETATM    6  C   UNL     1      -9.909  18.395  66.627  1.00  0.00    -0.353 C  
HETATM    7  O   UNL     1     -10.641  18.596  67.756  1.00  0.00    -0.406 OA 
ENDROOT
BRANCH   4   8
HETATM    8  C   UNL     1      -7.674  19.416  66.144  1.00  0.00    -0.303 C  
HETATM    9  O   UNL     1      -7.379  18.269  65.341  1.00  0.00    -0.531 OA 
HETATM   10  H   UNL     1      -6.443  18.107  65.320  1.00  0.00     0.000 HD 
BRANCH   8  11
HETATM   11  C   UNL     1      -7.108  19.188  67.538  1.00  0.00    -0.229 A  
HETATM   12  C   UNL     1      -6.756  20.274  68.365  1.00  0.00    -0.316 A  
HETATM   13  C   UNL     1      -6.185  20.044  69.610  1.00  0.00    -0.348 A  
HETATM   14  C   UNL     1      -5.968  18.744  70.052  1.00  0.00    -0.215 A  
HETATM   15  O   UNL     1      -5.806  21.070  70.430  1.00  0.00    -0.453 OA 
HETATM   16  H   UNL     1      -5.414  20.913  71.281  1.00  0.00     0.000 HD 
HETATM   17  O   UNL     1      -5.395  18.525  71.271  1.00  0.00    -0.286 OA 
HETATM   18  C   UNL     1      -6.325  17.659  69.266  1.00  0.00    -0.247 A  
HETATM   19  C   UNL     1      -6.891  17.880  68.006  1.00  0.00    -0.197 A  
HETATM   20  H   UNL     1      -5.248  17.637  71.574  1.00  0.00     0.000 HD 
ENDBRANCH   8  11
ENDBRANCH   4   8
TORSDOF 2
ENDMDL
MODEL       97
REMARK 921   NORMALIZED FREE ENERGY PREDICTED BY IDOCK:   -4.68 KCAL/MOL
REMARK 922        TOTAL FREE ENERGY PREDICTED BY IDOCK:   -5.50 KCAL/MOL
REMARK 923 INTER-LIGAND FREE ENERGY PREDICTED BY IDOCK:   -5.31 KCAL/MOL
REMARK 924 INTRA-LIGAND FREE ENERGY PREDICTED BY IDOCK:   -0.19 KCAL/MOL
REMARK 927      BINDING AFFINITY PREDICTED BY RF-SCORE:    0.00 PKD
ROOT
HETATM    1  N   UNL     1      -8.515  10.162  67.377  1.00  0.00    -0.122 NA 
HETATM    2  H1  UNL     1      -7.630  10.611  67.142  1.00  0.00     0.000 HD 
HETATM    3  H2  UNL     1      -8.992   9.776  66.561  1.00  0.00     0.000 HD 
HETATM    4  CA  UNL     1      -9.356  11.166  68.126  1.00  0.00    -0.176 C  
HETATM    5  OXT UNL     1     -11.558  10.980  69.176  1.00  0.00    -0.266 OA 
HETATM    6  C   UNL     1     -10.686  10.489  68.478  1.00  0.00    -0.224 C  
HETATM    7  O   UNL     1     -10.775   9.247  67.929  1.00  0.00    -0.242 OA 
ENDROOT
BRANCH   4   8
HETATM    8  C   UNL     1      -9.663  12.493  67.380  1.00  0.00    -0.194 C  
HETATM    9  O   UNL     1     -10.321  13.419  68.250  1.00  0.00    -0.236 OA 
HETATM   10  H   UNL     1     -10.508  14.231  67.794  1.00  0.00     0.000 HD 
BRANCH   8  11
HETATM   11  C   UNL     1     -10.543  12.266  66.160  1.00  0.00    -0.281 A  
HETATM   12  C   UNL     1     -10.053  11.586  65.028  1.00  0.00    -0.315 A  
HETATM   13  C   UNL     1     -10.853  11.444  63.901  1.00  0.00    -0.393 A  
HETATM   14  C   UNL     1     -12.145  11.959  63.889  1.00  0.00    -0.401 A  
HETATM   15  O   UNL     1     -10.405  10.814  62.774  1.00  0.00    -0.752 OA 
HETATM   16  H   UNL     1     -10.952  10.717  62.003  1.00  0.00     0.000 HD 
HETATM   17  O   UNL     1     -12.921  11.826  62.775  1.00  0.00    -0.715 OA 
HETATM   18  C   UNL     1     -12.657  12.614  64.999  1.00  0.00    -0.504 A  
HETATM   19  C   UNL     1     -11.855  12.773  66.134  1.00  0.00    -0.484 A  
HETATM   20  H   UNL     1     -13.803  12.178  62.766  1.00  0.00     0.000 HD 
ENDBRANCH   8  11
ENDBRANCH   4   8
TORSDOF 2
ENDMDL
MODEL       98
REMARK 921   NORMALIZED FREE ENERGY PREDICTED BY IDOCK:   -4.65 KCAL/MOL
REMARK 922        TOTAL FREE ENERGY PREDICTED BY IDOCK:   -5.46 KCAL/MOL
REMARK 923 INTER-LIGAND FREE ENERGY PREDICTED BY IDOCK:   -5.36 KCAL/MOL
REMARK 924 INTRA-LIGAND FREE ENERGY PREDICTED BY IDOCK:   -0.11 KCAL/MOL
REMARK 927      BINDING AFFINITY PREDICTED BY RF-SCORE:    0.00 PKD
ROOT
HETATM    1  N   UNL     1      -8.942  12.093  66.872  1.00  0.00    -0.197 NA 
HETATM    2  H1  UNL     1      -8.961  11.094  67.077  1.00  0.00     0.000 HD 
HETATM    3  H2  UNL     1      -9.000  12.671  67.711  1.00  0.00     0.000 HD 
HETATM    4  CA  UNL     1     -10.047  12.380  65.885  1.00  0.00    -0.253 C  
HETATM    5  OXT UNL     1     -10.707  14.438  64.737  1.00  0.00    -0.408 OA 
HETATM    6  C   UNL     1     -10.019  13.882  65.577  1.00  0.00    -0.251 C  
HETATM    7  O   UNL     1      -9.105  14.531  66.348  1.00  0.00    -0.255 OA 
ENDROOT
BRANCH   4   8
HETATM    8  C   UNL     1     -11.483  11.999  66.337  1.00  0.00    -0.353 C  
HETATM    9  O   UNL     1     -12.457  12.580  65.463  1.00  0.00    -0.646 OA 
HETATM   10  H   UNL     1     -13.335  12.347  65.740  1.00  0.00     0.000 HD 
BRANCH   8  11
HETATM   11  C   UNL     1     -11.771  12.461  67.758  1.00  0.00    -0.413 A  
HETATM   12  C   UNL     1     -12.048  13.814  68.038  1.00  0.00    -0.315 A  
HETATM   13  C   UNL     1     -12.248  14.226  69.350  1.00  0.00    -0.278 A  
HETATM   14  C   UNL     1     -12.188  13.305  70.390  1.00  0.00    -0.332 A  
HETATM   15  O   UNL     1     -12.493  15.533  69.666  1.00  0.00    -0.575 OA 
HETATM   16  H   UNL     1     -12.629  15.814  70.562  1.00  0.00     0.000 HD 
HETATM   17  O   UNL     1     -12.372  13.719  71.677  1.00  0.00    -0.269 OA 
HETATM   18  C   UNL     1     -11.937  11.965  70.138  1.00  0.00    -0.413 A  
HETATM   19  C   UNL     1     -11.724  11.543  68.821  1.00  0.00    -0.397 A  
HETATM   20  H   UNL     1     -12.332  13.090  72.388  1.00  0.00     0.000 HD 
ENDBRANCH   8  11
ENDBRANCH   4   8
TORSDOF 2
ENDMDL
MODEL       99
REMARK 921   NORMALIZED FREE ENERGY PREDICTED BY IDOCK:   -4.61 KCAL/MOL
REMARK 922        TOTAL FREE ENERGY PREDICTED BY IDOCK:   -5.42 KCAL/MOL
REMARK 923 INTER-LIGAND FREE ENERGY PREDICTED BY IDOCK:   -5.14 KCAL/MOL
REMARK 924 INTRA-LIGAND FREE ENERGY PREDICTED BY IDOCK:   -0.28 KCAL/MOL
REMARK 927      BINDING AFFINITY PREDICTED BY RF-SCORE:    0.00 PKD
ROOT
HETATM    1  N   UNL     1      -9.747   9.053  71.784  1.00  0.00    -0.293 NA 
HETATM    2  H1  UNL     1      -9.001   9.535  71.282  1.00  0.00     0.000 HD 
HETATM    3  H2  UNL     1      -9.702   8.039  71.683  1.00  0.00     0.000 HD 
HETATM    4  CA  UNL     1     -11.061   9.630  71.318  1.00  0.00    -0.355 C  
HETATM    5  OXT UNL     1     -13.366   9.197  72.016  1.00  0.00    -0.380 OA 
HETATM    6  C   UNL     1     -12.182   8.906  72.072  1.00  0.00    -0.377 C  
HETATM    7  O   UNL     1     -11.693   7.896  72.841  1.00  0.00    -0.350 OA 
ENDROOT
BRANCH   4   8
HETATM    8  C   UNL     1     -11.350   9.529  69.794  1.00  0.00    -0.083 C  
HETATM    9  O   UNL     1     -10.293   8.832  69.127  1.00  0.00    -0.210 OA 
HETATM   10  H   UNL     1     -10.469   8.769  68.196  1.00  0.00     0.000 HD 
BRANCH   8  11
HETATM   11  C   UNL     1     -11.502  10.901  69.155  1.00  0.00    -0.373 A  
HETATM   12  C   UNL     1     -11.833  12.031  69.930  1.00  0.00    -0.405 A  
HETATM   13  C   UNL     1     -12.028  13.262  69.318  1.00  0.00    -0.303 A  
HETATM   14  C   UNL     1     -11.886  13.391  67.941  1.00  0.00    -0.357 A  
HETATM   15  O   UNL     1     -12.376  14.375  70.032  1.00  0.00    -0.326 OA 
HETATM   16  H   UNL     1     -12.509  15.217  69.613  1.00  0.00     0.000 HD 
HETATM   17  O   UNL     1     -12.091  14.601  67.345  1.00  0.00    -0.535 OA 
HETATM   18  C   UNL     1     -11.541  12.298  67.159  1.00  0.00    -0.423 A  
HETATM   19  C   UNL     1     -11.354  11.052  67.765  1.00  0.00    -0.365 A  
HETATM   20  H   UNL     1     -11.994  14.689  66.404  1.00  0.00     0.000 HD 
ENDBRANCH   8  11
ENDBRANCH   4   8
TORSDOF 2
ENDMDL
MODEL      100
REMARK 921   NORMALIZED FREE ENERGY PREDICTED BY IDOCK:   -4.61 KCAL/MOL
REMARK 922        TOTAL FREE ENERGY PREDICTED BY IDOCK:   -5.42 KCAL/MOL
REMARK 923 INTER-LIGAND FREE ENERGY PREDICTED BY IDOCK:   -5.28 KCAL/MOL
REMARK 924 INTRA-LIGAND FREE ENERGY PREDICTED BY IDOCK:   -0.14 KCAL/MOL
REMARK 927      BINDING AFFINITY PREDICTED BY RF-SCORE:    0.00 PKD
ROOT
HETATM    1  N   UNL     1     -12.784   9.936  70.406  1.00  0.00    -0.528 NA 
HETATM    2  H1  UNL     1     -12.870   9.373  71.252  1.00  0.00     0.000 HD 
HETATM    3  H2  UNL     1     -13.021   9.418  69.560  1.00  0.00     0.000 HD 
HETATM    4  CA  UNL     1     -11.387  10.506  70.373  1.00  0.00    -0.328 C  
HETATM    5  OXT UNL     1     -10.295  12.042  68.813  1.00  0.00    -0.218 OA 
HETATM    6  C   UNL     1     -11.259  11.352  69.101  1.00  0.00    -0.272 C  
HETATM    7  O   UNL     1     -12.373  11.258  68.325  1.00  0.00    -0.542 OA 
ENDROOT
BRANCH   4   8
HETATM    8  C   UNL     1     -10.228   9.472  70.394  1.00  0.00    -0.279 C  
HETATM    9  O   UNL     1      -8.969  10.124  70.195  1.00  0.00    -0.366 OA 
HETATM   10  H   UNL     1      -8.260   9.492  70.208  1.00  0.00     0.000 HD 
BRANCH   8  11
HETATM   11  C   UNL     1     -10.397   8.409  69.320  1.00  0.00    -0.220 A  
HETATM   12  C   UNL     1      -9.976   8.641  67.995  1.00  0.00    -0.221 A  
HETATM   13  C   UNL     1     -10.196   7.681  67.016  1.00  0.00    -0.300 A  
HETATM   14  C   UNL     1     -10.820   6.481  67.338  1.00  0.00    -0.373 A  
HETATM   15  O   UNL     1      -9.826   7.880  65.715  1.00  0.00    -0.384 OA 
HETATM   16  H   UNL     1      -9.976   7.224  65.046  1.00  0.00     0.000 HD 
HETATM   17  O   UNL     1     -11.044   5.548  66.369  1.00  0.00    -0.681 OA 
HETATM   18  C   UNL     1     -11.226   6.220  68.639  1.00  0.00    -0.328 A  
HETATM   19  C   UNL     1     -11.018   7.186  69.629  1.00  0.00    -0.236 A  
HETATM   20  H   UNL     1     -11.470   4.728  66.589  1.00  0.00     0.000 HD 
ENDBRANCH   8  11
ENDBRANCH   4   8
TORSDOF 2
ENDMDL
MODEL      101
REMARK 921   NORMALIZED FREE ENERGY PREDICTED BY IDOCK:   -4.60 KCAL/MOL
REMARK 922        TOTAL FREE ENERGY PREDICTED BY IDOCK:   -5.41 KCAL/MOL
REMARK 923 INTER-LIGAND FREE ENERGY PREDICTED BY IDOCK:   -5.16 KCAL/MOL
REMARK 924 INTRA-LIGAND FREE ENERGY PREDICTED BY IDOCK:   -0.25 KCAL/MOL
REMARK 927      BINDING AFFINITY PREDICTED BY RF-SCORE:    0.00 PKD
ROOT
HETATM    1  N   UNL     1      -8.653  11.322  68.904  1.00  0.00    -0.333 NA 
HETATM    2  H1  UNL     1      -8.542  11.973  68.127  1.00  0.00     0.000 HD 
HETATM    3  H2  UNL     1      -7.819  10.757  69.069  1.00  0.00     0.000 HD 
HETATM    4  CA  UNL     1      -9.881  10.489  68.633  1.00  0.00    -0.178 C  
HETATM    5  OXT UNL     1     -10.997   8.760  69.957  1.00  0.00    -0.245 OA 
HETATM    6  C   UNL     1     -10.047   9.509  69.800  1.00  0.00    -0.216 C  
HETATM    7  O   UNL     1      -9.003   9.588  70.669  1.00  0.00    -0.241 OA 
ENDROOT
BRANCH   4   8
HETATM    8  C   UNL     1      -9.878   9.678  67.308  1.00  0.00    -0.175 C  
HETATM    9  O   UNL     1      -8.560   9.207  67.009  1.00  0.00    -0.122 OA 
HETATM   10  H   UNL     1      -8.558   8.710  66.199  1.00  0.00     0.000 HD 
BRANCH   8  11
HETATM   11  C   UNL     1     -10.372  10.509  66.133  1.00  0.00    -0.276 A  
HETATM   12  C   UNL     1     -10.017  10.180  64.811  1.00  0.00    -0.334 A  
HETATM   13  C   UNL     1     -10.427  10.987  63.758  1.00  0.00    -0.341 A  
HETATM   14  C   UNL     1     -11.202  12.116  64.001  1.00  0.00    -0.390 A  
HETATM   15  O   UNL     1     -10.081  10.716  62.463  1.00  0.00    -0.736 OA 
HETATM   16  H   UNL     1     -10.362  11.268  61.744  1.00  0.00     0.000 HD 
HETATM   17  O   UNL     1     -11.592  12.911  62.963  1.00  0.00    -0.804 OA 
HETATM   18  C   UNL     1     -11.582  12.450  65.292  1.00  0.00    -0.419 A  
HETATM   19  C   UNL     1     -11.163  11.649  66.360  1.00  0.00    -0.349 A  
HETATM   20  H   UNL     1     -12.121  13.683  63.129  1.00  0.00     0.000 HD 
ENDBRANCH   8  11
ENDBRANCH   4   8
TORSDOF 2
ENDMDL
MODEL      102
REMARK 921   NORMALIZED FREE ENERGY PREDICTED BY IDOCK:   -4.60 KCAL/MOL
REMARK 922        TOTAL FREE ENERGY PREDICTED BY IDOCK:   -5.40 KCAL/MOL
REMARK 923 INTER-LIGAND FREE ENERGY PREDICTED BY IDOCK:   -5.42 KCAL/MOL
REMARK 924 INTRA-LIGAND FREE ENERGY PREDICTED BY IDOCK:    0.02 KCAL/MOL
REMARK 927      BINDING AFFINITY PREDICTED BY RF-SCORE:    0.00 PKD
ROOT
HETATM    1  N   UNL     1     -10.139  12.272  68.941  1.00  0.00    -0.427 NA 
HETATM    2  H1  UNL     1      -9.377  12.708  69.459  1.00  0.00     0.000 HD 
HETATM    3  H2  UNL     1     -11.050  12.424  69.374  1.00  0.00     0.000 HD 
HETATM    4  CA  UNL     1      -9.805  10.810  68.776  1.00  0.00    -0.194 C  
HETATM    5  OXT UNL     1     -10.959   9.003  67.596  1.00  0.00    -0.152 OA 
HETATM    6  C   UNL     1     -10.952  10.155  67.997  1.00  0.00    -0.270 C  
HETATM    7  O   UNL     1     -11.972  11.030  67.782  1.00  0.00    -0.609 OA 
ENDROOT
BRANCH   4   8
HETATM    8  C   UNL     1      -9.582  10.008  70.088  1.00  0.00    -0.097 C  
HETATM    9  O   UNL     1      -8.891   8.784  69.818  1.00  0.00    -0.135 OA 
HETATM   10  H   UNL     1      -8.754   8.293  70.619  1.00  0.00     0.000 HD 
BRANCH   8  11
HETATM   11  C   UNL     1     -10.896   9.678  70.780  1.00  0.00    -0.400 A  
HETATM   12  C   UNL     1     -11.779  10.699  71.185  1.00  0.00    -0.248 A  
HETATM   13  C   UNL     1     -12.944  10.380  71.871  1.00  0.00    -0.450 A  
HETATM   14  C   UNL     1     -13.253   9.053  72.149  1.00  0.00    -0.446 A  
HETATM   15  O   UNL     1     -13.812  11.343  72.304  1.00  0.00    -0.326 OA 
HETATM   16  H   UNL     1     -14.609  11.125  72.773  1.00  0.00     0.000 HD 
HETATM   17  O   UNL     1     -14.393   8.748  72.834  1.00  0.00    -1.023 OA 
HETATM   18  C   UNL     1     -12.410   8.030  71.743  1.00  0.00    -0.352 A  
HETATM   19  C   UNL     1     -11.229   8.342  71.062  1.00  0.00    -0.291 A  
HETATM   20  H   UNL     1     -14.604   7.842  73.024  1.00  0.00     0.000 HD 
ENDBRANCH   8  11
ENDBRANCH   4   8
TORSDOF 2
ENDMDL
MODEL      103
REMARK 921   NORMALIZED FREE ENERGY PREDICTED BY IDOCK:   -4.59 KCAL/MOL
REMARK 922        TOTAL FREE ENERGY PREDICTED BY IDOCK:   -5.40 KCAL/MOL
REMARK 923 INTER-LIGAND FREE ENERGY PREDICTED BY IDOCK:   -5.13 KCAL/MOL
REMARK 924 INTRA-LIGAND FREE ENERGY PREDICTED BY IDOCK:   -0.27 KCAL/MOL
REMARK 927      BINDING AFFINITY PREDICTED BY RF-SCORE:    0.00 PKD
ROOT
HETATM    1  N   UNL     1      -9.707  14.399  67.729  1.00  0.00    -0.217 NA 
HETATM    2  H1  UNL     1      -9.120  14.444  68.562  1.00  0.00     0.000 HD 
HETATM    3  H2  UNL     1     -10.217  15.266  67.558  1.00  0.00     0.000 HD 
HETATM    4  CA  UNL     1     -10.615  13.203  67.870  1.00  0.00    -0.234 C  
HETATM    5  OXT UNL     1     -12.273  12.233  66.354  1.00  0.00    -0.613 OA 
HETATM    6  C   UNL     1     -11.498  13.137  66.618  1.00  0.00    -0.348 C  
HETATM    7  O   UNL     1     -11.297  14.214  65.810  1.00  0.00    -0.308 OA 
ENDROOT
BRANCH   4   8
HETATM    8  C   UNL     1     -11.536  13.187  69.121  1.00  0.00    -0.316 C  
HETATM    9  O   UNL     1     -11.090  14.146  70.087  1.00  0.00    -0.468 OA 
HETATM   10  H   UNL     1     -11.653  14.137  70.851  1.00  0.00     0.000 HD 
BRANCH   8  11
HETATM   11  C   UNL     1     -11.573  11.817  69.781  1.00  0.00    -0.372 A  
HETATM   12  C   UNL     1     -10.727  10.778  69.343  1.00  0.00    -0.272 A  
HETATM   13  C   UNL     1     -10.819   9.517  69.918  1.00  0.00    -0.246 A  
HETATM   14  C   UNL     1     -11.736   9.276  70.936  1.00  0.00    -0.296 A  
HETATM   15  O   UNL     1     -10.035   8.477  69.504  1.00  0.00    -0.185 OA 
HETATM   16  H   UNL     1     -10.098   7.615  69.896  1.00  0.00     0.000 HD 
HETATM   17  O   UNL     1     -11.829   8.032  71.488  1.00  0.00    -0.275 OA 
HETATM   18  C   UNL     1     -12.564  10.287  71.398  1.00  0.00    -0.539 A  
HETATM   19  C   UNL     1     -12.487  11.558  70.817  1.00  0.00    -0.444 A  
HETATM   20  H   UNL     1     -12.455   7.867  72.183  1.00  0.00     0.000 HD 
ENDBRANCH   8  11
ENDBRANCH   4   8
TORSDOF 2
ENDMDL
MODEL      104
REMARK 921   NORMALIZED FREE ENERGY PREDICTED BY IDOCK:   -4.57 KCAL/MOL
REMARK 922        TOTAL FREE ENERGY PREDICTED BY IDOCK:   -5.37 KCAL/MOL
REMARK 923 INTER-LIGAND FREE ENERGY PREDICTED BY IDOCK:   -5.09 KCAL/MOL
REMARK 924 INTRA-LIGAND FREE ENERGY PREDICTED BY IDOCK:   -0.28 KCAL/MOL
REMARK 927      BINDING AFFINITY PREDICTED BY RF-SCORE:    0.00 PKD
ROOT
HETATM    1  N   UNL     1      -7.891  17.379  66.565  1.00  0.00    -0.259 NA 
HETATM    2  H1  UNL     1      -8.097  16.668  65.863  1.00  0.00     0.000 HD 
HETATM    3  H2  UNL     1      -7.990  17.033  67.520  1.00  0.00     0.000 HD 
HETATM    4  CA  UNL     1      -8.767  18.574  66.280  1.00  0.00    -0.203 C  
HETATM    5  OXT UNL     1      -8.908  20.775  67.339  1.00  0.00    -0.297 OA 
HETATM    6  C   UNL     1      -8.456  19.642  67.335  1.00  0.00    -0.305 C  
HETATM    7  O   UNL     1      -7.586  19.178  68.273  1.00  0.00    -0.280 OA 
ENDROOT
BRANCH   4   8
HETATM    8  C   UNL     1     -10.298  18.314  66.280  1.00  0.00    -0.405 C  
HETATM    9  O   UNL     1     -10.915  18.942  67.409  1.00  0.00    -0.437 OA 
HETATM   10  H   UNL     1     -11.851  18.784  67.410  1.00  0.00     0.000 HD 
BRANCH   8  11
HETATM   11  C   UNL     1     -10.620  16.828  66.319  1.00  0.00    -0.190 A  
HETATM   12  C   UNL     1     -10.758  16.084  65.130  1.00  0.00    -0.429 A  
HETATM   13  C   UNL     1     -11.113  14.742  65.185  1.00  0.00    -0.384 A  
HETATM   14  C   UNL     1     -11.322  14.122  66.412  1.00  0.00    -0.338 A  
HETATM   15  O   UNL     1     -11.282  13.994  64.053  1.00  0.00    -0.585 OA 
HETATM   16  H   UNL     1     -11.525  13.077  64.091  1.00  0.00     0.000 HD 
HETATM   17  O   UNL     1     -11.682  12.807  66.458  1.00  0.00    -0.361 OA 
HETATM   18  C   UNL     1     -11.172  14.827  67.596  1.00  0.00    -0.332 A  
HETATM   19  C   UNL     1     -10.826  16.182  67.551  1.00  0.00    -0.284 A  
HETATM   20  H   UNL     1     -11.824  12.383  67.296  1.00  0.00     0.000 HD 
ENDBRANCH   8  11
ENDBRANCH   4   8
TORSDOF 2
ENDMDL
MODEL      105
REMARK 921   NORMALIZED FREE ENERGY PREDICTED BY IDOCK:   -4.57 KCAL/MOL
REMARK 922        TOTAL FREE ENERGY PREDICTED BY IDOCK:   -5.37 KCAL/MOL
REMARK 923 INTER-LIGAND FREE ENERGY PREDICTED BY IDOCK:   -5.14 KCAL/MOL
REMARK 924 INTRA-LIGAND FREE ENERGY PREDICTED BY IDOCK:   -0.23 KCAL/MOL
REMARK 927      BINDING AFFINITY PREDICTED BY RF-SCORE:    0.00 PKD
ROOT
HETATM    1  N   UNL     1     -11.819  13.256  69.640  1.00  0.00    -0.317 NA 
HETATM    2  H1  UNL     1     -12.458  12.886  70.343  1.00  0.00     0.000 HD 
HETATM    3  H2  UNL     1     -12.291  13.515  68.773  1.00  0.00     0.000 HD 
HETATM    4  CA  UNL     1     -10.726  12.237  69.431  1.00  0.00     0.139 C  
HETATM    5  OXT UNL     1      -8.713  12.276  68.040  1.00  0.00    -0.166 OA 
HETATM    6  C   UNL     1      -9.766  12.794  68.372  1.00  0.00    -0.186 C  
HETATM    7  O   UNL     1     -10.223  13.966  67.853  1.00  0.00    -0.232 OA 
ENDROOT
BRANCH   4   8
HETATM    8  C   UNL     1     -11.187  10.824  68.980  1.00  0.00    -0.262 C  
HETATM    9  O   UNL     1     -12.467  10.891  68.343  1.00  0.00    -0.659 OA 
HETATM   10  H   UNL     1     -12.749  10.027  68.067  1.00  0.00     0.000 HD 
BRANCH   8  11
HETATM   11  C   UNL     1     -11.279   9.858  70.151  1.00  0.00    -0.347 A  
HETATM   12  C   UNL     1     -12.320   9.960  71.096  1.00  0.00    -0.466 A  
HETATM   13  C   UNL     1     -12.352   9.108  72.192  1.00  0.00    -0.354 A  
HETATM   14  C   UNL     1     -11.366   8.141  72.356  1.00  0.00    -0.391 A  
HETATM   15  O   UNL     1     -13.330   9.192  73.143  1.00  0.00    -0.844 OA 
HETATM   16  H   UNL     1     -13.351   8.610  73.892  1.00  0.00     0.000 HD 
HETATM   17  O   UNL     1     -11.397   7.315  73.442  1.00  0.00    -0.581 OA 
HETATM   18  C   UNL     1     -10.343   8.007  71.430  1.00  0.00    -0.243 A  
HETATM   19  C   UNL     1     -10.296   8.869  70.329  1.00  0.00    -0.235 A  
HETATM   20  H   UNL     1     -10.723   6.654  73.554  1.00  0.00     0.000 HD 
ENDBRANCH   8  11
ENDBRANCH   4   8
TORSDOF 2
ENDMDL
MODEL      106
REMARK 921   NORMALIZED FREE ENERGY PREDICTED BY IDOCK:   -4.56 KCAL/MOL
REMARK 922        TOTAL FREE ENERGY PREDICTED BY IDOCK:   -5.36 KCAL/MOL
REMARK 923 INTER-LIGAND FREE ENERGY PREDICTED BY IDOCK:   -5.19 KCAL/MOL
REMARK 924 INTRA-LIGAND FREE ENERGY PREDICTED BY IDOCK:   -0.17 KCAL/MOL
REMARK 927      BINDING AFFINITY PREDICTED BY RF-SCORE:    0.00 PKD
ROOT
HETATM    1  N   UNL     1      -9.845   8.563  65.905  1.00  0.00    -0.463 NA 
HETATM    2  H1  UNL     1      -9.629   8.333  64.935  1.00  0.00     0.000 HD 
HETATM    3  H2  UNL     1     -10.781   8.952  66.021  1.00  0.00     0.000 HD 
HETATM    4  CA  UNL     1      -8.761   9.482  66.412  1.00  0.00    -0.135 C  
HETATM    5  OXT UNL     1      -8.363  10.463  68.618  1.00  0.00    -0.113 OA 
HETATM    6  C   UNL     1      -9.087   9.827  67.870  1.00  0.00    -0.121 C  
HETATM    7  O   UNL     1     -10.289   9.313  68.247  1.00  0.00    -0.200 OA 
ENDROOT
BRANCH   4   8
HETATM    8  C   UNL     1      -8.566  10.807  65.626  1.00  0.00    -0.180 C  
HETATM    9  O   UNL     1      -7.574  11.625  66.256  1.00  0.00    -0.372 OA 
HETATM   10  H   UNL     1      -7.455  12.435  65.776  1.00  0.00     0.000 HD 
BRANCH   8  11
HETATM   11  C   UNL     1      -9.859  11.603  65.529  1.00  0.00    -0.264 A  
HETATM   12  C   UNL     1     -10.731  11.440  64.435  1.00  0.00    -0.405 A  
HETATM   13  C   UNL     1     -11.875  12.221  64.334  1.00  0.00    -0.388 A  
HETATM   14  C   UNL     1     -12.173  13.158  65.318  1.00  0.00    -0.455 A  
HETATM   15  O   UNL     1     -12.733  12.111  63.275  1.00  0.00    -0.760 OA 
HETATM   16  H   UNL     1     -13.515  12.645  63.207  1.00  0.00     0.000 HD 
HETATM   17  O   UNL     1     -13.292  13.930  65.206  1.00  0.00    -0.732 OA 
HETATM   18  C   UNL     1     -11.341  13.323  66.414  1.00  0.00    -0.341 A  
HETATM   19  C   UNL     1     -10.180  12.549  66.519  1.00  0.00    -0.255 A  
HETATM   20  H   UNL     1     -13.496  14.570  65.878  1.00  0.00     0.000 HD 
ENDBRANCH   8  11
ENDBRANCH   4   8
TORSDOF 2
ENDMDL
MODEL      107
REMARK 921   NORMALIZED FREE ENERGY PREDICTED BY IDOCK:   -4.54 KCAL/MOL
REMARK 922        TOTAL FREE ENERGY PREDICTED BY IDOCK:   -5.34 KCAL/MOL
REMARK 923 INTER-LIGAND FREE ENERGY PREDICTED BY IDOCK:   -4.99 KCAL/MOL
REMARK 924 INTRA-LIGAND FREE ENERGY PREDICTED BY IDOCK:   -0.35 KCAL/MOL
REMARK 927      BINDING AFFINITY PREDICTED BY RF-SCORE:    0.00 PKD
ROOT
HETATM    1  N   UNL     1     -10.383  15.354  68.936  1.00  0.00    -0.224 NA 
HETATM    2  H1  UNL     1     -10.098  14.914  68.061  1.00  0.00     0.000 HD 
HETATM    3  H2  UNL     1      -9.816  15.057  69.731  1.00  0.00     0.000 HD 
HETATM    4  CA  UNL     1     -11.854  15.082  69.130  1.00  0.00    -0.308 C  
HETATM    5  OXT UNL     1     -13.428  15.810  70.857  1.00  0.00    -0.568 OA 
HETATM    6  C   UNL     1     -12.281  15.743  70.446  1.00  0.00    -0.356 C  
HETATM    7  O   UNL     1     -11.216  16.275  71.105  1.00  0.00    -0.315 OA 
ENDROOT
BRANCH   4   8
HETATM    8  C   UNL     1     -12.272  13.586  69.175  1.00  0.00    -0.194 C  
HETATM    9  O   UNL     1     -11.894  12.995  70.423  1.00  0.00    -0.505 OA 
HETATM   10  H   UNL     1     -12.149  12.081  70.450  1.00  0.00     0.000 HD 
BRANCH   8  11
HETATM   11  C   UNL     1     -11.634  12.786  68.048  1.00  0.00    -0.388 A  
HETATM   12  C   UNL     1     -11.814  13.159  66.702  1.00  0.00    -0.449 A  
HETATM   13  C   UNL     1     -11.275  12.380  65.686  1.00  0.00    -0.322 A  
HETATM   14  C   UNL     1     -10.545  11.237  65.991  1.00  0.00    -0.258 A  
HETATM   15  O   UNL     1     -11.450  12.694  64.367  1.00  0.00    -0.315 OA 
HETATM   16  H   UNL     1     -11.082  12.161  63.672  1.00  0.00     0.000 HD 
HETATM   17  O   UNL     1     -10.028  10.470  64.988  1.00  0.00    -0.278 OA 
HETATM   18  C   UNL     1     -10.336  10.861  67.310  1.00  0.00    -0.255 A  
HETATM   19  C   UNL     1     -10.885  11.632  68.339  1.00  0.00    -0.257 A  
HETATM   20  H   UNL     1      -9.529   9.689  65.197  1.00  0.00     0.000 HD 
ENDBRANCH   8  11
ENDBRANCH   4   8
TORSDOF 2
ENDMDL
MODEL      108
REMARK 921   NORMALIZED FREE ENERGY PREDICTED BY IDOCK:   -4.54 KCAL/MOL
REMARK 922        TOTAL FREE ENERGY PREDICTED BY IDOCK:   -5.34 KCAL/MOL
REMARK 923 INTER-LIGAND FREE ENERGY PREDICTED BY IDOCK:   -5.16 KCAL/MOL
REMARK 924 INTRA-LIGAND FREE ENERGY PREDICTED BY IDOCK:   -0.18 KCAL/MOL
REMARK 927      BINDING AFFINITY PREDICTED BY RF-SCORE:    0.00 PKD
ROOT
HETATM    1  N   UNL     1     -12.621  14.546  63.678  1.00  0.00    -0.992 NA 
HETATM    2  H1  UNL     1     -12.507  15.473  64.088  1.00  0.00     0.000 HD 
HETATM    3  H2  UNL     1     -13.599  14.270  63.588  1.00  0.00     0.000 HD 
HETATM    4  CA  UNL     1     -11.811  13.577  64.503  1.00  0.00    -0.405 C  
HETATM    5  OXT UNL     1     -11.381  11.182  64.241  1.00  0.00    -0.177 OA 
HETATM    6  C   UNL     1     -11.982  12.183  63.887  1.00  0.00    -0.486 C  
HETATM    7  O   UNL     1     -12.884  12.196  62.868  1.00  0.00    -0.345 OA 
ENDROOT
BRANCH   4   8
HETATM    8  C   UNL     1     -12.174  13.494  66.012  1.00  0.00    -0.445 C  
HETATM    9  O   UNL     1     -12.588  14.775  66.500  1.00  0.00    -0.262 OA 
HETATM   10  H   UNL     1     -12.810  14.724  67.422  1.00  0.00     0.000 HD 
BRANCH   8  11
HETATM   11  C   UNL     1     -11.000  13.014  66.851  1.00  0.00    -0.289 A  
HETATM   12  C   UNL     1      -9.715  13.569  66.688  1.00  0.00    -0.281 A  
HETATM   13  C   UNL     1      -8.644  13.073  67.420  1.00  0.00    -0.199 A  
HETATM   14  C   UNL     1      -8.835  12.037  68.327  1.00  0.00    -0.182 A  
HETATM   15  O   UNL     1      -7.378  13.568  67.271  1.00  0.00    -0.311 OA 
HETATM   16  H   UNL     1      -6.646  13.229  67.772  1.00  0.00     0.000 HD 
HETATM   17  O   UNL     1      -7.776  11.547  69.035  1.00  0.00    -0.247 OA 
HETATM   18  C   UNL     1     -10.094  11.487  68.521  1.00  0.00    -0.211 A  
HETATM   19  C   UNL     1     -11.176  11.972  67.779  1.00  0.00    -0.331 A  
HETATM   20  H   UNL     1      -7.907  10.839  69.654  1.00  0.00     0.000 HD 
ENDBRANCH   8  11
ENDBRANCH   4   8
TORSDOF 2
ENDMDL
MODEL      109
REMARK 921   NORMALIZED FREE ENERGY PREDICTED BY IDOCK:   -4.53 KCAL/MOL
REMARK 922        TOTAL FREE ENERGY PREDICTED BY IDOCK:   -5.33 KCAL/MOL
REMARK 923 INTER-LIGAND FREE ENERGY PREDICTED BY IDOCK:   -5.16 KCAL/MOL
REMARK 924 INTRA-LIGAND FREE ENERGY PREDICTED BY IDOCK:   -0.16 KCAL/MOL
REMARK 927      BINDING AFFINITY PREDICTED BY RF-SCORE:    0.00 PKD
ROOT
HETATM    1  N   UNL     1      -9.789  11.076  69.529  1.00  0.00    -0.428 NA 
HETATM    2  H1  UNL     1     -10.423  10.440  70.011  1.00  0.00     0.000 HD 
HETATM    3  H2  UNL     1      -9.628  11.941  70.045  1.00  0.00     0.000 HD 
HETATM    4  CA  UNL     1     -10.339  11.314  68.144  1.00  0.00    -0.186 C  
HETATM    5  OXT UNL     1      -9.471  12.592  66.247  1.00  0.00    -0.235 OA 
HETATM    6  C   UNL     1      -9.385  12.272  67.421  1.00  0.00    -0.183 C  
HETATM    7  O   UNL     1      -8.401  12.714  68.249  1.00  0.00    -0.166 OA 
ENDROOT
BRANCH   4   8
HETATM    8  C   UNL     1     -11.775  11.904  68.072  1.00  0.00    -0.312 C  
HETATM    9  O   UNL     1     -12.061  12.370  66.750  1.00  0.00    -0.578 OA 
HETATM   10  H   UNL     1     -12.939  12.731  66.705  1.00  0.00     0.000 HD 
BRANCH   8  11
HETATM   11  C   UNL     1     -11.961  13.060  69.044  1.00  0.00    -0.312 A  
HETATM   12  C   UNL     1     -12.409  12.837  70.360  1.00  0.00    -0.324 A  
HETATM   13  C   UNL     1     -12.632  13.911  71.212  1.00  0.00    -0.371 A  
HETATM   14  C   UNL     1     -12.401  15.211  70.775  1.00  0.00    -0.360 A  
HETATM   15  O   UNL     1     -13.092  13.737  72.487  1.00  0.00    -0.433 OA 
HETATM   16  H   UNL     1     -13.244  14.472  73.069  1.00  0.00     0.000 HD 
HETATM   17  O   UNL     1     -12.633  16.262  71.613  1.00  0.00    -0.550 OA 
HETATM   18  C   UNL     1     -11.941  15.456  69.490  1.00  0.00    -0.358 A  
HETATM   19  C   UNL     1     -11.724  14.380  68.622  1.00  0.00    -0.367 A  
HETATM   20  H   UNL     1     -12.476  17.151  71.315  1.00  0.00     0.000 HD 
ENDBRANCH   8  11
ENDBRANCH   4   8
TORSDOF 2
ENDMDL
MODEL      110
REMARK 921   NORMALIZED FREE ENERGY PREDICTED BY IDOCK:   -4.52 KCAL/MOL
REMARK 922        TOTAL FREE ENERGY PREDICTED BY IDOCK:   -5.32 KCAL/MOL
REMARK 923 INTER-LIGAND FREE ENERGY PREDICTED BY IDOCK:   -5.43 KCAL/MOL
REMARK 924 INTRA-LIGAND FREE ENERGY PREDICTED BY IDOCK:    0.11 KCAL/MOL
REMARK 927      BINDING AFFINITY PREDICTED BY RF-SCORE:    0.00 PKD
ROOT
HETATM    1  N   UNL     1      -8.798  13.164  67.450  1.00  0.00    -0.194 NA 
HETATM    2  H1  UNL     1      -8.243  13.527  68.225  1.00  0.00     0.000 HD 
HETATM    3  H2  UNL     1      -8.794  13.780  66.637  1.00  0.00     0.000 HD 
HETATM    4  CA  UNL     1     -10.188  12.889  67.969  1.00  0.00    -0.229 C  
HETATM    5  OXT UNL     1     -12.161  11.917  66.896  1.00  0.00    -0.599 OA 
HETATM    6  C   UNL     1     -11.022  12.343  66.803  1.00  0.00    -0.263 C  
HETATM    7  O   UNL     1     -10.323  12.371  65.636  1.00  0.00    -0.248 OA 
ENDROOT
BRANCH   4   8
HETATM    8  C   UNL     1     -10.940  14.100  68.586  1.00  0.00    -0.258 C  
HETATM    9  O   UNL     1     -12.352  13.865  68.593  1.00  0.00    -0.486 OA 
HETATM   10  H   UNL     1     -12.812  14.606  68.971  1.00  0.00     0.000 HD 
BRANCH   8  11
HETATM   11  C   UNL     1     -10.668  15.385  67.818  1.00  0.00    -0.289 A  
HETATM   12  C   UNL     1     -11.003  15.501  66.454  1.00  0.00    -0.238 A  
HETATM   13  C   UNL     1     -10.690  16.660  65.756  1.00  0.00    -0.204 A  
HETATM   14  C   UNL     1     -10.058  17.717  66.401  1.00  0.00    -0.357 A  
HETATM   15  O   UNL     1     -10.974  16.800  64.427  1.00  0.00    -1.098 OA 
HETATM   16  H   UNL     1     -10.760  17.593  63.950  1.00  0.00     0.000 HD 
HETATM   17  O   UNL     1      -9.743  18.849  65.707  1.00  0.00    -0.437 OA 
HETATM   18  C   UNL     1      -9.736  17.636  67.748  1.00  0.00    -0.280 A  
HETATM   19  C   UNL     1     -10.037  16.468  68.456  1.00  0.00    -0.255 A  
HETATM   20  H   UNL     1      -9.311  19.571  66.147  1.00  0.00     0.000 HD 
ENDBRANCH   8  11
ENDBRANCH   4   8
TORSDOF 2
ENDMDL
MODEL      111
REMARK 921   NORMALIZED FREE ENERGY PREDICTED BY IDOCK:   -4.49 KCAL/MOL
REMARK 922        TOTAL FREE ENERGY PREDICTED BY IDOCK:   -5.29 KCAL/MOL
REMARK 923 INTER-LIGAND FREE ENERGY PREDICTED BY IDOCK:   -5.50 KCAL/MOL
REMARK 924 INTRA-LIGAND FREE ENERGY PREDICTED BY IDOCK:    0.21 KCAL/MOL
REMARK 927      BINDING AFFINITY PREDICTED BY RF-SCORE:    0.00 PKD
ROOT
HETATM    1  N   UNL     1      -8.871   7.498  71.153  1.00  0.00    -0.140 NA 
HETATM    2  H1  UNL     1      -9.173   7.069  72.029  1.00  0.00     0.000 HD 
HETATM    3  H2  UNL     1      -9.051   8.501  71.121  1.00  0.00     0.000 HD 
HETATM    4  CA  UNL     1      -9.532   6.748  70.023  1.00  0.00    -0.157 C  
HETATM    5  OXT UNL     1      -9.338   6.969  67.594  1.00  0.00    -0.123 OA 
HETATM    6  C   UNL     1      -9.078   7.392  68.708  1.00  0.00    -0.131 C  
HETATM    7  O   UNL     1      -8.321   8.500  68.931  1.00  0.00    -0.116 OA 
ENDROOT
BRANCH   4   8
HETATM    8  C   UNL     1     -11.085   6.712  70.042  1.00  0.00    -0.339 C  
HETATM    9  O   UNL     1     -11.601   6.582  68.713  1.00  0.00    -0.588 OA 
HETATM   10  H   UNL     1     -12.551   6.560  68.725  1.00  0.00     0.000 HD 
BRANCH   8  11
HETATM   11  C   UNL     1     -11.672   7.968  70.669  1.00  0.00    -0.158 A  
HETATM   12  C   UNL     1     -12.579   7.886  71.744  1.00  0.00    -0.353 A  
HETATM   13  C   UNL     1     -13.151   9.041  72.261  1.00  0.00    -0.445 A  
HETATM   14  C   UNL     1     -12.823  10.284  71.731  1.00  0.00    -0.460 A  
HETATM   15  O   UNL     1     -14.055   9.001  73.286  1.00  0.00    -1.218 OA 
HETATM   16  H   UNL     1     -14.446   9.791  73.640  1.00  0.00     0.000 HD 
HETATM   17  O   UNL     1     -13.398  11.413  72.236  1.00  0.00    -0.629 OA 
HETATM   18  C   UNL     1     -11.917  10.392  70.686  1.00  0.00    -0.448 A  
HETATM   19  C   UNL     1     -11.345   9.233  70.151  1.00  0.00    -0.193 A  
HETATM   20  H   UNL     1     -13.174  12.263  71.874  1.00  0.00     0.000 HD 
ENDBRANCH   8  11
ENDBRANCH   4   8
TORSDOF 2
ENDMDL
MODEL      112
REMARK 921   NORMALIZED FREE ENERGY PREDICTED BY IDOCK:   -4.47 KCAL/MOL
REMARK 922        TOTAL FREE ENERGY PREDICTED BY IDOCK:   -5.26 KCAL/MOL
REMARK 923 INTER-LIGAND FREE ENERGY PREDICTED BY IDOCK:   -5.42 KCAL/MOL
REMARK 924 INTRA-LIGAND FREE ENERGY PREDICTED BY IDOCK:    0.16 KCAL/MOL
REMARK 927      BINDING AFFINITY PREDICTED BY RF-SCORE:    0.00 PKD
ROOT
HETATM    1  N   UNL     1     -10.029   8.004  66.205  1.00  0.00    -0.476 NA 
HETATM    2  H1  UNL     1     -10.346   8.423  65.331  1.00  0.00     0.000 HD 
HETATM    3  H2  UNL     1     -10.779   7.537  66.716  1.00  0.00     0.000 HD 
HETATM    4  CA  UNL     1      -9.353   9.084  67.013  1.00  0.00    -0.150 C  
HETATM    5  OXT UNL     1      -8.197   9.018  69.169  1.00  0.00    -0.116 OA 
HETATM    6  C   UNL     1      -8.876   8.453  68.328  1.00  0.00    -0.139 C  
HETATM    7  O   UNL     1      -9.289   7.162  68.439  1.00  0.00    -0.136 OA 
ENDROOT
BRANCH   4   8
HETATM    8  C   UNL     1     -10.220  10.328  67.352  1.00  0.00    -0.218 C  
HETATM    9  O   UNL     1     -11.372   9.947  68.112  1.00  0.00    -0.524 OA 
HETATM   10  H   UNL     1     -11.902  10.707  68.319  1.00  0.00     0.000 HD 
BRANCH   8  11
HETATM   11  C   UNL     1     -10.686  11.051  66.097  1.00  0.00    -0.257 A  
HETATM   12  C   UNL     1     -10.241  10.652  64.822  1.00  0.00    -0.401 A  
HETATM   13  C   UNL     1     -10.629  11.365  63.694  1.00  0.00    -0.412 A  
HETATM   14  C   UNL     1     -11.469  12.466  63.816  1.00  0.00    -0.467 A  
HETATM   15  O   UNL     1     -10.198  11.025  62.443  1.00  0.00    -0.564 OA 
HETATM   16  H   UNL     1     -10.463  11.512  61.672  1.00  0.00     0.000 HD 
HETATM   17  O   UNL     1     -11.838  13.168  62.706  1.00  0.00    -0.696 OA 
HETATM   18  C   UNL     1     -11.938  12.866  65.059  1.00  0.00    -0.445 A  
HETATM   19  C   UNL     1     -11.543  12.162  66.201  1.00  0.00    -0.418 A  
HETATM   20  H   UNL     1     -12.412  13.920  62.789  1.00  0.00     0.000 HD 
ENDBRANCH   8  11
ENDBRANCH   4   8
TORSDOF 2
ENDMDL
MODEL      113
REMARK 921   NORMALIZED FREE ENERGY PREDICTED BY IDOCK:   -4.44 KCAL/MOL
REMARK 922        TOTAL FREE ENERGY PREDICTED BY IDOCK:   -5.23 KCAL/MOL
REMARK 923 INTER-LIGAND FREE ENERGY PREDICTED BY IDOCK:   -4.96 KCAL/MOL
REMARK 924 INTRA-LIGAND FREE ENERGY PREDICTED BY IDOCK:   -0.27 KCAL/MOL
REMARK 927      BINDING AFFINITY PREDICTED BY RF-SCORE:    0.00 PKD
ROOT
HETATM    1  N   UNL     1      -9.868  12.216  68.161  1.00  0.00    -0.202 NA 
HETATM    2  H1  UNL     1     -10.274  12.443  69.069  1.00  0.00     0.000 HD 
HETATM    3  H2  UNL     1      -9.158  12.887  67.866  1.00  0.00     0.000 HD 
HETATM    4  CA  UNL     1     -10.999  12.085  67.172  1.00  0.00    -0.270 C  
HETATM    5  OXT UNL     1     -11.024  11.464  64.805  1.00  0.00    -0.296 OA 
HETATM    6  C   UNL     1     -10.388  11.744  65.807  1.00  0.00    -0.253 C  
HETATM    7  O   UNL     1      -9.028  11.770  65.850  1.00  0.00    -0.167 OA 
ENDROOT
BRANCH   4   8
HETATM    8  C   UNL     1     -11.908  13.333  67.004  1.00  0.00    -0.390 C  
HETATM    9  O   UNL     1     -11.508  14.097  65.861  1.00  0.00    -0.324 OA 
HETATM   10  H   UNL     1     -12.064  14.861  65.758  1.00  0.00     0.000 HD 
BRANCH   8  11
HETATM   11  C   UNL     1     -11.863  14.235  68.228  1.00  0.00    -0.370 A  
HETATM   12  C   UNL     1     -11.305  15.527  68.158  1.00  0.00    -0.348 A  
HETATM   13  C   UNL     1     -11.218  16.311  69.301  1.00  0.00    -0.312 A  
HETATM   14  C   UNL     1     -11.692  15.832  70.517  1.00  0.00    -0.377 A  
HETATM   15  O   UNL     1     -10.660  17.559  69.279  1.00  0.00    -0.403 OA 
HETATM   16  H   UNL     1     -10.600  18.094  70.061  1.00  0.00     0.000 HD 
HETATM   17  O   UNL     1     -11.592  16.602  71.639  1.00  0.00    -0.592 OA 
HETATM   18  C   UNL     1     -12.263  14.571  70.608  1.00  0.00    -0.401 A  
HETATM   19  C   UNL     1     -12.345  13.770  69.464  1.00  0.00    -0.258 A  
HETATM   20  H   UNL     1     -11.915  16.275  72.470  1.00  0.00     0.000 HD 
ENDBRANCH   8  11
ENDBRANCH   4   8
TORSDOF 2
ENDMDL
MODEL      114
REMARK 921   NORMALIZED FREE ENERGY PREDICTED BY IDOCK:   -4.43 KCAL/MOL
REMARK 922        TOTAL FREE ENERGY PREDICTED BY IDOCK:   -5.22 KCAL/MOL
REMARK 923 INTER-LIGAND FREE ENERGY PREDICTED BY IDOCK:   -4.85 KCAL/MOL
REMARK 924 INTRA-LIGAND FREE ENERGY PREDICTED BY IDOCK:   -0.37 KCAL/MOL
REMARK 927      BINDING AFFINITY PREDICTED BY RF-SCORE:    0.00 PKD
ROOT
HETATM    1  N   UNL     1      -9.462  13.395  66.975  1.00  0.00    -0.239 NA 
HETATM    2  H1  UNL     1      -9.228  12.886  67.828  1.00  0.00     0.000 HD 
HETATM    3  H2  UNL     1     -10.137  14.143  67.133  1.00  0.00     0.000 HD 
HETATM    4  CA  UNL     1      -9.929  12.389  65.952  1.00  0.00    -0.255 C  
HETATM    5  OXT UNL     1     -10.590  12.640  63.610  1.00  0.00    -0.418 OA 
HETATM    6  C   UNL     1     -10.280  13.155  64.671  1.00  0.00    -0.306 C  
HETATM    7  O   UNL     1     -10.183  14.500  64.853  1.00  0.00    -0.405 OA 
ENDROOT
BRANCH   4   8
HETATM    8  C   UNL     1     -11.153  11.522  66.357  1.00  0.00    -0.269 C  
HETATM    9  O   UNL     1     -12.348  12.310  66.365  1.00  0.00    -0.531 OA 
HETATM   10  H   UNL     1     -13.096  11.780  66.612  1.00  0.00     0.000 HD 
BRANCH   8  11
HETATM   11  C   UNL     1     -10.976  10.898  67.733  1.00  0.00    -0.339 A  
HETATM   12  C   UNL     1     -11.793  11.282  68.814  1.00  0.00    -0.396 A  
HETATM   13  C   UNL     1     -11.575  10.746  70.077  1.00  0.00    -0.334 A  
HETATM   14  C   UNL     1     -10.558   9.819  70.278  1.00  0.00    -0.292 A  
HETATM   15  O   UNL     1     -12.329  11.112  71.156  1.00  0.00    -0.365 OA 
HETATM   16  H   UNL     1     -12.180  10.746  72.019  1.00  0.00     0.000 HD 
HETATM   17  O   UNL     1     -10.341   9.306  71.524  1.00  0.00    -0.336 OA 
HETATM   18  C   UNL     1      -9.752   9.411  69.226  1.00  0.00    -0.173 A  
HETATM   19  C   UNL     1      -9.958   9.953  67.953  1.00  0.00    -0.190 A  
HETATM   20  H   UNL     1      -9.646   8.673  71.662  1.00  0.00     0.000 HD 
ENDBRANCH   8  11
ENDBRANCH   4   8
TORSDOF 2
ENDMDL
MODEL      115
REMARK 921   NORMALIZED FREE ENERGY PREDICTED BY IDOCK:   -4.43 KCAL/MOL
REMARK 922        TOTAL FREE ENERGY PREDICTED BY IDOCK:   -5.22 KCAL/MOL
REMARK 923 INTER-LIGAND FREE ENERGY PREDICTED BY IDOCK:   -4.96 KCAL/MOL
REMARK 924 INTRA-LIGAND FREE ENERGY PREDICTED BY IDOCK:   -0.26 KCAL/MOL
REMARK 927      BINDING AFFINITY PREDICTED BY RF-SCORE:    0.00 PKD
ROOT
HETATM    1  N   UNL     1     -10.590  12.613  66.698  1.00  0.00    -0.246 NA 
HETATM    2  H1  UNL     1     -10.064  13.336  66.206  1.00  0.00     0.000 HD 
HETATM    3  H2  UNL     1     -11.457  12.363  66.223  1.00  0.00     0.000 HD 
HETATM    4  CA  UNL     1     -10.811  13.088  68.113  1.00  0.00    -0.247 C  
HETATM    5  OXT UNL     1     -11.861  12.011  70.043  1.00  0.00    -0.323 OA 
HETATM    6  C   UNL     1     -11.602  12.001  68.851  1.00  0.00    -0.321 C  
HETATM    7  O   UNL     1     -11.970  10.996  68.011  1.00  0.00    -0.623 OA 
ENDROOT
BRANCH   4   8
HETATM    8  C   UNL     1     -11.565  14.437  68.271  1.00  0.00    -0.328 C  
HETATM    9  O   UNL     1     -12.424  14.667  67.149  1.00  0.00    -0.507 OA 
HETATM   10  H   UNL     1     -12.886  15.491  67.246  1.00  0.00     0.000 HD 
BRANCH   8  11
HETATM   11  C   UNL     1     -10.606  15.611  68.394  1.00  0.00    -0.252 A  
HETATM   12  C   UNL     1     -11.028  16.926  68.114  1.00  0.00    -0.290 A  
HETATM   13  C   UNL     1     -10.121  17.976  68.173  1.00  0.00    -0.372 A  
HETATM   14  C   UNL     1      -8.795  17.738  68.520  1.00  0.00    -0.283 A  
HETATM   15  O   UNL     1     -10.486  19.261  67.883  1.00  0.00    -0.403 OA 
HETATM   16  H   UNL     1      -9.865  19.979  67.923  1.00  0.00     0.000 HD 
HETATM   17  O   UNL     1      -7.907  18.773  68.564  1.00  0.00    -0.315 OA 
HETATM   18  C   UNL     1      -8.360  16.456  68.819  1.00  0.00    -0.242 A  
HETATM   19  C   UNL     1      -9.264  15.391  68.752  1.00  0.00    -0.206 A  
HETATM   20  H   UNL     1      -7.001  18.611  68.801  1.00  0.00     0.000 HD 
ENDBRANCH   8  11
ENDBRANCH   4   8
TORSDOF 2
ENDMDL
MODEL      116
REMARK 921   NORMALIZED FREE ENERGY PREDICTED BY IDOCK:   -4.42 KCAL/MOL
REMARK 922        TOTAL FREE ENERGY PREDICTED BY IDOCK:   -5.20 KCAL/MOL
REMARK 923 INTER-LIGAND FREE ENERGY PREDICTED BY IDOCK:   -4.96 KCAL/MOL
REMARK 924 INTRA-LIGAND FREE ENERGY PREDICTED BY IDOCK:   -0.25 KCAL/MOL
REMARK 927      BINDING AFFINITY PREDICTED BY RF-SCORE:    0.00 PKD
ROOT
HETATM    1  N   UNL     1     -10.683  17.926  67.440  1.00  0.00    -0.343 NA 
HETATM    2  H1  UNL     1     -11.492  17.357  67.685  1.00  0.00     0.000 HD 
HETATM    3  H2  UNL     1     -10.878  18.591  66.691  1.00  0.00     0.000 HD 
HETATM    4  CA  UNL     1      -9.546  16.990  67.110  1.00  0.00    -0.253 C  
HETATM    5  OXT UNL     1      -7.209  17.415  66.522  1.00  0.00    -0.213 OA 
HETATM    6  C   UNL     1      -8.329  17.846  66.740  1.00  0.00    -0.252 C  
HETATM    7  O   UNL     1      -8.644  19.170  66.704  1.00  0.00    -0.293 OA 
ENDROOT
BRANCH   4   8
HETATM    8  C   UNL     1      -9.805  15.981  65.957  1.00  0.00    -0.337 C  
HETATM    9  O   UNL     1     -10.745  16.518  65.020  1.00  0.00    -0.662 OA 
HETATM   10  H   UNL     1     -10.903  15.902  64.315  1.00  0.00     0.000 HD 
BRANCH   8  11
HETATM   11  C   UNL     1     -10.341  14.655  66.474  1.00  0.00    -0.283 A  
HETATM   12  C   UNL     1      -9.540  13.807  67.264  1.00  0.00    -0.237 A  
HETATM   13  C   UNL     1     -10.028  12.573  67.675  1.00  0.00    -0.201 A  
HETATM   14  C   UNL     1     -11.312  12.173  67.321  1.00  0.00    -0.334 A  
HETATM   15  O   UNL     1      -9.273  11.710  68.420  1.00  0.00    -0.182 OA 
HETATM   16  H   UNL     1      -9.606  10.867  68.700  1.00  0.00     0.000 HD 
HETATM   17  O   UNL     1     -11.780  10.955  67.718  1.00  0.00    -0.581 OA 
HETATM   18  C   UNL     1     -12.127  12.999  66.562  1.00  0.00    -0.410 A  
HETATM   19  C   UNL     1     -11.641  14.239  66.134  1.00  0.00    -0.374 A  
HETATM   20  H   UNL     1     -12.658  10.682  67.476  1.00  0.00     0.000 HD 
ENDBRANCH   8  11
ENDBRANCH   4   8
TORSDOF 2
ENDMDL
MODEL      117
REMARK 921   NORMALIZED FREE ENERGY PREDICTED BY IDOCK:   -4.41 KCAL/MOL
REMARK 922        TOTAL FREE ENERGY PREDICTED BY IDOCK:   -5.20 KCAL/MOL
REMARK 923 INTER-LIGAND FREE ENERGY PREDICTED BY IDOCK:   -4.94 KCAL/MOL
REMARK 924 INTRA-LIGAND FREE ENERGY PREDICTED BY IDOCK:   -0.26 KCAL/MOL
REMARK 927      BINDING AFFINITY PREDICTED BY RF-SCORE:    0.00 PKD
ROOT
HETATM    1  N   UNL     1     -10.597  17.277  69.682  1.00  0.00    -0.290 NA 
HETATM    2  H1  UNL     1     -10.634  16.612  70.455  1.00  0.00     0.000 HD 
HETATM    3  H2  UNL     1     -11.350  17.964  69.715  1.00  0.00     0.000 HD 
HETATM    4  CA  UNL     1     -10.579  16.487  68.397  1.00  0.00    -0.323 C  
HETATM    5  OXT UNL     1     -10.391  17.190  66.060  1.00  0.00    -0.347 OA 
HETATM    6  C   UNL     1     -10.524  17.488  67.236  1.00  0.00    -0.327 C  
HETATM    7  O   UNL     1     -10.621  18.771  67.679  1.00  0.00    -0.415 OA 
ENDROOT
BRANCH   4   8
HETATM    8  C   UNL     1     -11.782  15.532  68.165  1.00  0.00    -0.229 C  
HETATM    9  O   UNL     1     -12.633  15.507  69.316  1.00  0.00    -0.594 OA 
HETATM   10  H   UNL     1     -13.369  14.923  69.174  1.00  0.00     0.000 HD 
BRANCH   8  11
HETATM   11  C   UNL     1     -11.327  14.111  67.868  1.00  0.00    -0.318 A  
HETATM   12  C   UNL     1     -10.304  13.504  68.622  1.00  0.00    -0.220 A  
HETATM   13  C   UNL     1      -9.861  12.229  68.296  1.00  0.00    -0.217 A  
HETATM   14  C   UNL     1     -10.433  11.539  67.232  1.00  0.00    -0.212 A  
HETATM   15  O   UNL     1      -8.853  11.616  68.986  1.00  0.00    -0.375 OA 
HETATM   16  H   UNL     1      -8.550  10.744  68.763  1.00  0.00     0.000 HD 
HETATM   17  O   UNL     1      -9.986  10.291  66.910  1.00  0.00    -0.191 OA 
HETATM   18  C   UNL     1     -11.456  12.107  66.488  1.00  0.00    -0.430 A  
HETATM   19  C   UNL     1     -11.901  13.395  66.802  1.00  0.00    -0.452 A  
HETATM   20  H   UNL     1     -10.377   9.820  66.183  1.00  0.00     0.000 HD 
ENDBRANCH   8  11
ENDBRANCH   4   8
TORSDOF 2
ENDMDL
MODEL      118
REMARK 921   NORMALIZED FREE ENERGY PREDICTED BY IDOCK:   -4.39 KCAL/MOL
REMARK 922        TOTAL FREE ENERGY PREDICTED BY IDOCK:   -5.17 KCAL/MOL
REMARK 923 INTER-LIGAND FREE ENERGY PREDICTED BY IDOCK:   -5.04 KCAL/MOL
REMARK 924 INTRA-LIGAND FREE ENERGY PREDICTED BY IDOCK:   -0.13 KCAL/MOL
REMARK 927      BINDING AFFINITY PREDICTED BY RF-SCORE:    0.00 PKD
ROOT
HETATM    1  N   UNL     1      -8.327   6.424  71.373  1.00  0.00    -0.122 NA 
HETATM    2  H1  UNL     1      -7.513   6.991  71.611  1.00  0.00     0.000 HD 
HETATM    3  H2  UNL     1      -8.840   6.785  70.568  1.00  0.00     0.000 HD 
HETATM    4  CA  UNL     1      -9.184   6.309  72.610  1.00  0.00    -0.142 C  
HETATM    5  OXT UNL     1     -11.252   5.076  73.045  1.00  0.00    -0.283 OA 
HETATM    6  C   UNL     1     -10.407   5.456  72.251  1.00  0.00    -0.209 C  
HETATM    7  O   UNL     1     -10.431   5.151  70.926  1.00  0.00    -0.237 OA 
ENDROOT
BRANCH   4   8
HETATM    8  C   UNL     1      -9.681   7.646  73.224  1.00  0.00    -0.288 C  
HETATM    9  O   UNL     1     -10.567   7.398  74.320  1.00  0.00    -0.473 OA 
HETATM   10  H   UNL     1     -10.871   8.216  74.697  1.00  0.00     0.000 HD 
BRANCH   8  11
HETATM   11  C   UNL     1     -10.407   8.505  72.200  1.00  0.00    -0.409 A  
HETATM   12  C   UNL     1     -11.813   8.602  72.200  1.00  0.00    -0.447 A  
HETATM   13  C   UNL     1     -12.459   9.342  71.219  1.00  0.00    -0.335 A  
HETATM   14  C   UNL     1     -11.725  10.000  70.239  1.00  0.00    -0.251 A  
HETATM   15  O   UNL     1     -13.822   9.439  71.170  1.00  0.00    -0.487 OA 
HETATM   16  H   UNL     1     -14.264   9.945  70.499  1.00  0.00     0.000 HD 
HETATM   17  O   UNL     1     -12.367  10.715  69.271  1.00  0.00    -0.664 OA 
HETATM   18  C   UNL     1     -10.339   9.936  70.229  1.00  0.00    -0.339 A  
HETATM   19  C   UNL     1      -9.680   9.185  71.207  1.00  0.00    -0.351 A  
HETATM   20  H   UNL     1     -11.865  11.165  68.601  1.00  0.00     0.000 HD 
ENDBRANCH   8  11
ENDBRANCH   4   8
TORSDOF 2
ENDMDL
MODEL      119
REMARK 921   NORMALIZED FREE ENERGY PREDICTED BY IDOCK:   -4.36 KCAL/MOL
REMARK 922        TOTAL FREE ENERGY PREDICTED BY IDOCK:   -5.14 KCAL/MOL
REMARK 923 INTER-LIGAND FREE ENERGY PREDICTED BY IDOCK:   -4.87 KCAL/MOL
REMARK 924 INTRA-LIGAND FREE ENERGY PREDICTED BY IDOCK:   -0.27 KCAL/MOL
REMARK 927      BINDING AFFINITY PREDICTED BY RF-SCORE:    0.00 PKD
ROOT
HETATM    1  N   UNL     1      -9.580   7.821  66.210  1.00  0.00    -0.396 NA 
HETATM    2  H1  UNL     1     -10.465   7.998  66.685  1.00  0.00     0.000 HD 
HETATM    3  H2  UNL     1      -8.821   7.604  66.855  1.00  0.00     0.000 HD 
HETATM    4  CA  UNL     1      -9.282   9.013  65.334  1.00  0.00    -0.176 C  
HETATM    5  OXT UNL     1      -7.464   9.457  63.757  1.00  0.00    -0.106 OA 
HETATM    6  C   UNL     1      -7.951   8.746  64.621  1.00  0.00    -0.135 C  
HETATM    7  O   UNL     1      -7.375   7.593  65.056  1.00  0.00    -0.066 OA 
ENDROOT
BRANCH   4   8
HETATM    8  C   UNL     1      -9.184  10.385  66.057  1.00  0.00    -0.167 C  
HETATM    9  O   UNL     1      -9.656  10.278  67.405  1.00  0.00    -0.154 OA 
HETATM   10  H   UNL     1      -9.596  11.116  67.847  1.00  0.00     0.000 HD 
BRANCH   8  11
HETATM   11  C   UNL     1      -9.994  11.458  65.346  1.00  0.00    -0.289 A  
HETATM   12  C   UNL     1     -10.073  12.768  65.860  1.00  0.00    -0.286 A  
HETATM   13  C   UNL     1     -10.867  13.717  65.229  1.00  0.00    -0.322 A  
HETATM   14  C   UNL     1     -11.577  13.385  64.081  1.00  0.00    -0.398 A  
HETATM   15  O   UNL     1     -10.990  14.990  65.712  1.00  0.00    -0.333 OA 
HETATM   16  H   UNL     1     -11.533  15.639  65.280  1.00  0.00     0.000 HD 
HETATM   17  O   UNL     1     -12.365  14.319  63.473  1.00  0.00    -1.080 OA 
HETATM   18  C   UNL     1     -11.500  12.109  63.544  1.00  0.00    -0.544 A  
HETATM   19  C   UNL     1     -10.712  11.143  64.179  1.00  0.00    -0.415 A  
HETATM   20  H   UNL     1     -12.850  14.092  62.688  1.00  0.00     0.000 HD 
ENDBRANCH   8  11
ENDBRANCH   4   8
TORSDOF 2
ENDMDL
MODEL      120
REMARK 921   NORMALIZED FREE ENERGY PREDICTED BY IDOCK:   -4.35 KCAL/MOL
REMARK 922        TOTAL FREE ENERGY PREDICTED BY IDOCK:   -5.12 KCAL/MOL
REMARK 923 INTER-LIGAND FREE ENERGY PREDICTED BY IDOCK:   -5.23 KCAL/MOL
REMARK 924 INTRA-LIGAND FREE ENERGY PREDICTED BY IDOCK:    0.11 KCAL/MOL
REMARK 927      BINDING AFFINITY PREDICTED BY RF-SCORE:    0.00 PKD
ROOT
HETATM    1  N   UNL     1     -10.229  10.260  66.798  1.00  0.00    -0.219 NA 
HETATM    2  H1  UNL     1      -9.459   9.790  66.322  1.00  0.00     0.000 HD 
HETATM    3  H2  UNL     1     -10.932  10.623  66.154  1.00  0.00     0.000 HD 
HETATM    4  CA  UNL     1      -9.637  11.330  67.683  1.00  0.00    -0.171 C  
HETATM    5  OXT UNL     1     -10.668  12.882  69.269  1.00  0.00    -0.086 OA 
HETATM    6  C   UNL     1     -10.795  12.036  68.399  1.00  0.00    -0.233 C  
HETATM    7  O   UNL     1     -12.001  11.587  67.958  1.00  0.00    -0.595 OA 
ENDROOT
BRANCH   4   8
HETATM    8  C   UNL     1      -8.772  12.405  66.969  1.00  0.00    -0.207 C  
HETATM    9  O   UNL     1      -8.089  13.219  67.928  1.00  0.00    -0.132 OA 
HETATM   10  H   UNL     1      -7.560  13.877  67.492  1.00  0.00     0.000 HD 
BRANCH   8  11
HETATM   11  C   UNL     1      -9.613  13.308  66.079  1.00  0.00    -0.174 A  
HETATM   12  C   UNL     1      -9.540  14.711  66.192  1.00  0.00    -0.336 A  
HETATM   13  C   UNL     1     -10.360  15.516  65.413  1.00  0.00    -0.394 A  
HETATM   14  C   UNL     1     -11.248  14.944  64.508  1.00  0.00    -0.264 A  
HETATM   15  O   UNL     1     -10.338  16.879  65.513  1.00  0.00    -0.572 OA 
HETATM   16  H   UNL     1     -10.899  17.429  64.980  1.00  0.00     0.000 HD 
HETATM   17  O   UNL     1     -12.060  15.741  63.755  1.00  0.00    -1.125 OA 
HETATM   18  C   UNL     1     -11.324  13.567  64.364  1.00  0.00    -0.407 A  
HETATM   19  C   UNL     1     -10.510  12.748  65.152  1.00  0.00    -0.320 A  
HETATM   20  H   UNL     1     -12.667  15.350  63.137  1.00  0.00     0.000 HD 
ENDBRANCH   8  11
ENDBRANCH   4   8
TORSDOF 2
ENDMDL
MODEL      121
REMARK 921   NORMALIZED FREE ENERGY PREDICTED BY IDOCK:   -4.34 KCAL/MOL
REMARK 922        TOTAL FREE ENERGY PREDICTED BY IDOCK:   -5.12 KCAL/MOL
REMARK 923 INTER-LIGAND FREE ENERGY PREDICTED BY IDOCK:   -4.85 KCAL/MOL
REMARK 924 INTRA-LIGAND FREE ENERGY PREDICTED BY IDOCK:   -0.27 KCAL/MOL
REMARK 927      BINDING AFFINITY PREDICTED BY RF-SCORE:    0.00 PKD
ROOT
HETATM    1  N   UNL     1     -10.898  18.576  65.000  1.00  0.00    -0.401 NA 
HETATM    2  H1  UNL     1     -11.309  17.758  64.549  1.00  0.00     0.000 HD 
HETATM    3  H2  UNL     1     -10.010  18.853  64.582  1.00  0.00     0.000 HD 
HETATM    4  CA  UNL     1     -10.784  18.279  66.475  1.00  0.00    -0.170 C  
HETATM    5  OXT UNL     1     -10.029  19.652  68.355  1.00  0.00    -0.392 OA 
HETATM    6  C   UNL     1     -10.165  19.509  67.151  1.00  0.00    -0.426 C  
HETATM    7  O   UNL     1      -9.798  20.448  66.237  1.00  0.00    -0.382 OA 
ENDROOT
BRANCH   4   8
HETATM    8  C   UNL     1      -9.941  17.032  66.858  1.00  0.00    -0.289 C  
HETATM    9  O   UNL     1      -9.590  16.283  65.689  1.00  0.00    -0.466 OA 
HETATM   10  H   UNL     1      -9.074  15.521  65.923  1.00  0.00     0.000 HD 
BRANCH   8  11
HETATM   11  C   UNL     1     -10.689  16.114  67.813  1.00  0.00    -0.325 A  
HETATM   12  C   UNL     1     -10.491  16.200  69.206  1.00  0.00    -0.267 A  
HETATM   13  C   UNL     1     -11.137  15.312  70.056  1.00  0.00    -0.287 A  
HETATM   14  C   UNL     1     -11.991  14.343  69.541  1.00  0.00    -0.330 A  
HETATM   15  O   UNL     1     -10.951  15.345  71.410  1.00  0.00    -0.437 OA 
HETATM   16  H   UNL     1     -11.392  14.738  71.992  1.00  0.00     0.000 HD 
HETATM   17  O   UNL     1     -12.613  13.467  70.381  1.00  0.00    -0.279 OA 
HETATM   18  C   UNL     1     -12.218  14.252  68.176  1.00  0.00    -0.164 A  
HETATM   19  C   UNL     1     -11.564  15.135  67.311  1.00  0.00    -0.231 A  
HETATM   20  H   UNL     1     -13.197  12.805  70.029  1.00  0.00     0.000 HD 
ENDBRANCH   8  11
ENDBRANCH   4   8
TORSDOF 2
ENDMDL
MODEL      122
REMARK 921   NORMALIZED FREE ENERGY PREDICTED BY IDOCK:   -4.33 KCAL/MOL
REMARK 922        TOTAL FREE ENERGY PREDICTED BY IDOCK:   -5.11 KCAL/MOL
REMARK 923 INTER-LIGAND FREE ENERGY PREDICTED BY IDOCK:   -4.82 KCAL/MOL
REMARK 924 INTRA-LIGAND FREE ENERGY PREDICTED BY IDOCK:   -0.29 KCAL/MOL
REMARK 927      BINDING AFFINITY PREDICTED BY RF-SCORE:    0.00 PKD
ROOT
HETATM    1  N   UNL     1     -10.695  13.012  69.511  1.00  0.00    -0.404 NA 
HETATM    2  H1  UNL     1     -10.375  12.640  70.405  1.00  0.00     0.000 HD 
HETATM    3  H2  UNL     1     -11.649  13.369  69.548  1.00  0.00     0.000 HD 
HETATM    4  CA  UNL     1     -10.513  11.931  68.474  1.00  0.00    -0.224 C  
HETATM    5  OXT UNL     1     -10.891  11.919  66.056  1.00  0.00    -0.277 OA 
HETATM    6  C   UNL     1     -10.994  12.490  67.129  1.00  0.00    -0.263 C  
HETATM    7  O   UNL     1     -11.540  13.728  67.271  1.00  0.00    -0.322 OA 
ENDROOT
BRANCH   4   8
HETATM    8  C   UNL     1     -11.257  10.594  68.743  1.00  0.00    -0.279 C  
HETATM    9  O   UNL     1     -12.659  10.824  68.918  1.00  0.00    -0.735 OA 
HETATM   10  H   UNL     1     -13.114  10.006  69.082  1.00  0.00     0.000 HD 
BRANCH   8  11
HETATM   11  C   UNL     1     -10.725   9.890  69.982  1.00  0.00    -0.338 A  
HETATM   12  C   UNL     1      -9.350   9.613  70.125  1.00  0.00    -0.294 A  
HETATM   13  C   UNL     1      -8.893   8.914  71.236  1.00  0.00    -0.231 A  
HETATM   14  C   UNL     1      -9.785   8.496  72.217  1.00  0.00    -0.310 A  
HETATM   15  O   UNL     1      -7.572   8.603  71.398  1.00  0.00    -0.096 OA 
HETATM   16  H   UNL     1      -7.260   8.126  72.157  1.00  0.00     0.000 HD 
HETATM   17  O   UNL     1      -9.331   7.801  73.299  1.00  0.00    -0.217 OA 
HETATM   18  C   UNL     1     -11.139   8.775  72.109  1.00  0.00    -0.406 A  
HETATM   19  C   UNL     1     -11.611   9.468  70.989  1.00  0.00    -0.419 A  
HETATM   20  H   UNL     1      -9.940   7.515  73.969  1.00  0.00     0.000 HD 
ENDBRANCH   8  11
ENDBRANCH   4   8
TORSDOF 2
ENDMDL
MODEL      123
REMARK 921   NORMALIZED FREE ENERGY PREDICTED BY IDOCK:   -4.29 KCAL/MOL
REMARK 922        TOTAL FREE ENERGY PREDICTED BY IDOCK:   -5.06 KCAL/MOL
REMARK 923 INTER-LIGAND FREE ENERGY PREDICTED BY IDOCK:   -4.81 KCAL/MOL
REMARK 924 INTRA-LIGAND FREE ENERGY PREDICTED BY IDOCK:   -0.25 KCAL/MOL
REMARK 927      BINDING AFFINITY PREDICTED BY RF-SCORE:    0.00 PKD
ROOT
HETATM    1  N   UNL     1      -9.128  10.630  66.583  1.00  0.00    -0.158 NA 
HETATM    2  H1  UNL     1      -8.854  10.349  67.525  1.00  0.00     0.000 HD 
HETATM    3  H2  UNL     1      -8.424  11.206  66.121  1.00  0.00     0.000 HD 
HETATM    4  CA  UNL     1     -10.471  11.311  66.679  1.00  0.00    -0.247 C  
HETATM    5  OXT UNL     1     -11.961  12.217  64.962  1.00  0.00    -0.385 OA 
HETATM    6  C   UNL     1     -10.882  11.734  65.264  1.00  0.00    -0.290 C  
HETATM    7  O   UNL     1      -9.893  11.485  64.363  1.00  0.00    -0.239 OA 
ENDROOT
BRANCH   4   8
HETATM    8  C   UNL     1     -10.540  12.558  67.603  1.00  0.00    -0.217 C  
HETATM    9  O   UNL     1      -9.224  12.977  67.982  1.00  0.00    -0.198 OA 
HETATM   10  H   UNL     1      -9.266  13.740  68.547  1.00  0.00     0.000 HD 
BRANCH   8  11
HETATM   11  C   UNL     1     -11.342  12.284  68.866  1.00  0.00    -0.337 A  
HETATM   12  C   UNL     1     -11.810  13.340  69.673  1.00  0.00    -0.391 A  
HETATM   13  C   UNL     1     -12.487  13.066  70.854  1.00  0.00    -0.310 A  
HETATM   14  C   UNL     1     -12.719  11.751  71.241  1.00  0.00    -0.316 A  
HETATM   15  O   UNL     1     -12.934  14.062  71.677  1.00  0.00    -0.320 OA 
HETATM   16  H   UNL     1     -13.397  13.875  72.485  1.00  0.00     0.000 HD 
HETATM   17  O   UNL     1     -13.374  11.489  72.408  1.00  0.00    -0.589 OA 
HETATM   18  C   UNL     1     -12.286  10.694  70.454  1.00  0.00    -0.428 A  
HETATM   19  C   UNL     1     -11.593  10.960  69.268  1.00  0.00    -0.388 A  
HETATM   20  H   UNL     1     -13.533  10.590  72.673  1.00  0.00     0.000 HD 
ENDBRANCH   8  11
ENDBRANCH   4   8
TORSDOF 2
ENDMDL
MODEL      124
REMARK 921   NORMALIZED FREE ENERGY PREDICTED BY IDOCK:   -4.29 KCAL/MOL
REMARK 922        TOTAL FREE ENERGY PREDICTED BY IDOCK:   -5.06 KCAL/MOL
REMARK 923 INTER-LIGAND FREE ENERGY PREDICTED BY IDOCK:   -4.68 KCAL/MOL
REMARK 924 INTRA-LIGAND FREE ENERGY PREDICTED BY IDOCK:   -0.38 KCAL/MOL
REMARK 927      BINDING AFFINITY PREDICTED BY RF-SCORE:    0.00 PKD
ROOT
HETATM    1  N   UNL     1      -9.051  10.577  69.720  1.00  0.00    -0.397 NA 
HETATM    2  H1  UNL     1      -9.165  11.499  69.299  1.00  0.00     0.000 HD 
HETATM    3  H2  UNL     1      -8.458   9.960  69.165  1.00  0.00     0.000 HD 
HETATM    4  CA  UNL     1     -10.428  10.008  69.959  1.00  0.00    -0.287 C  
HETATM    5  OXT UNL     1     -11.165   7.925  71.011  1.00  0.00    -0.260 OA 
HETATM    6  C   UNL     1     -10.256   8.621  70.590  1.00  0.00    -0.198 C  
HETATM    7  O   UNL     1      -8.946   8.259  70.648  1.00  0.00    -0.143 OA 
ENDROOT
BRANCH   4   8
HETATM    8  C   UNL     1     -11.336   9.867  68.706  1.00  0.00     0.007 C  
HETATM    9  O   UNL     1     -11.029   8.664  67.994  1.00  0.00    -0.475 OA 
HETATM   10  H   UNL     1     -11.584   8.577  67.229  1.00  0.00     0.000 HD 
BRANCH   8  11
HETATM   11  C   UNL     1     -11.177  11.045  67.756  1.00  0.00    -0.374 A  
HETATM   12  C   UNL     1     -11.856  12.258  67.985  1.00  0.00    -0.368 A  
HETATM   13  C   UNL     1     -11.746  13.299  67.072  1.00  0.00    -0.389 A  
HETATM   14  C   UNL     1     -10.956  13.157  65.938  1.00  0.00    -0.271 A  
HETATM   15  O   UNL     1     -12.410  14.482  67.245  1.00  0.00    -0.602 OA 
HETATM   16  H   UNL     1     -12.335  15.194  66.621  1.00  0.00     0.000 HD 
HETATM   17  O   UNL     1     -10.861  14.180  65.040  1.00  0.00    -0.350 OA 
HETATM   18  C   UNL     1     -10.261  11.980  65.701  1.00  0.00    -0.284 A  
HETATM   19  C   UNL     1     -10.375  10.921  66.608  1.00  0.00    -0.289 A  
HETATM   20  H   UNL     1     -10.321  14.082  64.264  1.00  0.00     0.000 HD 
ENDBRANCH   8  11
ENDBRANCH   4   8
TORSDOF 2
ENDMDL
MODEL      125
REMARK 921   NORMALIZED FREE ENERGY PREDICTED BY IDOCK:   -4.28 KCAL/MOL
REMARK 922        TOTAL FREE ENERGY PREDICTED BY IDOCK:   -5.05 KCAL/MOL
REMARK 923 INTER-LIGAND FREE ENERGY PREDICTED BY IDOCK:   -4.78 KCAL/MOL
REMARK 924 INTRA-LIGAND FREE ENERGY PREDICTED BY IDOCK:   -0.27 KCAL/MOL
REMARK 927      BINDING AFFINITY PREDICTED BY RF-SCORE:    0.00 PKD
ROOT
HETATM    1  N   UNL     1     -11.621  11.895  69.048  1.00  0.00    -0.291 NA 
HETATM    2  H1  UNL     1     -11.229  11.571  68.164  1.00  0.00     0.000 HD 
HETATM    3  H2  UNL     1     -12.607  11.659  69.155  1.00  0.00     0.000 HD 
HETATM    4  CA  UNL     1     -11.359  13.378  69.149  1.00  0.00    -0.280 C  
HETATM    5  OXT UNL     1     -11.823  14.992  70.929  1.00  0.00    -0.283 OA 
HETATM    6  C   UNL     1     -11.949  13.866  70.479  1.00  0.00    -0.314 C  
HETATM    7  O   UNL     1     -12.623  12.872  71.118  1.00  0.00    -0.370 OA 
ENDROOT
BRANCH   4   8
HETATM    8  C   UNL     1     -11.939  14.254  68.005  1.00  0.00    -0.318 C  
HETATM    9  O   UNL     1     -12.354  13.435  66.906  1.00  0.00    -0.328 OA 
HETATM   10  H   UNL     1     -12.709  13.971  66.206  1.00  0.00     0.000 HD 
BRANCH   8  11
HETATM   11  C   UNL     1     -10.924  15.267  67.497  1.00  0.00    -0.315 A  
HETATM   12  C   UNL     1     -11.071  16.641  67.771  1.00  0.00    -0.157 A  
HETATM   13  C   UNL     1     -10.167  17.556  67.246  1.00  0.00    -0.335 A  
HETATM   14  C   UNL     1      -9.106  17.121  66.460  1.00  0.00    -0.269 A  
HETATM   15  O   UNL     1     -10.291  18.899  67.467  1.00  0.00    -0.375 OA 
HETATM   16  H   UNL     1      -9.673  19.525  67.108  1.00  0.00     0.000 HD 
HETATM   17  O   UNL     1      -8.229  18.026  65.938  1.00  0.00    -0.517 OA 
HETATM   18  C   UNL     1      -8.929  15.771  66.193  1.00  0.00    -0.372 A  
HETATM   19  C   UNL     1      -9.840  14.844  66.708  1.00  0.00    -0.254 A  
HETATM   20  H   UNL     1      -7.504  17.729  65.401  1.00  0.00     0.000 HD 
ENDBRANCH   8  11
ENDBRANCH   4   8
TORSDOF 2
ENDMDL
MODEL      126
REMARK 921   NORMALIZED FREE ENERGY PREDICTED BY IDOCK:   -4.28 KCAL/MOL
REMARK 922        TOTAL FREE ENERGY PREDICTED BY IDOCK:   -5.05 KCAL/MOL
REMARK 923 INTER-LIGAND FREE ENERGY PREDICTED BY IDOCK:   -4.81 KCAL/MOL
REMARK 924 INTRA-LIGAND FREE ENERGY PREDICTED BY IDOCK:   -0.24 KCAL/MOL
REMARK 927      BINDING AFFINITY PREDICTED BY RF-SCORE:    0.00 PKD
ROOT
HETATM    1  N   UNL     1     -10.731  13.049  69.333  1.00  0.00    -0.431 NA 
HETATM    2  H1  UNL     1     -10.201  12.223  69.609  1.00  0.00     0.000 HD 
HETATM    3  H2  UNL     1     -11.615  13.139  69.834  1.00  0.00     0.000 HD 
HETATM    4  CA  UNL     1     -10.909  13.000  67.835  1.00  0.00    -0.242 C  
HETATM    5  OXT UNL     1     -11.940  14.572  66.268  1.00  0.00    -0.382 OA 
HETATM    6  C   UNL     1     -11.708  14.241  67.420  1.00  0.00    -0.394 C  
HETATM    7  O   UNL     1     -12.117  14.956  68.503  1.00  0.00    -0.263 OA 
ENDROOT
BRANCH   4   8
HETATM    8  C   UNL     1     -11.630  11.743  67.274  1.00  0.00    -0.269 C  
HETATM    9  O   UNL     1     -11.914  10.814  68.326  1.00  0.00    -0.768 OA 
HETATM   10  H   UNL     1     -12.355  10.046  67.983  1.00  0.00     0.000 HD 
BRANCH   8  11
HETATM   11  C   UNL     1     -10.795  11.036  66.218  1.00  0.00    -0.234 A  
HETATM   12  C   UNL     1     -10.330   9.721  66.420  1.00  0.00    -0.247 A  
HETATM   13  C   UNL     1      -9.517   9.116  65.470  1.00  0.00    -0.206 A  
HETATM   14  C   UNL     1      -9.168   9.797  64.309  1.00  0.00    -0.232 A  
HETATM   15  O   UNL     1      -9.025   7.852  65.642  1.00  0.00    -0.323 OA 
HETATM   16  H   UNL     1      -8.469   7.439  64.992  1.00  0.00     0.000 HD 
HETATM   17  O   UNL     1      -8.360   9.201  63.386  1.00  0.00    -0.173 OA 
HETATM   18  C   UNL     1      -9.630  11.085  64.078  1.00  0.00    -0.310 A  
HETATM   19  C   UNL     1     -10.440  11.706  65.034  1.00  0.00    -0.336 A  
HETATM   20  H   UNL     1      -8.122   9.667  62.593  1.00  0.00     0.000 HD 
ENDBRANCH   8  11
ENDBRANCH   4   8
TORSDOF 2
ENDMDL
MODEL      127
REMARK 921   NORMALIZED FREE ENERGY PREDICTED BY IDOCK:   -4.26 KCAL/MOL
REMARK 922        TOTAL FREE ENERGY PREDICTED BY IDOCK:   -5.02 KCAL/MOL
REMARK 923 INTER-LIGAND FREE ENERGY PREDICTED BY IDOCK:   -4.72 KCAL/MOL
REMARK 924 INTRA-LIGAND FREE ENERGY PREDICTED BY IDOCK:   -0.30 KCAL/MOL
REMARK 927      BINDING AFFINITY PREDICTED BY RF-SCORE:    0.00 PKD
ROOT
HETATM    1  N   UNL     1     -11.646   8.328  71.206  1.00  0.00    -0.275 NA 
HETATM    2  H1  UNL     1     -10.740   8.050  70.828  1.00  0.00     0.000 HD 
HETATM    3  H2  UNL     1     -12.430   7.926  70.691  1.00  0.00     0.000 HD 
HETATM    4  CA  UNL     1     -11.684   9.836  71.247  1.00  0.00    -0.394 C  
HETATM    5  OXT UNL     1     -13.373  11.397  72.082  1.00  0.00    -0.469 OA 
HETATM    6  C   UNL     1     -13.047  10.253  71.814  1.00  0.00    -0.465 C  
HETATM    7  O   UNL     1     -13.857   9.176  72.005  1.00  0.00    -0.413 OA 
ENDROOT
BRANCH   4   8
HETATM    8  C   UNL     1     -11.475  10.562  69.889  1.00  0.00    -0.310 C  
HETATM    9  O   UNL     1     -12.654  10.472  69.083  1.00  0.00    -0.740 OA 
HETATM   10  H   UNL     1     -12.527  10.916  68.253  1.00  0.00     0.000 HD 
BRANCH   8  11
HETATM   11  C   UNL     1     -10.309   9.975  69.107  1.00  0.00    -0.233 A  
HETATM   12  C   UNL     1     -10.472   9.544  67.775  1.00  0.00    -0.309 A  
HETATM   13  C   UNL     1      -9.412   8.955  67.100  1.00  0.00    -0.157 A  
HETATM   14  C   UNL     1      -8.181   8.798  67.727  1.00  0.00    -0.111 A  
HETATM   15  O   UNL     1      -9.537   8.501  65.816  1.00  0.00    -0.429 OA 
HETATM   16  H   UNL     1      -8.812   8.098  65.355  1.00  0.00     0.000 HD 
HETATM   17  O   UNL     1      -7.147   8.207  67.062  1.00  0.00    -0.076 OA 
HETATM   18  C   UNL     1      -7.990   9.231  69.031  1.00  0.00    -0.097 A  
HETATM   19  C   UNL     1      -9.055   9.816  69.723  1.00  0.00    -0.246 A  
HETATM   20  H   UNL     1      -6.306   8.099  67.491  1.00  0.00     0.000 HD 
ENDBRANCH   8  11
ENDBRANCH   4   8
TORSDOF 2
ENDMDL
MODEL      128
REMARK 921   NORMALIZED FREE ENERGY PREDICTED BY IDOCK:   -4.17 KCAL/MOL
REMARK 922        TOTAL FREE ENERGY PREDICTED BY IDOCK:   -4.92 KCAL/MOL
REMARK 923 INTER-LIGAND FREE ENERGY PREDICTED BY IDOCK:   -4.81 KCAL/MOL
REMARK 924 INTRA-LIGAND FREE ENERGY PREDICTED BY IDOCK:   -0.11 KCAL/MOL
REMARK 927      BINDING AFFINITY PREDICTED BY RF-SCORE:    0.00 PKD
ROOT
HETATM    1  N   UNL     1     -10.259  19.882  65.987  1.00  0.00    -0.495 NA 
HETATM    2  H1  UNL     1     -10.003  19.958  65.003  1.00  0.00     0.000 HD 
HETATM    3  H2  UNL     1      -9.868  20.633  66.557  1.00  0.00     0.000 HD 
HETATM    4  CA  UNL     1      -9.851  18.510  66.464  1.00  0.00    -0.363 C  
HETATM    5  OXT UNL     1     -10.145  17.383  68.616  1.00  0.00    -0.315 OA 
HETATM    6  C   UNL     1     -10.235  18.397  67.944  1.00  0.00    -0.381 C  
HETATM    7  O   UNL     1     -10.717  19.575  68.425  1.00  0.00    -0.233 OA 
ENDROOT
BRANCH   4   8
HETATM    8  C   UNL     1      -8.345  18.157  66.319  1.00  0.00    -0.198 C  
HETATM    9  O   UNL     1      -8.122  16.773  66.612  1.00  0.00    -0.207 OA 
HETATM   10  H   UNL     1      -7.202  16.557  66.523  1.00  0.00     0.000 HD 
BRANCH   8  11
HETATM   11  C   UNL     1      -7.476  18.993  67.247  1.00  0.00    -0.243 A  
HETATM   12  C   UNL     1      -6.947  18.447  68.433  1.00  0.00    -0.263 A  
HETATM   13  C   UNL     1      -6.207  19.245  69.297  1.00  0.00    -0.280 A  
HETATM   14  C   UNL     1      -5.973  20.581  68.990  1.00  0.00    -0.348 A  
HETATM   15  O   UNL     1      -5.700  18.760  70.470  1.00  0.00    -0.232 OA 
HETATM   16  H   UNL     1      -5.194  19.305  71.060  1.00  0.00     0.000 HD 
HETATM   17  O   UNL     1      -5.256  21.361  69.849  1.00  0.00    -0.555 OA 
HETATM   18  C   UNL     1      -6.466  21.136  67.819  1.00  0.00    -0.370 A  
HETATM   19  C   UNL     1      -7.222  20.343  66.948  1.00  0.00    -0.333 A  
HETATM   20  H   UNL     1      -5.096  22.274  69.640  1.00  0.00     0.000 HD 
ENDBRANCH   8  11
ENDBRANCH   4   8
TORSDOF 2
ENDMDL
MODEL      129
REMARK 921   NORMALIZED FREE ENERGY PREDICTED BY IDOCK:   -4.16 KCAL/MOL
REMARK 922        TOTAL FREE ENERGY PREDICTED BY IDOCK:   -4.91 KCAL/MOL
REMARK 923 INTER-LIGAND FREE ENERGY PREDICTED BY IDOCK:   -4.68 KCAL/MOL
REMARK 924 INTRA-LIGAND FREE ENERGY PREDICTED BY IDOCK:   -0.23 KCAL/MOL
REMARK 927      BINDING AFFINITY PREDICTED BY RF-SCORE:    0.00 PKD
ROOT
HETATM    1  N   UNL     1     -10.543  14.741  64.844  1.00  0.00    -0.499 NA 
HETATM    2  H1  UNL     1      -9.651  14.685  65.335  1.00  0.00     0.000 HD 
HETATM    3  H2  UNL     1     -11.275  15.182  65.402  1.00  0.00     0.000 HD 
HETATM    4  CA  UNL     1     -10.908  13.348  64.393  1.00  0.00    -0.406 C  
HETATM    5  OXT UNL     1     -12.786  12.509  63.068  1.00  0.00    -0.481 OA 
HETATM    6  C   UNL     1     -12.250  13.433  63.655  1.00  0.00    -0.414 C  
HETATM    7  O   UNL     1     -12.773  14.688  63.716  1.00  0.00    -0.778 OA 
ENDROOT
BRANCH   4   8
HETATM    8  C   UNL     1     -11.030  12.278  65.512  1.00  0.00    -0.298 C  
HETATM    9  O   UNL     1     -12.054  12.640  66.445  1.00  0.00    -0.530 OA 
HETATM   10  H   UNL     1     -12.129  11.985  67.129  1.00  0.00     0.000 HD 
BRANCH   8  11
HETATM   11  C   UNL     1      -9.724  12.102  66.272  1.00  0.00    -0.251 A  
HETATM   12  C   UNL     1      -9.496  12.774  67.489  1.00  0.00    -0.187 A  
HETATM   13  C   UNL     1      -8.274  12.647  68.136  1.00  0.00    -0.170 A  
HETATM   14  C   UNL     1      -7.273  11.848  67.594  1.00  0.00    -0.112 A  
HETATM   15  O   UNL     1      -8.005  13.304  69.304  1.00  0.00    -0.296 OA 
HETATM   16  H   UNL     1      -7.169  13.218  69.746  1.00  0.00     0.000 HD 
HETATM   17  O   UNL     1      -6.071  11.738  68.228  1.00  0.00    -0.049 OA 
HETATM   18  C   UNL     1      -7.481  11.160  66.407  1.00  0.00    -0.103 A  
HETATM   19  C   UNL     1      -8.705  11.290  65.743  1.00  0.00    -0.111 A  
HETATM   20  H   UNL     1      -5.387  11.192  67.858  1.00  0.00     0.000 HD 
ENDBRANCH   8  11
ENDBRANCH   4   8
TORSDOF 2
ENDMDL
MODEL      130
REMARK 921   NORMALIZED FREE ENERGY PREDICTED BY IDOCK:   -4.15 KCAL/MOL
REMARK 922        TOTAL FREE ENERGY PREDICTED BY IDOCK:   -4.90 KCAL/MOL
REMARK 923 INTER-LIGAND FREE ENERGY PREDICTED BY IDOCK:   -4.64 KCAL/MOL
REMARK 924 INTRA-LIGAND FREE ENERGY PREDICTED BY IDOCK:   -0.27 KCAL/MOL
REMARK 927      BINDING AFFINITY PREDICTED BY RF-SCORE:    0.00 PKD
ROOT
HETATM    1  N   UNL     1     -11.610  13.636  70.853  1.00  0.00    -0.372 NA 
HETATM    2  H1  UNL     1     -11.167  13.197  70.046  1.00  0.00     0.000 HD 
HETATM    3  H2  UNL     1     -12.614  13.463  70.896  1.00  0.00     0.000 HD 
HETATM    4  CA  UNL     1     -11.268  15.105  70.823  1.00  0.00    -0.286 C  
HETATM    5  OXT UNL     1     -11.778  16.925  72.377  1.00  0.00    -0.278 OA 
HETATM    6  C   UNL     1     -11.935  15.764  72.037  1.00  0.00    -0.479 C  
HETATM    7  O   UNL     1     -12.719  14.882  72.714  1.00  0.00    -0.355 OA 
ENDROOT
BRANCH   4   8
HETATM    8  C   UNL     1     -11.697  15.880  69.546  1.00  0.00    -0.326 C  
HETATM    9  O   UNL     1     -12.181  14.976  68.548  1.00  0.00    -0.585 OA 
HETATM   10  H   UNL     1     -12.444  15.450  67.767  1.00  0.00     0.000 HD 
BRANCH   8  11
HETATM   11  C   UNL     1     -10.546  16.681  68.957  1.00  0.00    -0.340 A  
HETATM   12  C   UNL     1     -10.643  18.078  68.793  1.00  0.00    -0.040 A  
HETATM   13  C   UNL     1      -9.605  18.782  68.196  1.00  0.00    -0.332 A  
HETATM   14  C   UNL     1      -8.461  18.117  67.769  1.00  0.00    -0.248 A  
HETATM   15  O   UNL     1      -9.672  20.132  67.995  1.00  0.00    -0.367 OA 
HETATM   16  H   UNL     1      -8.963  20.614  67.587  1.00  0.00     0.000 HD 
HETATM   17  O   UNL     1      -7.451  18.813  67.172  1.00  0.00    -0.222 OA 
HETATM   18  C   UNL     1      -8.334  16.746  67.937  1.00  0.00    -0.196 A  
HETATM   19  C   UNL     1      -9.378  16.027  68.527  1.00  0.00    -0.213 A  
HETATM   20  H   UNL     1      -6.669  18.358  66.880  1.00  0.00     0.000 HD 
ENDBRANCH   8  11
ENDBRANCH   4   8
TORSDOF 2
ENDMDL
MODEL      131
REMARK 921   NORMALIZED FREE ENERGY PREDICTED BY IDOCK:   -4.14 KCAL/MOL
REMARK 922        TOTAL FREE ENERGY PREDICTED BY IDOCK:   -4.89 KCAL/MOL
REMARK 923 INTER-LIGAND FREE ENERGY PREDICTED BY IDOCK:   -4.78 KCAL/MOL
REMARK 924 INTRA-LIGAND FREE ENERGY PREDICTED BY IDOCK:   -0.11 KCAL/MOL
REMARK 927      BINDING AFFINITY PREDICTED BY RF-SCORE:    0.00 PKD
ROOT
HETATM    1  N   UNL     1      -9.467  11.830  64.784  1.00  0.00    -0.428 NA 
HETATM    2  H1  UNL     1      -8.895  11.037  65.075  1.00  0.00     0.000 HD 
HETATM    3  H2  UNL     1      -9.025  12.729  64.979  1.00  0.00     0.000 HD 
HETATM    4  CA  UNL     1     -10.818  11.686  65.439  1.00  0.00    -0.280 C  
HETATM    5  OXT UNL     1     -12.861  13.023  65.262  1.00  0.00    -0.642 OA 
HETATM    6  C   UNL     1     -11.677  12.879  65.002  1.00  0.00    -0.344 C  
HETATM    7  O   UNL     1     -10.959  13.765  64.261  1.00  0.00    -0.367 OA 
ENDROOT
BRANCH   4   8
HETATM    8  C   UNL     1     -10.822  11.621  66.991  1.00  0.00    -0.266 C  
HETATM    9  O   UNL     1     -12.147  11.390  67.482  1.00  0.00    -0.592 OA 
HETATM   10  H   UNL     1     -12.149  11.349  68.431  1.00  0.00     0.000 HD 
BRANCH   8  11
HETATM   11  C   UNL     1     -10.294  12.905  67.613  1.00  0.00    -0.218 A  
HETATM   12  C   UNL     1     -11.124  13.723  68.405  1.00  0.00    -0.287 A  
HETATM   13  C   UNL     1     -10.640  14.922  68.912  1.00  0.00    -0.247 A  
HETATM   14  C   UNL     1      -9.331  15.316  68.653  1.00  0.00    -0.201 A  
HETATM   15  O   UNL     1     -11.421  15.755  69.663  1.00  0.00    -0.298 OA 
HETATM   16  H   UNL     1     -11.091  16.575  70.010  1.00  0.00     0.000 HD 
HETATM   17  O   UNL     1      -8.866  16.500  69.145  1.00  0.00    -0.239 OA 
HETATM   18  C   UNL     1      -8.489  14.518  67.894  1.00  0.00    -0.161 A  
HETATM   19  C   UNL     1      -8.971  13.314  67.369  1.00  0.00    -0.215 A  
HETATM   20  H   UNL     1      -7.973  16.769  68.968  1.00  0.00     0.000 HD 
ENDBRANCH   8  11
ENDBRANCH   4   8
TORSDOF 2
ENDMDL
MODEL      132
REMARK 921   NORMALIZED FREE ENERGY PREDICTED BY IDOCK:   -4.11 KCAL/MOL
REMARK 922        TOTAL FREE ENERGY PREDICTED BY IDOCK:   -4.86 KCAL/MOL
REMARK 923 INTER-LIGAND FREE ENERGY PREDICTED BY IDOCK:   -4.46 KCAL/MOL
REMARK 924 INTRA-LIGAND FREE ENERGY PREDICTED BY IDOCK:   -0.40 KCAL/MOL
REMARK 927      BINDING AFFINITY PREDICTED BY RF-SCORE:    0.00 PKD
ROOT
HETATM    1  N   UNL     1     -10.519  17.114  68.484  1.00  0.00    -0.359 NA 
HETATM    2  H1  UNL     1     -10.220  16.176  68.750  1.00  0.00     0.000 HD 
HETATM    3  H2  UNL     1     -11.465  17.135  68.101  1.00  0.00     0.000 HD 
HETATM    4  CA  UNL     1      -9.490  17.673  67.533  1.00  0.00    -0.256 C  
HETATM    5  OXT UNL     1      -9.288  19.863  66.460  1.00  0.00    -0.360 OA 
HETATM    6  C   UNL     1      -9.941  19.084  67.134  1.00  0.00    -0.338 C  
HETATM    7  O   UNL     1     -11.167  19.378  67.645  1.00  0.00    -0.274 OA 
ENDROOT
BRANCH   4   8
HETATM    8  C   UNL     1      -9.239  16.853  66.238  1.00  0.00    -0.267 C  
HETATM    9  O   UNL     1     -10.289  17.074  65.291  1.00  0.00    -0.626 OA 
HETATM   10  H   UNL     1     -10.136  16.573  64.499  1.00  0.00     0.000 HD 
BRANCH   8  11
HETATM   11  C   UNL     1      -9.149  15.361  66.521  1.00  0.00    -0.334 A  
HETATM   12  C   UNL     1     -10.168  14.481  66.105  1.00  0.00    -0.317 A  
HETATM   13  C   UNL     1     -10.097  13.132  66.427  1.00  0.00    -0.281 A  
HETATM   14  C   UNL     1      -9.016  12.640  67.150  1.00  0.00    -0.205 A  
HETATM   15  O   UNL     1     -11.077  12.251  66.064  1.00  0.00    -0.284 OA 
HETATM   16  H   UNL     1     -11.029  11.329  66.284  1.00  0.00     0.000 HD 
HETATM   17  O   UNL     1      -8.958  11.316  67.473  1.00  0.00    -0.139 OA 
HETATM   18  C   UNL     1      -7.991  13.482  67.554  1.00  0.00    -0.186 A  
HETATM   19  C   UNL     1      -8.059  14.844  67.244  1.00  0.00    -0.234 A  
HETATM   20  H   UNL     1      -8.220  10.979  67.967  1.00  0.00     0.000 HD 
ENDBRANCH   8  11
ENDBRANCH   4   8
TORSDOF 2
ENDMDL
MODEL      133
REMARK 921   NORMALIZED FREE ENERGY PREDICTED BY IDOCK:   -4.09 KCAL/MOL
REMARK 922        TOTAL FREE ENERGY PREDICTED BY IDOCK:   -4.84 KCAL/MOL
REMARK 923 INTER-LIGAND FREE ENERGY PREDICTED BY IDOCK:   -4.75 KCAL/MOL
REMARK 924 INTRA-LIGAND FREE ENERGY PREDICTED BY IDOCK:   -0.09 KCAL/MOL
REMARK 927      BINDING AFFINITY PREDICTED BY RF-SCORE:    0.00 PKD
ROOT
HETATM    1  N   UNL     1      -7.467   6.089  71.178  1.00  0.00    -0.083 NA 
HETATM    2  H1  UNL     1      -7.595   6.004  70.170  1.00  0.00     0.000 HD 
HETATM    3  H2  UNL     1      -7.515   5.192  71.661  1.00  0.00     0.000 HD 
HETATM    4  CA  UNL     1      -8.482   7.083  71.687  1.00  0.00    -0.115 C  
HETATM    5  OXT UNL     1      -8.874   8.008  73.919  1.00  0.00    -0.269 OA 
HETATM    6  C   UNL     1      -8.290   7.210  73.204  1.00  0.00    -0.112 C  
HETATM    7  O   UNL     1      -7.361   6.329  73.664  1.00  0.00    -0.087 OA 
ENDROOT
BRANCH   4   8
HETATM    8  C   UNL     1      -9.972   6.741  71.408  1.00  0.00    -0.179 C  
HETATM    9  O   UNL     1     -10.126   6.201  70.092  1.00  0.00    -0.172 OA 
HETATM   10  H   UNL     1     -11.037   5.992  69.921  1.00  0.00     0.000 HD 
BRANCH   8  11
HETATM   11  C   UNL     1     -10.867   7.965  71.537  1.00  0.00    -0.268 A  
HETATM   12  C   UNL     1     -12.024   7.936  72.341  1.00  0.00    -0.373 A  
HETATM   13  C   UNL     1     -12.860   9.044  72.396  1.00  0.00    -0.385 A  
HETATM   14  C   UNL     1     -12.555  10.189  71.670  1.00  0.00    -0.434 A  
HETATM   15  O   UNL     1     -14.005   9.046  73.143  1.00  0.00    -1.130 OA 
HETATM   16  H   UNL     1     -14.577   9.803  73.181  1.00  0.00     0.000 HD 
HETATM   17  O   UNL     1     -13.388  11.269  71.720  1.00  0.00    -0.391 OA 
HETATM   18  C   UNL     1     -11.412  10.249  70.887  1.00  0.00    -0.425 A  
HETATM   19  C   UNL     1     -10.569   9.135  70.817  1.00  0.00    -0.324 A  
HETATM   20  H   UNL     1     -13.180  12.052  71.223  1.00  0.00     0.000 HD 
ENDBRANCH   8  11
ENDBRANCH   4   8
TORSDOF 2
ENDMDL
MODEL      134
REMARK 921   NORMALIZED FREE ENERGY PREDICTED BY IDOCK:   -4.09 KCAL/MOL
REMARK 922        TOTAL FREE ENERGY PREDICTED BY IDOCK:   -4.84 KCAL/MOL
REMARK 923 INTER-LIGAND FREE ENERGY PREDICTED BY IDOCK:   -4.63 KCAL/MOL
REMARK 924 INTRA-LIGAND FREE ENERGY PREDICTED BY IDOCK:   -0.21 KCAL/MOL
REMARK 927      BINDING AFFINITY PREDICTED BY RF-SCORE:    0.00 PKD
ROOT
HETATM    1  N   UNL     1      -9.050   9.371  64.397  1.00  0.00    -0.403 NA 
HETATM    2  H1  UNL     1      -8.871   8.873  65.269  1.00  0.00     0.000 HD 
HETATM    3  H2  UNL     1      -8.195   9.693  63.942  1.00  0.00     0.000 HD 
HETATM    4  CA  UNL     1     -10.012  10.494  64.698  1.00  0.00    -0.347 C  
HETATM    5  OXT UNL     1     -11.093  12.141  63.247  1.00  0.00    -0.410 OA 
HETATM    6  C   UNL     1     -10.280  11.243  63.387  1.00  0.00    -0.403 C  
HETATM    7  O   UNL     1      -9.505  10.767  62.374  1.00  0.00    -0.251 OA 
ENDROOT
BRANCH   4   8
HETATM    8  C   UNL     1      -9.548  11.523  65.765  1.00  0.00    -0.235 C  
HETATM    9  O   UNL     1      -8.133  11.438  65.966  1.00  0.00    -0.348 OA 
HETATM   10  H   UNL     1      -7.850  12.067  66.618  1.00  0.00     0.000 HD 
BRANCH   8  11
HETATM   11  C   UNL     1     -10.240  11.303  67.102  1.00  0.00    -0.235 A  
HETATM   12  C   UNL     1     -10.724  12.391  67.857  1.00  0.00    -0.245 A  
HETATM   13  C   UNL     1     -11.297  12.173  69.103  1.00  0.00    -0.276 A  
HETATM   14  C   UNL     1     -11.409  10.882  69.607  1.00  0.00    -0.292 A  
HETATM   15  O   UNL     1     -11.754  13.204  69.876  1.00  0.00    -0.398 OA 
HETATM   16  H   UNL     1     -12.146  13.055  70.728  1.00  0.00     0.000 HD 
HETATM   17  O   UNL     1     -11.962  10.677  70.837  1.00  0.00    -0.332 OA 
HETATM   18  C   UNL     1     -10.959   9.794  68.875  1.00  0.00    -0.183 A  
HETATM   19  C   UNL     1     -10.370  10.004  67.624  1.00  0.00    -0.272 A  
HETATM   20  H   UNL     1     -12.039   9.795  71.182  1.00  0.00     0.000 HD 
ENDBRANCH   8  11
ENDBRANCH   4   8
TORSDOF 2
ENDMDL
MODEL      135
REMARK 921   NORMALIZED FREE ENERGY PREDICTED BY IDOCK:   -4.07 KCAL/MOL
REMARK 922        TOTAL FREE ENERGY PREDICTED BY IDOCK:   -4.82 KCAL/MOL
REMARK 923 INTER-LIGAND FREE ENERGY PREDICTED BY IDOCK:   -4.67 KCAL/MOL
REMARK 924 INTRA-LIGAND FREE ENERGY PREDICTED BY IDOCK:   -0.14 KCAL/MOL
REMARK 927      BINDING AFFINITY PREDICTED BY RF-SCORE:    0.00 PKD
ROOT
HETATM    1  N   UNL     1     -10.898  13.289  64.037  1.00  0.00    -0.540 NA 
HETATM    2  H1  UNL     1     -10.954  12.278  63.912  1.00  0.00     0.000 HD 
HETATM    3  H2  UNL     1     -10.044  13.689  63.649  1.00  0.00     0.000 HD 
HETATM    4  CA  UNL     1     -11.066  13.579  65.508  1.00  0.00    -0.294 C  
HETATM    5  OXT UNL     1     -11.182  15.687  66.746  1.00  0.00    -0.231 OA 
HETATM    6  C   UNL     1     -10.982  15.099  65.696  1.00  0.00    -0.355 C  
HETATM    7  O   UNL     1     -10.672  15.728  64.530  1.00  0.00    -0.449 OA 
ENDROOT
BRANCH   4   8
HETATM    8  C   UNL     1     -10.036  12.909  66.459  1.00  0.00    -0.261 C  
HETATM    9  O   UNL     1      -8.744  13.504  66.300  1.00  0.00    -0.424 OA 
HETATM   10  H   UNL     1      -8.114  13.094  66.881  1.00  0.00     0.000 HD 
BRANCH   8  11
HETATM   11  C   UNL     1      -9.916  11.415  66.201  1.00  0.00    -0.265 A  
HETATM   12  C   UNL     1     -10.650  10.485  66.965  1.00  0.00    -0.310 A  
HETATM   13  C   UNL     1     -10.480   9.123  66.755  1.00  0.00    -0.196 A  
HETATM   14  C   UNL     1      -9.595   8.669  65.783  1.00  0.00    -0.064 A  
HETATM   15  O   UNL     1     -11.153   8.190  67.492  1.00  0.00    -0.483 OA 
HETATM   16  H   UNL     1     -11.036   7.258  67.349  1.00  0.00     0.000 HD 
HETATM   17  O   UNL     1      -9.424   7.329  65.590  1.00  0.00    -0.370 OA 
HETATM   18  C   UNL     1      -8.877   9.564  65.004  1.00  0.00    -0.232 A  
HETATM   19  C   UNL     1      -9.033  10.938  65.216  1.00  0.00    -0.202 A  
HETATM   20  H   UNL     1      -8.820   7.019  64.926  1.00  0.00     0.000 HD 
ENDBRANCH   8  11
ENDBRANCH   4   8
TORSDOF 2
ENDMDL
MODEL      136
REMARK 921   NORMALIZED FREE ENERGY PREDICTED BY IDOCK:   -4.05 KCAL/MOL
REMARK 922        TOTAL FREE ENERGY PREDICTED BY IDOCK:   -4.79 KCAL/MOL
REMARK 923 INTER-LIGAND FREE ENERGY PREDICTED BY IDOCK:   -4.79 KCAL/MOL
REMARK 924 INTRA-LIGAND FREE ENERGY PREDICTED BY IDOCK:    0.00 KCAL/MOL
REMARK 927      BINDING AFFINITY PREDICTED BY RF-SCORE:    0.00 PKD
ROOT
HETATM    1  N   UNL     1      -8.117  18.675  68.605  1.00  0.00    -0.333 NA 
HETATM    2  H1  UNL     1      -7.199  18.397  68.951  1.00  0.00     0.000 HD 
HETATM    3  H2  UNL     1      -8.852  18.571  69.305  1.00  0.00     0.000 HD 
HETATM    4  CA  UNL     1      -8.390  17.891  67.346  1.00  0.00    -0.224 C  
HETATM    5  OXT UNL     1     -10.259  17.949  65.768  1.00  0.00    -0.577 OA 
HETATM    6  C   UNL     1      -9.771  18.309  66.826  1.00  0.00    -0.322 C  
HETATM    7  O   UNL     1     -10.390  19.161  67.688  1.00  0.00    -0.377 OA 
ENDROOT
BRANCH   4   8
HETATM    8  C   UNL     1      -8.366  16.344  67.485  1.00  0.00    -0.161 C  
HETATM    9  O   UNL     1      -8.237  15.725  66.201  1.00  0.00    -0.311 OA 
HETATM   10  H   UNL     1      -8.223  14.779  66.286  1.00  0.00     0.000 HD 
BRANCH   8  11
HETATM   11  C   UNL     1      -9.628  15.816  68.152  1.00  0.00    -0.199 A  
HETATM   12  C   UNL     1     -10.565  15.052  67.429  1.00  0.00    -0.271 A  
HETATM   13  C   UNL     1     -11.740  14.633  68.040  1.00  0.00    -0.342 A  
HETATM   14  C   UNL     1     -11.991  14.952  69.370  1.00  0.00    -0.301 A  
HETATM   15  O   UNL     1     -12.686  13.912  67.366  1.00  0.00    -0.312 OA 
HETATM   16  H   UNL     1     -13.489  13.626  67.783  1.00  0.00     0.000 HD 
HETATM   17  O   UNL     1     -13.152  14.546  69.960  1.00  0.00    -0.521 OA 
HETATM   18  C   UNL     1     -11.074  15.685  70.108  1.00  0.00    -0.347 A  
HETATM   19  C   UNL     1      -9.894  16.122  69.499  1.00  0.00    -0.198 A  
HETATM   20  H   UNL     1     -13.324  14.764  70.869  1.00  0.00     0.000 HD 
ENDBRANCH   8  11
ENDBRANCH   4   8
TORSDOF 2
ENDMDL
MODEL      137
REMARK 921   NORMALIZED FREE ENERGY PREDICTED BY IDOCK:   -4.04 KCAL/MOL
REMARK 922        TOTAL FREE ENERGY PREDICTED BY IDOCK:   -4.78 KCAL/MOL
REMARK 923 INTER-LIGAND FREE ENERGY PREDICTED BY IDOCK:   -4.53 KCAL/MOL
REMARK 924 INTRA-LIGAND FREE ENERGY PREDICTED BY IDOCK:   -0.25 KCAL/MOL
REMARK 927      BINDING AFFINITY PREDICTED BY RF-SCORE:    0.00 PKD
ROOT
HETATM    1  N   UNL     1      -9.082  15.097  70.080  1.00  0.00    -0.369 NA 
HETATM    2  H1  UNL     1      -9.111  14.237  70.628  1.00  0.00     0.000 HD 
HETATM    3  H2  UNL     1      -9.541  15.880  70.546  1.00  0.00     0.000 HD 
HETATM    4  CA  UNL     1      -9.671  14.797  68.723  1.00  0.00    -0.222 C  
HETATM    5  OXT UNL     1      -9.927  16.180  66.721  1.00  0.00    -0.242 OA 
HETATM    6  C   UNL     1      -9.628  16.090  67.900  1.00  0.00    -0.219 C  
HETATM    7  O   UNL     1      -9.190  17.141  68.646  1.00  0.00    -0.257 OA 
ENDROOT
BRANCH   4   8
HETATM    8  C   UNL     1     -11.127  14.258  68.714  1.00  0.00    -0.256 C  
HETATM    9  O   UNL     1     -11.778  14.544  69.957  1.00  0.00    -0.271 OA 
HETATM   10  H   UNL     1     -12.669  14.214  69.952  1.00  0.00     0.000 HD 
BRANCH   8  11
HETATM   11  C   UNL     1     -11.174  12.755  68.479  1.00  0.00    -0.314 A  
HETATM   12  C   UNL     1     -11.664  11.881  69.468  1.00  0.00    -0.410 A  
HETATM   13  C   UNL     1     -11.641  10.508  69.258  1.00  0.00    -0.236 A  
HETATM   14  C   UNL     1     -11.146   9.990  68.066  1.00  0.00    -0.201 A  
HETATM   15  O   UNL     1     -12.083   9.626  70.204  1.00  0.00    -0.466 OA 
HETATM   16  H   UNL     1     -12.067   8.687  70.060  1.00  0.00     0.000 HD 
HETATM   17  O   UNL     1     -11.115   8.640  67.871  1.00  0.00    -0.481 OA 
HETATM   18  C   UNL     1     -10.676  10.831  67.069  1.00  0.00    -0.320 A  
HETATM   19  C   UNL     1     -10.685  12.215  67.276  1.00  0.00    -0.264 A  
HETATM   20  H   UNL     1     -10.776   8.286  67.057  1.00  0.00     0.000 HD 
ENDBRANCH   8  11
ENDBRANCH   4   8
TORSDOF 2
ENDMDL
MODEL      138
REMARK 921   NORMALIZED FREE ENERGY PREDICTED BY IDOCK:   -4.03 KCAL/MOL
REMARK 922        TOTAL FREE ENERGY PREDICTED BY IDOCK:   -4.77 KCAL/MOL
REMARK 923 INTER-LIGAND FREE ENERGY PREDICTED BY IDOCK:   -4.38 KCAL/MOL
REMARK 924 INTRA-LIGAND FREE ENERGY PREDICTED BY IDOCK:   -0.39 KCAL/MOL
REMARK 927      BINDING AFFINITY PREDICTED BY RF-SCORE:    0.00 PKD
ROOT
HETATM    1  N   UNL     1      -8.848   8.590  72.633  1.00  0.00    -0.361 NA 
HETATM    2  H1  UNL     1      -9.068   9.506  72.242  1.00  0.00     0.000 HD 
HETATM    3  H2  UNL     1      -8.233   8.041  72.033  1.00  0.00     0.000 HD 
HETATM    4  CA  UNL     1     -10.152   7.893  72.932  1.00  0.00    -0.310 C  
HETATM    5  OXT UNL     1     -10.639   5.732  73.971  1.00  0.00    -0.271 OA 
HETATM    6  C   UNL     1      -9.821   6.516  73.520  1.00  0.00    -0.193 C  
HETATM    7  O   UNL     1      -8.482   6.275  73.498  1.00  0.00    -0.121 OA 
ENDROOT
BRANCH   4   8
HETATM    8  C   UNL     1     -11.112   7.694  71.727  1.00  0.00    -0.242 C  
HETATM    9  O   UNL     1     -10.620   6.671  70.855  1.00  0.00    -0.215 OA 
HETATM   10  H   UNL     1     -11.207   6.548  70.118  1.00  0.00     0.000 HD 
BRANCH   8  11
HETATM   11  C   UNL     1     -11.284   8.974  70.922  1.00  0.00    -0.348 A  
HETATM   12  C   UNL     1     -11.995  10.071  71.446  1.00  0.00    -0.470 A  
HETATM   13  C   UNL     1     -12.193  11.207  70.671  1.00  0.00    -0.397 A  
HETATM   14  C   UNL     1     -11.680  11.273  69.381  1.00  0.00    -0.339 A  
HETATM   15  O   UNL     1     -12.900  12.281  71.134  1.00  0.00    -0.319 OA 
HETATM   16  H   UNL     1     -13.035  13.057  70.604  1.00  0.00     0.000 HD 
HETATM   17  O   UNL     1     -11.888  12.387  68.621  1.00  0.00    -0.309 OA 
HETATM   18  C   UNL     1     -10.958  10.214  68.850  1.00  0.00    -0.261 A  
HETATM   19  C   UNL     1     -10.764   9.062  69.618  1.00  0.00    -0.228 A  
HETATM   20  H   UNL     1     -11.537  12.432  67.739  1.00  0.00     0.000 HD 
ENDBRANCH   8  11
ENDBRANCH   4   8
TORSDOF 2
ENDMDL
MODEL      139
REMARK 921   NORMALIZED FREE ENERGY PREDICTED BY IDOCK:   -4.03 KCAL/MOL
REMARK 922        TOTAL FREE ENERGY PREDICTED BY IDOCK:   -4.77 KCAL/MOL
REMARK 923 INTER-LIGAND FREE ENERGY PREDICTED BY IDOCK:   -4.49 KCAL/MOL
REMARK 924 INTRA-LIGAND FREE ENERGY PREDICTED BY IDOCK:   -0.27 KCAL/MOL
REMARK 927      BINDING AFFINITY PREDICTED BY RF-SCORE:    0.00 PKD
ROOT
HETATM    1  N   UNL     1      -9.974   8.524  71.982  1.00  0.00    -0.284 NA 
HETATM    2  H1  UNL     1      -9.030   8.448  71.603  1.00  0.00     0.000 HD 
HETATM    3  H2  UNL     1     -10.439   7.620  72.071  1.00  0.00     0.000 HD 
HETATM    4  CA  UNL     1     -10.740   9.494  71.116  1.00  0.00    -0.338 C  
HETATM    5  OXT UNL     1     -13.012  10.386  71.292  1.00  0.00    -0.365 OA 
HETATM    6  C   UNL     1     -12.159   9.607  71.686  1.00  0.00    -0.402 C  
HETATM    7  O   UNL     1     -12.354   8.737  72.714  1.00  0.00    -0.292 OA 
ENDROOT
BRANCH   4   8
HETATM    8  C   UNL     1     -10.844   9.129  69.609  1.00  0.00    -0.197 C  
HETATM    9  O   UNL     1      -9.947   8.061  69.287  1.00  0.00    -0.182 OA 
HETATM   10  H   UNL     1     -10.011   7.838  68.366  1.00  0.00     0.000 HD 
BRANCH   8  11
HETATM   11  C   UNL     1     -10.522  10.318  68.716  1.00  0.00    -0.222 A  
HETATM   12  C   UNL     1     -11.497  10.868  67.860  1.00  0.00    -0.344 A  
HETATM   13  C   UNL     1     -11.164  11.913  67.008  1.00  0.00    -0.323 A  
HETATM   14  C   UNL     1      -9.874  12.431  67.003  1.00  0.00    -0.211 A  
HETATM   15  O   UNL     1     -12.075  12.456  66.144  1.00  0.00    -0.611 OA 
HETATM   16  H   UNL     1     -11.847  13.170  65.561  1.00  0.00     0.000 HD 
HETATM   17  O   UNL     1      -9.552  13.449  66.155  1.00  0.00    -0.365 OA 
HETATM   18  C   UNL     1      -8.902  11.920  67.850  1.00  0.00    -0.172 A  
HETATM   19  C   UNL     1      -9.224  10.860  68.704  1.00  0.00    -0.187 A  
HETATM   20  H   UNL     1      -8.670  13.803  66.151  1.00  0.00     0.000 HD 
ENDBRANCH   8  11
ENDBRANCH   4   8
TORSDOF 2
ENDMDL
MODEL      140
REMARK 921   NORMALIZED FREE ENERGY PREDICTED BY IDOCK:   -4.02 KCAL/MOL
REMARK 922        TOTAL FREE ENERGY PREDICTED BY IDOCK:   -4.76 KCAL/MOL
REMARK 923 INTER-LIGAND FREE ENERGY PREDICTED BY IDOCK:   -4.56 KCAL/MOL
REMARK 924 INTRA-LIGAND FREE ENERGY PREDICTED BY IDOCK:   -0.20 KCAL/MOL
REMARK 927      BINDING AFFINITY PREDICTED BY RF-SCORE:    0.00 PKD
ROOT
HETATM    1  N   UNL     1     -11.835   9.280  70.193  1.00  0.00    -0.462 NA 
HETATM    2  H1  UNL     1     -12.712   9.286  69.673  1.00  0.00     0.000 HD 
HETATM    3  H2  UNL     1     -11.035   9.018  69.617  1.00  0.00     0.000 HD 
HETATM    4  CA  UNL     1     -12.016   8.379  71.390  1.00  0.00    -0.297 C  
HETATM    5  OXT UNL     1     -10.525   7.829  73.251  1.00  0.00    -0.349 OA 
HETATM    6  C   UNL     1     -10.697   8.370  72.171  1.00  0.00    -0.337 C  
HETATM    7  O   UNL     1      -9.727   9.067  71.518  1.00  0.00    -0.293 OA 
ENDROOT
BRANCH   4   8
HETATM    8  C   UNL     1     -12.415   6.909  71.084  1.00  0.00    -0.349 C  
HETATM    9  O   UNL     1     -12.599   6.175  72.299  1.00  0.00    -0.501 OA 
HETATM   10  H   UNL     1     -12.843   5.276  72.113  1.00  0.00     0.000 HD 
BRANCH   8  11
HETATM   11  C   UNL     1     -11.364   6.200  70.244  1.00  0.00    -0.414 A  
HETATM   12  C   UNL     1     -11.275   6.421  68.856  1.00  0.00    -0.385 A  
HETATM   13  C   UNL     1     -10.348   5.717  68.097  1.00  0.00    -0.197 A  
HETATM   14  C   UNL     1      -9.496   4.801  68.704  1.00  0.00    -0.150 A  
HETATM   15  O   UNL     1     -10.248   5.883  66.744  1.00  0.00    -0.179 OA 
HETATM   16  H   UNL     1      -9.615   5.402  66.225  1.00  0.00     0.000 HD 
HETATM   17  O   UNL     1      -8.596   4.105  67.951  1.00  0.00    -0.094 OA 
HETATM   18  C   UNL     1      -9.551   4.581  70.072  1.00  0.00    -0.267 A  
HETATM   19  C   UNL     1     -10.488   5.277  70.843  1.00  0.00    -0.285 A  
HETATM   20  H   UNL     1      -8.014   3.479  68.366  1.00  0.00     0.000 HD 
ENDBRANCH   8  11
ENDBRANCH   4   8
TORSDOF 2
ENDMDL
MODEL      141
REMARK 921   NORMALIZED FREE ENERGY PREDICTED BY IDOCK:   -4.01 KCAL/MOL
REMARK 922        TOTAL FREE ENERGY PREDICTED BY IDOCK:   -4.75 KCAL/MOL
REMARK 923 INTER-LIGAND FREE ENERGY PREDICTED BY IDOCK:   -4.47 KCAL/MOL
REMARK 924 INTRA-LIGAND FREE ENERGY PREDICTED BY IDOCK:   -0.28 KCAL/MOL
REMARK 927      BINDING AFFINITY PREDICTED BY RF-SCORE:    0.00 PKD
ROOT
HETATM    1  N   UNL     1     -11.763  12.325  70.071  1.00  0.00    -0.503 NA 
HETATM    2  H1  UNL     1     -11.194  12.067  69.265  1.00  0.00     0.000 HD 
HETATM    3  H2  UNL     1     -12.749  12.089  69.952  1.00  0.00     0.000 HD 
HETATM    4  CA  UNL     1     -11.541  13.793  70.339  1.00  0.00    -0.071 C  
HETATM    5  OXT UNL     1     -12.376  15.268  72.105  1.00  0.00    -0.317 OA 
HETATM    6  C   UNL     1     -12.397  14.181  71.551  1.00  0.00    -0.312 C  
HETATM    7  O   UNL     1     -13.181  13.146  71.958  1.00  0.00    -0.429 OA 
ENDROOT
BRANCH   4   8
HETATM    8  C   UNL     1     -11.878  14.760  69.171  1.00  0.00    -0.305 C  
HETATM    9  O   UNL     1     -12.301  14.027  68.017  1.00  0.00    -0.523 OA 
HETATM   10  H   UNL     1     -12.508  14.618  67.303  1.00  0.00     0.000 HD 
BRANCH   8  11
HETATM   11  C   UNL     1     -10.685  15.621  68.786  1.00  0.00    -0.250 A  
HETATM   12  C   UNL     1      -9.425  15.426  69.387  1.00  0.00    -0.267 A  
HETATM   13  C   UNL     1      -8.364  16.263  69.066  1.00  0.00    -0.239 A  
HETATM   14  C   UNL     1      -8.534  17.289  68.143  1.00  0.00    -0.238 A  
HETATM   15  O   UNL     1      -7.134  16.122  69.647  1.00  0.00    -0.197 OA 
HETATM   16  H   UNL     1      -6.409  16.695  69.428  1.00  0.00     0.000 HD 
HETATM   17  O   UNL     1      -7.491  18.114  67.842  1.00  0.00    -0.219 OA 
HETATM   18  C   UNL     1      -9.759  17.488  67.524  1.00  0.00    -0.278 A  
HETATM   19  C   UNL     1     -10.836  16.658  67.848  1.00  0.00    -0.321 A  
HETATM   20  H   UNL     1      -7.607  18.815  67.212  1.00  0.00     0.000 HD 
ENDBRANCH   8  11
ENDBRANCH   4   8
TORSDOF 2
ENDMDL
MODEL      142
REMARK 921   NORMALIZED FREE ENERGY PREDICTED BY IDOCK:   -4.00 KCAL/MOL
REMARK 922        TOTAL FREE ENERGY PREDICTED BY IDOCK:   -4.74 KCAL/MOL
REMARK 923 INTER-LIGAND FREE ENERGY PREDICTED BY IDOCK:   -4.41 KCAL/MOL
REMARK 924 INTRA-LIGAND FREE ENERGY PREDICTED BY IDOCK:   -0.33 KCAL/MOL
REMARK 927      BINDING AFFINITY PREDICTED BY RF-SCORE:    0.00 PKD
ROOT
HETATM    1  N   UNL     1      -8.609  13.625  68.443  1.00  0.00    -0.216 NA 
HETATM    2  H1  UNL     1      -8.341  12.837  67.853  1.00  0.00     0.000 HD 
HETATM    3  H2  UNL     1      -8.808  13.350  69.405  1.00  0.00     0.000 HD 
HETATM    4  CA  UNL     1      -9.771  14.321  67.779  1.00  0.00    -0.222 C  
HETATM    5  OXT UNL     1     -11.010  16.345  68.378  1.00  0.00    -0.326 OA 
HETATM    6  C   UNL     1     -10.174  15.505  68.667  1.00  0.00    -0.216 C  
HETATM    7  O   UNL     1      -9.463  15.522  69.827  1.00  0.00    -0.285 OA 
ENDROOT
BRANCH   4   8
HETATM    8  C   UNL     1     -11.032  13.450  67.521  1.00  0.00    -0.267 C  
HETATM    9  O   UNL     1     -11.849  13.387  68.695  1.00  0.00    -0.329 OA 
HETATM   10  H   UNL     1     -12.620  12.855  68.537  1.00  0.00     0.000 HD 
BRANCH   8  11
HETATM   11  C   UNL     1     -10.666  12.032  67.110  1.00  0.00    -0.277 A  
HETATM   12  C   UNL     1     -10.416  11.710  65.761  1.00  0.00    -0.308 A  
HETATM   13  C   UNL     1     -10.143  10.397  65.398  1.00  0.00    -0.284 A  
HETATM   14  C   UNL     1     -10.103   9.397  66.364  1.00  0.00    -0.262 A  
HETATM   15  O   UNL     1      -9.921  10.039  64.098  1.00  0.00    -0.433 OA 
HETATM   16  H   UNL     1      -9.735   9.142  63.850  1.00  0.00     0.000 HD 
HETATM   17  O   UNL     1      -9.847   8.108  65.999  1.00  0.00    -0.456 OA 
HETATM   18  C   UNL     1     -10.326   9.693  67.700  1.00  0.00    -0.290 A  
HETATM   19  C   UNL     1     -10.612  11.010  68.073  1.00  0.00    -0.241 A  
HETATM   20  H   UNL     1      -9.820   7.424  66.658  1.00  0.00     0.000 HD 
ENDBRANCH   8  11
ENDBRANCH   4   8
TORSDOF 2
ENDMDL
MODEL      143
REMARK 921   NORMALIZED FREE ENERGY PREDICTED BY IDOCK:   -3.95 KCAL/MOL
REMARK 922        TOTAL FREE ENERGY PREDICTED BY IDOCK:   -4.68 KCAL/MOL
REMARK 923 INTER-LIGAND FREE ENERGY PREDICTED BY IDOCK:   -4.56 KCAL/MOL
REMARK 924 INTRA-LIGAND FREE ENERGY PREDICTED BY IDOCK:   -0.12 KCAL/MOL
REMARK 927      BINDING AFFINITY PREDICTED BY RF-SCORE:    0.00 PKD
ROOT
HETATM    1  N   UNL     1      -7.783  11.509  66.216  1.00  0.00    -0.375 NA 
HETATM    2  H1  UNL     1      -6.998  12.052  66.575  1.00  0.00     0.000 HD 
HETATM    3  H2  UNL     1      -8.276  11.980  65.457  1.00  0.00     0.000 HD 
HETATM    4  CA  UNL     1      -8.682  11.177  67.381  1.00  0.00    -0.133 C  
HETATM    5  OXT UNL     1     -10.725   9.838  67.527  1.00  0.00    -0.264 OA 
HETATM    6  C   UNL     1      -9.863  10.361  66.840  1.00  0.00    -0.191 C  
HETATM    7  O   UNL     1      -9.826  10.270  65.483  1.00  0.00    -0.243 OA 
ENDROOT
BRANCH   4   8
HETATM    8  C   UNL     1      -9.245  12.387  68.176  1.00  0.00    -0.205 C  
HETATM    9  O   UNL     1     -10.384  11.995  68.950  1.00  0.00    -0.346 OA 
HETATM   10  H   UNL     1     -10.728  12.734  69.437  1.00  0.00     0.000 HD 
BRANCH   8  11
HETATM   11  C   UNL     1      -9.655  13.528  67.257  1.00  0.00    -0.235 A  
HETATM   12  C   UNL     1      -8.730  14.518  66.872  1.00  0.00    -0.237 A  
HETATM   13  C   UNL     1      -9.140  15.585  66.082  1.00  0.00    -0.324 A  
HETATM   14  C   UNL     1     -10.461  15.674  65.657  1.00  0.00    -0.382 A  
HETATM   15  O   UNL     1      -8.279  16.579  65.710  1.00  0.00    -0.273 OA 
HETATM   16  H   UNL     1      -8.560  17.308  65.170  1.00  0.00     0.000 HD 
HETATM   17  O   UNL     1     -10.859  16.731  64.891  1.00  0.00    -0.707 OA 
HETATM   18  C   UNL     1     -11.385  14.701  66.005  1.00  0.00    -0.344 A  
HETATM   19  C   UNL     1     -10.985  13.630  66.809  1.00  0.00    -0.297 A  
HETATM   20  H   UNL     1     -11.761  16.792  64.600  1.00  0.00     0.000 HD 
ENDBRANCH   8  11
ENDBRANCH   4   8
TORSDOF 2
ENDMDL
MODEL      144
REMARK 921   NORMALIZED FREE ENERGY PREDICTED BY IDOCK:   -3.93 KCAL/MOL
REMARK 922        TOTAL FREE ENERGY PREDICTED BY IDOCK:   -4.66 KCAL/MOL
REMARK 923 INTER-LIGAND FREE ENERGY PREDICTED BY IDOCK:   -4.38 KCAL/MOL
REMARK 924 INTRA-LIGAND FREE ENERGY PREDICTED BY IDOCK:   -0.28 KCAL/MOL
REMARK 927      BINDING AFFINITY PREDICTED BY RF-SCORE:    0.00 PKD
ROOT
HETATM    1  N   UNL     1     -10.548   9.391  66.958  1.00  0.00    -0.233 NA 
HETATM    2  H1  UNL     1     -11.181   9.858  66.309  1.00  0.00     0.000 HD 
HETATM    3  H2  UNL     1     -11.005   8.659  67.500  1.00  0.00     0.000 HD 
HETATM    4  CA  UNL     1      -9.914  10.453  67.823  1.00  0.00    -0.175 C  
HETATM    5  OXT UNL     1      -8.207  10.318  69.572  1.00  0.00    -0.158 OA 
HETATM    6  C   UNL     1      -8.962   9.751  68.800  1.00  0.00    -0.133 C  
HETATM    7  O   UNL     1      -9.044   8.397  68.689  1.00  0.00    -0.140 OA 
ENDROOT
BRANCH   4   8
HETATM    8  C   UNL     1     -10.892  11.339  68.643  1.00  0.00    -0.204 C  
HETATM    9  O   UNL     1     -12.243  10.909  68.450  1.00  0.00    -0.813 OA 
HETATM   10  H   UNL     1     -12.841  11.451  68.951  1.00  0.00     0.000 HD 
BRANCH   8  11
HETATM   11  C   UNL     1     -10.790  12.806  68.252  1.00  0.00    -0.270 A  
HETATM   12  C   UNL     1      -9.774  13.257  67.387  1.00  0.00    -0.221 A  
HETATM   13  C   UNL     1      -9.661  14.609  67.091  1.00  0.00    -0.235 A  
HETATM   14  C   UNL     1     -10.557  15.523  67.635  1.00  0.00    -0.291 A  
HETATM   15  O   UNL     1      -8.673  15.090  66.277  1.00  0.00    -0.453 OA 
HETATM   16  H   UNL     1      -8.596  16.014  66.075  1.00  0.00     0.000 HD 
HETATM   17  O   UNL     1     -10.433  16.851  67.349  1.00  0.00    -0.311 OA 
HETATM   18  C   UNL     1     -11.578  15.101  68.473  1.00  0.00    -0.354 A  
HETATM   19  C   UNL     1     -11.693  13.742  68.785  1.00  0.00    -0.391 A  
HETATM   20  H   UNL     1     -11.045  17.475  67.721  1.00  0.00     0.000 HD 
ENDBRANCH   8  11
ENDBRANCH   4   8
TORSDOF 2
ENDMDL
MODEL      145
REMARK 921   NORMALIZED FREE ENERGY PREDICTED BY IDOCK:   -3.93 KCAL/MOL
REMARK 922        TOTAL FREE ENERGY PREDICTED BY IDOCK:   -4.65 KCAL/MOL
REMARK 923 INTER-LIGAND FREE ENERGY PREDICTED BY IDOCK:   -4.39 KCAL/MOL
REMARK 924 INTRA-LIGAND FREE ENERGY PREDICTED BY IDOCK:   -0.27 KCAL/MOL
REMARK 927      BINDING AFFINITY PREDICTED BY RF-SCORE:    0.00 PKD
ROOT
HETATM    1  N   UNL     1      -8.544   4.851  68.717  1.00  0.00    -0.089 NA 
HETATM    2  H1  UNL     1      -8.228   4.691  69.673  1.00  0.00     0.000 HD 
HETATM    3  H2  UNL     1      -7.793   5.153  68.096  1.00  0.00     0.000 HD 
HETATM    4  CA  UNL     1      -9.690   5.831  68.770  1.00  0.00    -0.132 C  
HETATM    5  OXT UNL     1     -11.144   6.729  67.017  1.00  0.00    -0.403 OA 
HETATM    6  C   UNL     1     -10.165   6.072  67.331  1.00  0.00    -0.189 C  
HETATM    7  O   UNL     1      -9.365   5.440  66.430  1.00  0.00    -0.140 OA 
ENDROOT
BRANCH   4   8
HETATM    8  C   UNL     1      -9.382   7.208  69.421  1.00  0.00    -0.147 C  
HETATM    9  O   UNL     1      -8.161   7.150  70.165  1.00  0.00    -0.124 OA 
HETATM   10  H   UNL     1      -7.972   7.991  70.564  1.00  0.00     0.000 HD 
BRANCH   8  11
HETATM   11  C   UNL     1     -10.497   7.653  70.356  1.00  0.00    -0.221 A  
HETATM   12  C   UNL     1     -10.850   9.013  70.469  1.00  0.00    -0.296 A  
HETATM   13  C   UNL     1     -11.828   9.405  71.373  1.00  0.00    -0.374 A  
HETATM   14  C   UNL     1     -12.473   8.460  72.162  1.00  0.00    -0.370 A  
HETATM   15  O   UNL     1     -12.180  10.717  71.530  1.00  0.00    -0.335 OA 
HETATM   16  H   UNL     1     -12.848  10.985  72.149  1.00  0.00     0.000 HD 
HETATM   17  O   UNL     1     -13.424   8.854  73.057  1.00  0.00    -0.897 OA 
HETATM   18  C   UNL     1     -12.158   7.113  72.056  1.00  0.00    -0.329 A  
HETATM   19  C   UNL     1     -11.166   6.710  71.156  1.00  0.00    -0.340 A  
HETATM   20  H   UNL     1     -13.865   8.208  73.597  1.00  0.00     0.000 HD 
ENDBRANCH   8  11
ENDBRANCH   4   8
TORSDOF 2
ENDMDL
MODEL      146
REMARK 921   NORMALIZED FREE ENERGY PREDICTED BY IDOCK:   -3.93 KCAL/MOL
REMARK 922        TOTAL FREE ENERGY PREDICTED BY IDOCK:   -4.65 KCAL/MOL
REMARK 923 INTER-LIGAND FREE ENERGY PREDICTED BY IDOCK:   -4.33 KCAL/MOL
REMARK 924 INTRA-LIGAND FREE ENERGY PREDICTED BY IDOCK:   -0.33 KCAL/MOL
REMARK 927      BINDING AFFINITY PREDICTED BY RF-SCORE:    0.00 PKD
ROOT
HETATM    1  N   UNL     1      -8.277  12.579  66.638  1.00  0.00    -0.408 NA 
HETATM    2  H1  UNL     1      -8.144  13.569  66.429  1.00  0.00     0.000 HD 
HETATM    3  H2  UNL     1      -8.435  12.016  65.802  1.00  0.00     0.000 HD 
HETATM    4  CA  UNL     1      -9.398  12.468  67.642  1.00  0.00    -0.189 C  
HETATM    5  OXT UNL     1     -10.351  10.539  68.806  1.00  0.00    -0.171 OA 
HETATM    6  C   UNL     1      -9.597  10.980  67.955  1.00  0.00    -0.170 C  
HETATM    7  O   UNL     1      -8.806  10.196  67.174  1.00  0.00    -0.132 OA 
ENDROOT
BRANCH   4   8
HETATM    8  C   UNL     1     -10.764  13.066  67.208  1.00  0.00    -0.250 C  
HETATM    9  O   UNL     1     -11.317  12.320  66.118  1.00  0.00    -0.318 OA 
HETATM   10  H   UNL     1     -12.153  12.685  65.853  1.00  0.00     0.000 HD 
BRANCH   8  11
HETATM   11  C   UNL     1     -10.637  14.521  66.783  1.00  0.00    -0.276 A  
HETATM   12  C   UNL     1     -10.256  15.516  67.705  1.00  0.00    -0.243 A  
HETATM   13  C   UNL     1     -10.205  16.847  67.312  1.00  0.00    -0.297 A  
HETATM   14  C   UNL     1     -10.516  17.204  66.005  1.00  0.00    -0.266 A  
HETATM   15  O   UNL     1      -9.865  17.844  68.183  1.00  0.00    -0.300 OA 
HETATM   16  H   UNL     1      -9.830  18.754  67.915  1.00  0.00     0.000 HD 
HETATM   17  O   UNL     1     -10.476  18.515  65.629  1.00  0.00    -0.615 OA 
HETATM   18  C   UNL     1     -10.875  16.241  65.073  1.00  0.00    -0.337 A  
HETATM   19  C   UNL     1     -10.939  14.899  65.463  1.00  0.00    -0.355 A  
HETATM   20  H   UNL     1     -10.689  18.759  64.735  1.00  0.00     0.000 HD 
ENDBRANCH   8  11
ENDBRANCH   4   8
TORSDOF 2
ENDMDL
MODEL      147
REMARK 921   NORMALIZED FREE ENERGY PREDICTED BY IDOCK:   -3.92 KCAL/MOL
REMARK 922        TOTAL FREE ENERGY PREDICTED BY IDOCK:   -4.65 KCAL/MOL
REMARK 923 INTER-LIGAND FREE ENERGY PREDICTED BY IDOCK:   -4.44 KCAL/MOL
REMARK 924 INTRA-LIGAND FREE ENERGY PREDICTED BY IDOCK:   -0.21 KCAL/MOL
REMARK 927      BINDING AFFINITY PREDICTED BY RF-SCORE:    0.00 PKD
ROOT
HETATM    1  N   UNL     1      -8.885  14.567  69.528  1.00  0.00    -0.367 NA 
HETATM    2  H1  UNL     1      -9.671  15.218  69.526  1.00  0.00     0.000 HD 
HETATM    3  H2  UNL     1      -7.995  15.022  69.732  1.00  0.00     0.000 HD 
HETATM    4  CA  UNL     1      -8.884  13.843  68.205  1.00  0.00    -0.184 C  
HETATM    5  OXT UNL     1      -7.468  12.045  67.337  1.00  0.00    -0.132 OA 
HETATM    6  C   UNL     1      -7.702  12.866  68.209  1.00  0.00    -0.137 C  
HETATM    7  O   UNL     1      -6.942  13.008  69.329  1.00  0.00    -0.071 OA 
ENDROOT
BRANCH   4   8
HETATM    8  C   UNL     1      -8.777  14.736  66.938  1.00  0.00    -0.236 C  
HETATM    9  O   UNL     1      -8.888  16.120  67.286  1.00  0.00    -0.180 OA 
HETATM   10  H   UNL     1      -8.823  16.666  66.512  1.00  0.00     0.000 HD 
BRANCH   8  11
HETATM   11  C   UNL     1      -9.859  14.405  65.920  1.00  0.00    -0.336 A  
HETATM   12  C   UNL     1      -9.866  13.169  65.244  1.00  0.00    -0.096 A  
HETATM   13  C   UNL     1     -10.826  12.912  64.274  1.00  0.00    -0.397 A  
HETATM   14  C   UNL     1     -11.793  13.865  63.974  1.00  0.00    -0.337 A  
HETATM   15  O   UNL     1     -10.851  11.736  63.577  1.00  0.00    -0.391 OA 
HETATM   16  H   UNL     1     -11.507  11.560  62.914  1.00  0.00     0.000 HD 
HETATM   17  O   UNL     1     -12.726  13.611  63.012  1.00  0.00    -0.835 OA 
HETATM   18  C   UNL     1     -11.819  15.081  64.641  1.00  0.00    -0.378 A  
HETATM   19  C   UNL     1     -10.850  15.354  65.611  1.00  0.00    -0.363 A  
HETATM   20  H   UNL     1     -13.387  14.262  62.807  1.00  0.00     0.000 HD 
ENDBRANCH   8  11
ENDBRANCH   4   8
TORSDOF 2
ENDMDL
MODEL      148
REMARK 921   NORMALIZED FREE ENERGY PREDICTED BY IDOCK:   -3.91 KCAL/MOL
REMARK 922        TOTAL FREE ENERGY PREDICTED BY IDOCK:   -4.64 KCAL/MOL
REMARK 923 INTER-LIGAND FREE ENERGY PREDICTED BY IDOCK:   -4.39 KCAL/MOL
REMARK 924 INTRA-LIGAND FREE ENERGY PREDICTED BY IDOCK:   -0.25 KCAL/MOL
REMARK 927      BINDING AFFINITY PREDICTED BY RF-SCORE:    0.00 PKD
ROOT
HETATM    1  N   UNL     1      -9.087  12.748  68.912  1.00  0.00    -0.358 NA 
HETATM    2  H1  UNL     1      -9.055  11.759  68.663  1.00  0.00     0.000 HD 
HETATM    3  H2  UNL     1      -8.841  12.919  69.887  1.00  0.00     0.000 HD 
HETATM    4  CA  UNL     1     -10.459  13.266  68.554  1.00  0.00    -0.250 C  
HETATM    5  OXT UNL     1     -11.432  15.508  68.679  1.00  0.00    -0.322 OA 
HETATM    6  C   UNL     1     -10.508  14.752  68.929  1.00  0.00    -0.249 C  
HETATM    7  O   UNL     1      -9.371  15.143  69.567  1.00  0.00    -0.207 OA 
ENDROOT
BRANCH   4   8
HETATM    8  C   UNL     1     -11.658  12.549  69.233  1.00  0.00    -0.319 C  
HETATM    9  O   UNL     1     -11.952  13.148  70.499  1.00  0.00    -0.477 OA 
HETATM   10  H   UNL     1     -12.685  12.710  70.914  1.00  0.00     0.000 HD 
BRANCH   8  11
HETATM   11  C   UNL     1     -11.384  11.069  69.450  1.00  0.00    -0.352 A  
HETATM   12  C   UNL     1     -11.478  10.494  70.733  1.00  0.00    -0.376 A  
HETATM   13  C   UNL     1     -11.163   9.154  70.921  1.00  0.00    -0.295 A  
HETATM   14  C   UNL     1     -10.767   8.370  69.843  1.00  0.00    -0.227 A  
HETATM   15  O   UNL     1     -11.217   8.567  72.154  1.00  0.00    -0.319 OA 
HETATM   16  H   UNL     1     -11.002   7.651  72.282  1.00  0.00     0.000 HD 
HETATM   17  O   UNL     1     -10.448   7.058  70.037  1.00  0.00    -0.204 OA 
HETATM   18  C   UNL     1     -10.686   8.907  68.567  1.00  0.00    -0.124 A  
HETATM   19  C   UNL     1     -10.990  10.258  68.371  1.00  0.00    -0.308 A  
HETATM   20  H   UNL     1     -10.177   6.522  69.301  1.00  0.00     0.000 HD 
ENDBRANCH   8  11
ENDBRANCH   4   8
TORSDOF 2
ENDMDL
MODEL      149
REMARK 921   NORMALIZED FREE ENERGY PREDICTED BY IDOCK:   -3.88 KCAL/MOL
REMARK 922        TOTAL FREE ENERGY PREDICTED BY IDOCK:   -4.60 KCAL/MOL
REMARK 923 INTER-LIGAND FREE ENERGY PREDICTED BY IDOCK:   -4.46 KCAL/MOL
REMARK 924 INTRA-LIGAND FREE ENERGY PREDICTED BY IDOCK:   -0.15 KCAL/MOL
REMARK 927      BINDING AFFINITY PREDICTED BY RF-SCORE:    0.00 PKD
ROOT
HETATM    1  N   UNL     1      -9.346   8.262  72.778  1.00  0.00    -0.268 NA 
HETATM    2  H1  UNL     1      -9.485   9.272  72.795  1.00  0.00     0.000 HD 
HETATM    3  H2  UNL     1      -8.863   7.943  71.938  1.00  0.00     0.000 HD 
HETATM    4  CA  UNL     1     -10.694   7.609  72.962  1.00  0.00    -0.391 C  
HETATM    5  OXT UNL     1     -11.349   5.260  73.163  1.00  0.00    -0.310 OA 
HETATM    6  C   UNL     1     -10.484   6.090  72.936  1.00  0.00    -0.219 C  
HETATM    7  O   UNL     1      -9.194   5.771  72.646  1.00  0.00    -0.138 OA 
ENDROOT
BRANCH   4   8
HETATM    8  C   UNL     1     -11.779   7.973  71.912  1.00  0.00    -0.303 C  
HETATM    9  O   UNL     1     -12.957   7.186  72.112  1.00  0.00    -0.513 OA 
HETATM   10  H   UNL     1     -13.621   7.408  71.470  1.00  0.00     0.000 HD 
BRANCH   8  11
HETATM   11  C   UNL     1     -11.286   7.753  70.489  1.00  0.00    -0.267 A  
HETATM   12  C   UNL     1     -10.797   8.824  69.717  1.00  0.00    -0.196 A  
HETATM   13  C   UNL     1     -10.409   8.613  68.400  1.00  0.00    -0.201 A  
HETATM   14  C   UNL     1     -10.489   7.342  67.841  1.00  0.00    -0.205 A  
HETATM   15  O   UNL     1      -9.954   9.631  67.610  1.00  0.00    -0.157 OA 
HETATM   16  H   UNL     1      -9.689   9.487  66.709  1.00  0.00     0.000 HD 
HETATM   17  O   UNL     1     -10.118   7.144  66.543  1.00  0.00    -0.396 OA 
HETATM   18  C   UNL     1     -10.949   6.267  68.587  1.00  0.00    -0.423 A  
HETATM   19  C   UNL     1     -11.351   6.473  69.911  1.00  0.00    -0.469 A  
HETATM   20  H   UNL     1     -10.173   6.276  66.161  1.00  0.00     0.000 HD 
ENDBRANCH   8  11
ENDBRANCH   4   8
TORSDOF 2
ENDMDL
MODEL      150
REMARK 921   NORMALIZED FREE ENERGY PREDICTED BY IDOCK:   -3.88 KCAL/MOL
REMARK 922        TOTAL FREE ENERGY PREDICTED BY IDOCK:   -4.60 KCAL/MOL
REMARK 923 INTER-LIGAND FREE ENERGY PREDICTED BY IDOCK:   -4.36 KCAL/MOL
REMARK 924 INTRA-LIGAND FREE ENERGY PREDICTED BY IDOCK:   -0.25 KCAL/MOL
REMARK 927      BINDING AFFINITY PREDICTED BY RF-SCORE:    0.00 PKD
ROOT
HETATM    1  N   UNL     1     -10.177  13.646  66.702  1.00  0.00    -0.271 NA 
HETATM    2  H1  UNL     1      -9.334  13.283  67.145  1.00  0.00     0.000 HD 
HETATM    3  H2  UNL     1     -10.714  14.260  67.315  1.00  0.00     0.000 HD 
HETATM    4  CA  UNL     1     -10.978  12.469  66.203  1.00  0.00    -0.284 C  
HETATM    5  OXT UNL     1     -13.066  12.345  64.933  1.00  0.00    -0.765 OA 
HETATM    6  C   UNL     1     -12.247  13.017  65.537  1.00  0.00    -0.469 C  
HETATM    7  O   UNL     1     -12.343  14.366  65.684  1.00  0.00    -0.390 OA 
ENDROOT
BRANCH   4   8
HETATM    8  C   UNL     1     -11.398  11.425  67.274  1.00  0.00    -0.275 C  
HETATM    9  O   UNL     1     -11.538  12.048  68.556  1.00  0.00    -0.264 OA 
HETATM   10  H   UNL     1     -11.795  11.410  69.211  1.00  0.00     0.000 HD 
BRANCH   8  11
HETATM   11  C   UNL     1     -10.384  10.297  67.393  1.00  0.00    -0.282 A  
HETATM   12  C   UNL     1     -10.291   9.297  66.405  1.00  0.00    -0.238 A  
HETATM   13  C   UNL     1      -9.401   8.243  66.564  1.00  0.00    -0.206 A  
HETATM   14  C   UNL     1      -8.588   8.174  67.689  1.00  0.00    -0.130 A  
HETATM   15  O   UNL     1      -9.301   7.239  65.641  1.00  0.00    -0.383 OA 
HETATM   16  H   UNL     1      -8.692   6.518  65.749  1.00  0.00     0.000 HD 
HETATM   17  O   UNL     1      -7.725   7.129  67.844  1.00  0.00    -0.108 OA 
HETATM   18  C   UNL     1      -8.646   9.157  68.666  1.00  0.00    -0.128 A  
HETATM   19  C   UNL     1      -9.547  10.217  68.521  1.00  0.00    -0.165 A  
HETATM   20  H   UNL     1      -7.169   7.083  68.613  1.00  0.00     0.000 HD 
ENDBRANCH   8  11
ENDBRANCH   4   8
TORSDOF 2
ENDMDL
MODEL      151
REMARK 921   NORMALIZED FREE ENERGY PREDICTED BY IDOCK:   -3.87 KCAL/MOL
REMARK 922        TOTAL FREE ENERGY PREDICTED BY IDOCK:   -4.59 KCAL/MOL
REMARK 923 INTER-LIGAND FREE ENERGY PREDICTED BY IDOCK:   -4.33 KCAL/MOL
REMARK 924 INTRA-LIGAND FREE ENERGY PREDICTED BY IDOCK:   -0.26 KCAL/MOL
REMARK 927      BINDING AFFINITY PREDICTED BY RF-SCORE:    0.00 PKD
ROOT
HETATM    1  N   UNL     1      -8.759   7.416  67.323  1.00  0.00    -0.120 NA 
HETATM    2  H1  UNL     1      -8.903   7.930  68.192  1.00  0.00     0.000 HD 
HETATM    3  H2  UNL     1      -9.268   7.819  66.536  1.00  0.00     0.000 HD 
HETATM    4  CA  UNL     1      -9.119   5.973  67.577  1.00  0.00    -0.109 C  
HETATM    5  OXT UNL     1      -8.997   3.991  66.147  1.00  0.00    -0.120 OA 
HETATM    6  C   UNL     1      -8.903   5.201  66.270  1.00  0.00    -0.124 C  
HETATM    7  O   UNL     1      -8.567   6.035  65.249  1.00  0.00    -0.151 OA 
ENDROOT
BRANCH   4   8
HETATM    8  C   UNL     1     -10.568   5.707  68.070  1.00  0.00    -0.188 C  
HETATM    9  O   UNL     1     -11.480   6.640  67.479  1.00  0.00    -0.721 OA 
HETATM   10  H   UNL     1     -12.366   6.477  67.780  1.00  0.00     0.000 HD 
BRANCH   8  11
HETATM   11  C   UNL     1     -10.681   5.814  69.583  1.00  0.00    -0.416 A  
HETATM   12  C   UNL     1     -11.765   6.483  70.185  1.00  0.00    -0.419 A  
HETATM   13  C   UNL     1     -11.817   6.622  71.566  1.00  0.00    -0.337 A  
HETATM   14  C   UNL     1     -10.807   6.094  72.363  1.00  0.00    -0.243 A  
HETATM   15  O   UNL     1     -12.839   7.286  72.186  1.00  0.00    -0.495 OA 
HETATM   16  H   UNL     1     -12.874   7.382  73.130  1.00  0.00     0.000 HD 
HETATM   17  O   UNL     1     -10.859   6.245  73.717  1.00  0.00    -0.418 OA 
HETATM   18  C   UNL     1      -9.740   5.414  71.795  1.00  0.00    -0.206 A  
HETATM   19  C   UNL     1      -9.673   5.278  70.405  1.00  0.00    -0.259 A  
HETATM   20  H   UNL     1     -10.169   5.884  74.262  1.00  0.00     0.000 HD 
ENDBRANCH   8  11
ENDBRANCH   4   8
TORSDOF 2
ENDMDL
MODEL      152
REMARK 921   NORMALIZED FREE ENERGY PREDICTED BY IDOCK:   -3.85 KCAL/MOL
REMARK 922        TOTAL FREE ENERGY PREDICTED BY IDOCK:   -4.57 KCAL/MOL
REMARK 923 INTER-LIGAND FREE ENERGY PREDICTED BY IDOCK:   -4.41 KCAL/MOL
REMARK 924 INTRA-LIGAND FREE ENERGY PREDICTED BY IDOCK:   -0.16 KCAL/MOL
REMARK 927      BINDING AFFINITY PREDICTED BY RF-SCORE:    0.00 PKD
ROOT
HETATM    1  N   UNL     1     -10.774  17.366  65.999  1.00  0.00    -0.203 NA 
HETATM    2  H1  UNL     1     -10.530  17.659  65.053  1.00  0.00     0.000 HD 
HETATM    3  H2  UNL     1     -10.628  18.100  66.692  1.00  0.00     0.000 HD 
HETATM    4  CA  UNL     1      -9.997  16.109  66.304  1.00  0.00    -0.317 C  
HETATM    5  OXT UNL     1      -9.998  14.630  68.254  1.00  0.00    -0.211 OA 
HETATM    6  C   UNL     1     -10.363  15.668  67.726  1.00  0.00    -0.266 C  
HETATM    7  O   UNL     1     -11.175  16.574  68.335  1.00  0.00    -0.359 OA 
ENDROOT
BRANCH   4   8
HETATM    8  C   UNL     1      -8.451  16.221  66.208  1.00  0.00    -0.334 C  
HETATM    9  O   UNL     1      -7.830  15.007  66.642  1.00  0.00    -0.303 OA 
HETATM   10  H   UNL     1      -6.884  15.075  66.583  1.00  0.00     0.000 HD 
BRANCH   8  11
HETATM   11  C   UNL     1      -7.913  17.367  67.052  1.00  0.00    -0.241 A  
HETATM   12  C   UNL     1      -8.076  18.706  66.646  1.00  0.00    -0.284 A  
HETATM   13  C   UNL     1      -7.524  19.734  67.400  1.00  0.00    -0.263 A  
HETATM   14  C   UNL     1      -6.820  19.449  68.565  1.00  0.00    -0.291 A  
HETATM   15  O   UNL     1      -7.637  21.044  67.025  1.00  0.00    -0.551 OA 
HETATM   16  H   UNL     1      -7.260  21.747  67.541  1.00  0.00     0.000 HD 
HETATM   17  O   UNL     1      -6.270  20.463  69.294  1.00  0.00    -0.326 OA 
HETATM   18  C   UNL     1      -6.664  18.141  68.996  1.00  0.00    -0.259 A  
HETATM   19  C   UNL     1      -7.206  17.098  68.238  1.00  0.00    -0.204 A  
HETATM   20  H   UNL     1      -5.789  20.269  70.090  1.00  0.00     0.000 HD 
ENDBRANCH   8  11
ENDBRANCH   4   8
TORSDOF 2
ENDMDL
MODEL      153
REMARK 921   NORMALIZED FREE ENERGY PREDICTED BY IDOCK:   -3.85 KCAL/MOL
REMARK 922        TOTAL FREE ENERGY PREDICTED BY IDOCK:   -4.56 KCAL/MOL
REMARK 923 INTER-LIGAND FREE ENERGY PREDICTED BY IDOCK:   -4.32 KCAL/MOL
REMARK 924 INTRA-LIGAND FREE ENERGY PREDICTED BY IDOCK:   -0.25 KCAL/MOL
REMARK 927      BINDING AFFINITY PREDICTED BY RF-SCORE:    0.00 PKD
ROOT
HETATM    1  N   UNL     1      -8.551  13.136  66.571  1.00  0.00    -0.424 NA 
HETATM    2  H1  UNL     1      -8.751  14.072  66.924  1.00  0.00     0.000 HD 
HETATM    3  H2  UNL     1      -8.632  13.069  65.556  1.00  0.00     0.000 HD 
HETATM    4  CA  UNL     1      -9.456  12.170  67.296  1.00  0.00    -0.184 C  
HETATM    5  OXT UNL     1      -9.633   9.731  67.208  1.00  0.00    -0.150 OA 
HETATM    6  C   UNL     1      -9.156  10.763  66.765  1.00  0.00    -0.154 C  
HETATM    7  O   UNL     1      -8.266  10.797  65.737  1.00  0.00    -0.162 OA 
ENDROOT
BRANCH   4   8
HETATM    8  C   UNL     1     -10.982  12.431  67.161  1.00  0.00    -0.262 C  
HETATM    9  O   UNL     1     -11.295  12.917  65.851  1.00  0.00    -0.293 OA 
HETATM   10  H   UNL     1     -12.228  13.076  65.769  1.00  0.00     0.000 HD 
BRANCH   8  11
HETATM   11  C   UNL     1     -11.476  13.443  68.183  1.00  0.00    -0.339 A  
HETATM   12  C   UNL     1     -11.891  13.035  69.467  1.00  0.00    -0.385 A  
HETATM   13  C   UNL     1     -12.396  13.967  70.364  1.00  0.00    -0.363 A  
HETATM   14  C   UNL     1     -12.484  15.308  70.007  1.00  0.00    -0.293 A  
HETATM   15  O   UNL     1     -12.833  13.606  71.608  1.00  0.00    -0.343 OA 
HETATM   16  H   UNL     1     -13.179  14.243  72.221  1.00  0.00     0.000 HD 
HETATM   17  O   UNL     1     -12.992  16.216  70.889  1.00  0.00    -0.508 OA 
HETATM   18  C   UNL     1     -12.063  15.737  68.757  1.00  0.00    -0.087 A  
HETATM   19  C   UNL     1     -11.563  14.804  67.843  1.00  0.00    -0.373 A  
HETATM   20  H   UNL     1     -13.052  17.132  70.645  1.00  0.00     0.000 HD 
ENDBRANCH   8  11
ENDBRANCH   4   8
TORSDOF 2
ENDMDL
MODEL      154
REMARK 921   NORMALIZED FREE ENERGY PREDICTED BY IDOCK:   -3.84 KCAL/MOL
REMARK 922        TOTAL FREE ENERGY PREDICTED BY IDOCK:   -4.56 KCAL/MOL
REMARK 923 INTER-LIGAND FREE ENERGY PREDICTED BY IDOCK:   -5.24 KCAL/MOL
REMARK 924 INTRA-LIGAND FREE ENERGY PREDICTED BY IDOCK:    0.69 KCAL/MOL
REMARK 927      BINDING AFFINITY PREDICTED BY RF-SCORE:    0.00 PKD
ROOT
HETATM    1  N   UNL     1      -9.670  13.709  68.823  1.00  0.00    -0.405 NA 
HETATM    2  H1  UNL     1      -8.981  13.253  69.422  1.00  0.00     0.000 HD 
HETATM    3  H2  UNL     1     -10.019  14.584  69.216  1.00  0.00     0.000 HD 
HETATM    4  CA  UNL     1     -10.767  12.713  68.542  1.00  0.00    -0.248 C  
HETATM    5  OXT UNL     1     -12.765  12.849  67.136  1.00  0.00     0.140 OA 
HETATM    6  C   UNL     1     -11.801  13.399  67.642  1.00  0.00    -0.354 C  
HETATM    7  O   UNL     1     -11.502  14.713  67.452  1.00  0.00    -0.341 OA 
ENDROOT
BRANCH   4   8
HETATM    8  C   UNL     1     -11.502  12.138  69.784  1.00  0.00    -0.188 C  
HETATM    9  O   UNL     1     -12.561  11.263  69.381  1.00  0.00    -0.239 OA 
HETATM   10  H   UNL     1     -13.010  10.911  70.140  1.00  0.00     0.000 HD 
BRANCH   8  11
HETATM   11  C   UNL     1     -12.089  13.239  70.654  1.00  0.00    -0.361 A  
HETATM   12  C   UNL     1     -11.558  14.543  70.631  1.00  0.00    -0.278 A  
HETATM   13  C   UNL     1     -12.068  15.518  71.478  1.00  0.00    -0.393 A  
HETATM   14  C   UNL     1     -13.114  15.217  72.344  1.00  0.00    -0.375 A  
HETATM   15  O   UNL     1     -11.562  16.788  71.504  1.00  0.00    -0.570 OA 
HETATM   16  H   UNL     1     -11.911  17.454  72.084  1.00  0.00     0.000 HD 
HETATM   17  O   UNL     1     -13.602  16.176  73.182  1.00  0.00    -0.562 OA 
HETATM   18  C   UNL     1     -13.667  13.945  72.371  1.00  0.00    -0.678 A  
HETATM   19  C   UNL     1     -13.152  12.954  71.529  1.00  0.00    -0.390 A  
HETATM   20  H   UNL     1     -14.317  15.970  73.774  1.00  0.00     0.000 HD 
ENDBRANCH   8  11
ENDBRANCH   4   8
TORSDOF 2
ENDMDL
MODEL      155
REMARK 921   NORMALIZED FREE ENERGY PREDICTED BY IDOCK:   -3.81 KCAL/MOL
REMARK 922        TOTAL FREE ENERGY PREDICTED BY IDOCK:   -4.53 KCAL/MOL
REMARK 923 INTER-LIGAND FREE ENERGY PREDICTED BY IDOCK:   -4.27 KCAL/MOL
REMARK 924 INTRA-LIGAND FREE ENERGY PREDICTED BY IDOCK:   -0.26 KCAL/MOL
REMARK 927      BINDING AFFINITY PREDICTED BY RF-SCORE:    0.00 PKD
ROOT
HETATM    1  N   UNL     1     -11.628  13.770  67.772  1.00  0.00    -0.325 NA 
HETATM    2  H1  UNL     1     -11.784  12.772  67.913  1.00  0.00     0.000 HD 
HETATM    3  H2  UNL     1     -12.496  14.300  67.692  1.00  0.00     0.000 HD 
HETATM    4  CA  UNL     1     -10.730  13.930  66.570  1.00  0.00    -0.277 C  
HETATM    5  OXT UNL     1      -9.732  15.912  65.538  1.00  0.00    -0.376 OA 
HETATM    6  C   UNL     1     -10.496  15.431  66.358  1.00  0.00    -0.303 C  
HETATM    7  O   UNL     1     -11.238  16.177  67.221  1.00  0.00    -0.160 OA 
ENDROOT
BRANCH   4   8
HETATM    8  C   UNL     1     -11.256  13.323  65.240  1.00  0.00    -0.295 C  
HETATM    9  O   UNL     1     -12.635  12.961  65.362  1.00  0.00    -0.543 OA 
HETATM   10  H   UNL     1     -12.957  12.590  64.549  1.00  0.00     0.000 HD 
BRANCH   8  11
HETATM   11  C   UNL     1     -10.467  12.089  64.829  1.00  0.00    -0.335 A  
HETATM   12  C   UNL     1      -9.541  11.493  65.710  1.00  0.00    -0.259 A  
HETATM   13  C   UNL     1      -8.786  10.404  65.294  1.00  0.00    -0.186 A  
HETATM   14  C   UNL     1      -8.948   9.888  64.013  1.00  0.00    -0.243 A  
HETATM   15  O   UNL     1      -7.860   9.816  66.109  1.00  0.00    -0.104 OA 
HETATM   16  H   UNL     1      -7.344   9.071  65.824  1.00  0.00     0.000 HD 
HETATM   17  O   UNL     1      -8.194   8.826  63.607  1.00  0.00    -0.164 OA 
HETATM   18  C   UNL     1      -9.866  10.444  63.135  1.00  0.00    -0.215 A  
HETATM   19  C   UNL     1     -10.623  11.547  63.541  1.00  0.00    -0.487 A  
HETATM   20  H   UNL     1      -8.304   8.472  62.732  1.00  0.00     0.000 HD 
ENDBRANCH   8  11
ENDBRANCH   4   8
TORSDOF 2
ENDMDL
MODEL      156
REMARK 921   NORMALIZED FREE ENERGY PREDICTED BY IDOCK:   -3.81 KCAL/MOL
REMARK 922        TOTAL FREE ENERGY PREDICTED BY IDOCK:   -4.52 KCAL/MOL
REMARK 923 INTER-LIGAND FREE ENERGY PREDICTED BY IDOCK:   -4.45 KCAL/MOL
REMARK 924 INTRA-LIGAND FREE ENERGY PREDICTED BY IDOCK:   -0.07 KCAL/MOL
REMARK 927      BINDING AFFINITY PREDICTED BY RF-SCORE:    0.00 PKD
ROOT
HETATM    1  N   UNL     1     -13.534  13.809  65.564  1.00  0.00    -0.488 NA 
HETATM    2  H1  UNL     1     -14.174  14.008  66.333  1.00  0.00     0.000 HD 
HETATM    3  H2  UNL     1     -13.527  12.824  65.300  1.00  0.00     0.000 HD 
HETATM    4  CA  UNL     1     -12.170  14.319  65.959  1.00  0.00    -0.404 C  
HETATM    5  OXT UNL     1     -10.046  14.389  64.745  1.00  0.00    -0.354 OA 
HETATM    6  C   UNL     1     -11.207  14.018  64.804  1.00  0.00    -0.375 C  
HETATM    7  O   UNL     1     -11.814  13.293  63.826  1.00  0.00    -0.453 OA 
ENDROOT
BRANCH   4   8
HETATM    8  C   UNL     1     -11.570  13.726  67.265  1.00  0.00    -0.361 C  
HETATM    9  O   UNL     1     -12.590  13.558  68.255  1.00  0.00    -0.094 OA 
HETATM   10  H   UNL     1     -12.224  13.196  69.053  1.00  0.00     0.000 HD 
BRANCH   8  11
HETATM   11  C   UNL     1     -10.478  14.615  67.841  1.00  0.00    -0.242 A  
HETATM   12  C   UNL     1     -10.566  16.019  67.757  1.00  0.00    -0.309 A  
HETATM   13  C   UNL     1      -9.529  16.811  68.234  1.00  0.00    -0.240 A  
HETATM   14  C   UNL     1      -8.407  16.225  68.808  1.00  0.00    -0.235 A  
HETATM   15  O   UNL     1      -9.565  18.175  68.147  1.00  0.00    -0.283 OA 
HETATM   16  H   UNL     1      -8.856  18.716  68.473  1.00  0.00     0.000 HD 
HETATM   17  O   UNL     1      -7.387  17.008  69.264  1.00  0.00    -0.221 OA 
HETATM   18  C   UNL     1      -8.306  14.846  68.921  1.00  0.00    -0.178 A  
HETATM   19  C   UNL     1      -9.340  14.040  68.433  1.00  0.00    -0.210 A  
HETATM   20  H   UNL     1      -6.620  16.608  69.656  1.00  0.00     0.000 HD 
ENDBRANCH   8  11
ENDBRANCH   4   8
TORSDOF 2
ENDMDL
MODEL      157
REMARK 921   NORMALIZED FREE ENERGY PREDICTED BY IDOCK:   -3.76 KCAL/MOL
REMARK 922        TOTAL FREE ENERGY PREDICTED BY IDOCK:   -4.47 KCAL/MOL
REMARK 923 INTER-LIGAND FREE ENERGY PREDICTED BY IDOCK:   -4.20 KCAL/MOL
REMARK 924 INTRA-LIGAND FREE ENERGY PREDICTED BY IDOCK:   -0.26 KCAL/MOL
REMARK 927      BINDING AFFINITY PREDICTED BY RF-SCORE:    0.00 PKD
ROOT
HETATM    1  N   UNL     1      -7.306  14.544  69.886  1.00  0.00    -0.396 NA 
HETATM    2  H1  UNL     1      -7.152  15.470  70.284  1.00  0.00     0.000 HD 
HETATM    3  H2  UNL     1      -6.437  14.048  69.690  1.00  0.00     0.000 HD 
HETATM    4  CA  UNL     1      -8.175  14.709  68.663  1.00  0.00    -0.159 C  
HETATM    5  OXT UNL     1      -9.152  13.071  67.130  1.00  0.00    -0.209 OA 
HETATM    6  C   UNL     1      -8.406  13.317  68.064  1.00  0.00    -0.162 C  
HETATM    7  O   UNL     1      -7.687  12.366  68.720  1.00  0.00    -0.097 OA 
ENDROOT
BRANCH   4   8
HETATM    8  C   UNL     1      -7.618  15.637  67.549  1.00  0.00    -0.175 C  
HETATM    9  O   UNL     1      -6.474  16.358  68.020  1.00  0.00    -0.124 OA 
HETATM   10  H   UNL     1      -6.133  16.925  67.338  1.00  0.00     0.000 HD 
BRANCH   8  11
HETATM   11  C   UNL     1      -8.659  16.639  67.073  1.00  0.00    -0.220 A  
HETATM   12  C   UNL     1      -9.485  16.357  65.966  1.00  0.00    -0.345 A  
HETATM   13  C   UNL     1     -10.386  17.310  65.510  1.00  0.00    -0.092 A  
HETATM   14  C   UNL     1     -10.488  18.541  66.148  1.00  0.00    -0.413 A  
HETATM   15  O   UNL     1     -11.186  17.084  64.424  1.00  0.00    -1.167 OA 
HETATM   16  H   UNL     1     -11.802  17.736  64.112  1.00  0.00     0.000 HD 
HETATM   17  O   UNL     1     -11.367  19.476  65.687  1.00  0.00    -0.061 OA 
HETATM   18  C   UNL     1      -9.701  18.834  67.251  1.00  0.00    -0.335 A  
HETATM   19  C   UNL     1      -8.782  17.885  67.712  1.00  0.00    -0.250 A  
HETATM   20  H   UNL     1     -11.437  20.318  66.123  1.00  0.00     0.000 HD 
ENDBRANCH   8  11
ENDBRANCH   4   8
TORSDOF 2
ENDMDL
MODEL      158
REMARK 921   NORMALIZED FREE ENERGY PREDICTED BY IDOCK:   -3.75 KCAL/MOL
REMARK 922        TOTAL FREE ENERGY PREDICTED BY IDOCK:   -4.45 KCAL/MOL
REMARK 923 INTER-LIGAND FREE ENERGY PREDICTED BY IDOCK:   -4.42 KCAL/MOL
REMARK 924 INTRA-LIGAND FREE ENERGY PREDICTED BY IDOCK:   -0.03 KCAL/MOL
REMARK 927      BINDING AFFINITY PREDICTED BY RF-SCORE:    0.00 PKD
ROOT
HETATM    1  N   UNL     1      -7.432  11.968  66.679  1.00  0.00    -0.375 NA 
HETATM    2  H1  UNL     1      -7.064  12.550  67.432  1.00  0.00     0.000 HD 
HETATM    3  H2  UNL     1      -7.629  12.497  65.830  1.00  0.00     0.000 HD 
HETATM    4  CA  UNL     1      -8.641  11.239  67.210  1.00  0.00    -0.143 C  
HETATM    5  OXT UNL     1     -10.106   9.563  66.193  1.00  0.00    -0.284 OA 
HETATM    6  C   UNL     1      -9.194  10.365  66.078  1.00  0.00    -0.167 C  
HETATM    7  O   UNL     1      -8.523  10.577  64.913  1.00  0.00    -0.176 OA 
ENDROOT
BRANCH   4   8
HETATM    8  C   UNL     1      -9.794  12.131  67.749  1.00  0.00    -0.199 C  
HETATM    9  O   UNL     1     -11.066  11.568  67.410  1.00  0.00    -0.247 OA 
HETATM   10  H   UNL     1     -11.771  12.113  67.739  1.00  0.00     0.000 HD 
BRANCH   8  11
HETATM   11  C   UNL     1      -9.726  13.544  67.188  1.00  0.00    -0.244 A  
HETATM   12  C   UNL     1     -10.428  13.895  66.018  1.00  0.00    -0.299 A  
HETATM   13  C   UNL     1     -10.303  15.173  65.489  1.00  0.00    -0.375 A  
HETATM   14  C   UNL     1      -9.497  16.116  66.116  1.00  0.00    -0.327 A  
HETATM   15  O   UNL     1     -10.947  15.544  64.341  1.00  0.00    -0.685 OA 
HETATM   16  H   UNL     1     -10.861  16.418  63.979  1.00  0.00     0.000 HD 
HETATM   17  O   UNL     1      -9.369  17.366  65.584  1.00  0.00    -0.496 OA 
HETATM   18  C   UNL     1      -8.812  15.801  67.280  1.00  0.00    -0.212 A  
HETATM   19  C   UNL     1      -8.922  14.513  67.815  1.00  0.00    -0.190 A  
HETATM   20  H   UNL     1      -8.818  18.010  66.013  1.00  0.00     0.000 HD 
ENDBRANCH   8  11
ENDBRANCH   4   8
TORSDOF 2
ENDMDL
MODEL      159
REMARK 921   NORMALIZED FREE ENERGY PREDICTED BY IDOCK:   -3.74 KCAL/MOL
REMARK 922        TOTAL FREE ENERGY PREDICTED BY IDOCK:   -4.44 KCAL/MOL
REMARK 923 INTER-LIGAND FREE ENERGY PREDICTED BY IDOCK:   -4.17 KCAL/MOL
REMARK 924 INTRA-LIGAND FREE ENERGY PREDICTED BY IDOCK:   -0.27 KCAL/MOL
REMARK 927      BINDING AFFINITY PREDICTED BY RF-SCORE:    0.00 PKD
ROOT
HETATM    1  N   UNL     1     -11.226  13.123  69.330  1.00  0.00    -0.395 NA 
HETATM    2  H1  UNL     1     -11.211  12.413  70.062  1.00  0.00     0.000 HD 
HETATM    3  H2  UNL     1     -12.151  13.531  69.192  1.00  0.00     0.000 HD 
HETATM    4  CA  UNL     1     -10.668  12.499  68.074  1.00  0.00    -0.221 C  
HETATM    5  OXT UNL     1     -10.214  13.434  65.859  1.00  0.00    -0.288 OA 
HETATM    6  C   UNL     1     -10.691  13.566  66.974  1.00  0.00    -0.277 C  
HETATM    7  O   UNL     1     -11.299  14.707  67.399  1.00  0.00    -0.328 OA 
ENDROOT
BRANCH   4   8
HETATM    8  C   UNL     1     -11.409  11.238  67.551  1.00  0.00    -0.288 C  
HETATM    9  O   UNL     1     -12.337  10.757  68.529  1.00  0.00    -0.825 OA 
HETATM   10  H   UNL     1     -12.790   9.986  68.209  1.00  0.00     0.000 HD 
BRANCH   8  11
HETATM   11  C   UNL     1     -10.441  10.115  67.209  1.00  0.00    -0.313 A  
HETATM   12  C   UNL     1      -9.830   9.349  68.222  1.00  0.00    -0.180 A  
HETATM   13  C   UNL     1      -8.903   8.369  67.890  1.00  0.00    -0.138 A  
HETATM   14  C   UNL     1      -8.583   8.129  66.559  1.00  0.00    -0.138 A  
HETATM   15  O   UNL     1      -8.270   7.624  68.845  1.00  0.00    -0.125 OA 
HETATM   16  H   UNL     1      -7.636   6.954  68.619  1.00  0.00     0.000 HD 
HETATM   17  O   UNL     1      -7.662   7.173  66.241  1.00  0.00    -0.095 OA 
HETATM   18  C   UNL     1      -9.185   8.855  65.543  1.00  0.00    -0.242 A  
HETATM   19  C   UNL     1     -10.112   9.852  65.867  1.00  0.00    -0.316 A  
HETATM   20  H   UNL     1      -7.443   7.009  65.332  1.00  0.00     0.000 HD 
ENDBRANCH   8  11
ENDBRANCH   4   8
TORSDOF 2
ENDMDL
MODEL      160
REMARK 921   NORMALIZED FREE ENERGY PREDICTED BY IDOCK:   -3.72 KCAL/MOL
REMARK 922        TOTAL FREE ENERGY PREDICTED BY IDOCK:   -4.42 KCAL/MOL
REMARK 923 INTER-LIGAND FREE ENERGY PREDICTED BY IDOCK:   -4.04 KCAL/MOL
REMARK 924 INTRA-LIGAND FREE ENERGY PREDICTED BY IDOCK:   -0.39 KCAL/MOL
REMARK 927      BINDING AFFINITY PREDICTED BY RF-SCORE:    0.00 PKD
ROOT
HETATM    1  N   UNL     1      -8.816  11.247  68.844  1.00  0.00    -0.352 NA 
HETATM    2  H1  UNL     1      -9.157  12.139  69.201  1.00  0.00     0.000 HD 
HETATM    3  H2  UNL     1      -8.414  11.322  67.909  1.00  0.00     0.000 HD 
HETATM    4  CA  UNL     1      -9.953  10.258  68.914  1.00  0.00    -0.201 C  
HETATM    5  OXT UNL     1     -10.067   7.871  68.389  1.00  0.00    -0.182 OA 
HETATM    6  C   UNL     1      -9.440   8.917  68.376  1.00  0.00    -0.140 C  
HETATM    7  O   UNL     1      -8.172   9.026  67.894  1.00  0.00    -0.109 OA 
ENDROOT
BRANCH   4   8
HETATM    8  C   UNL     1     -11.240  10.640  68.132  1.00  0.00    -0.302 C  
HETATM    9  O   UNL     1     -11.103  10.310  66.746  1.00  0.00    -0.091 OA 
HETATM   10  H   UNL     1     -11.889  10.544  66.267  1.00  0.00     0.000 HD 
BRANCH   8  11
HETATM   11  C   UNL     1     -11.553  12.124  68.247  1.00  0.00    -0.382 A  
HETATM   12  C   UNL     1     -11.507  12.965  67.118  1.00  0.00    -0.388 A  
HETATM   13  C   UNL     1     -11.737  14.328  67.256  1.00  0.00    -0.395 A  
HETATM   14  C   UNL     1     -12.025  14.868  68.504  1.00  0.00    -0.241 A  
HETATM   15  O   UNL     1     -11.675  15.181  66.189  1.00  0.00    -0.174 OA 
HETATM   16  H   UNL     1     -11.832  16.113  66.283  1.00  0.00     0.000 HD 
HETATM   17  O   UNL     1     -12.237  16.210  68.634  1.00  0.00    -0.297 OA 
HETATM   18  C   UNL     1     -12.095  14.058  69.628  1.00  0.00    -0.408 A  
HETATM   19  C   UNL     1     -11.855  12.686  69.501  1.00  0.00    -0.376 A  
HETATM   20  H   UNL     1     -12.434  16.579  69.487  1.00  0.00     0.000 HD 
ENDBRANCH   8  11
ENDBRANCH   4   8
TORSDOF 2
ENDMDL
MODEL      161
REMARK 921   NORMALIZED FREE ENERGY PREDICTED BY IDOCK:   -3.72 KCAL/MOL
REMARK 922        TOTAL FREE ENERGY PREDICTED BY IDOCK:   -4.42 KCAL/MOL
REMARK 923 INTER-LIGAND FREE ENERGY PREDICTED BY IDOCK:   -4.16 KCAL/MOL
REMARK 924 INTRA-LIGAND FREE ENERGY PREDICTED BY IDOCK:   -0.27 KCAL/MOL
REMARK 927      BINDING AFFINITY PREDICTED BY RF-SCORE:    0.00 PKD
ROOT
HETATM    1  N   UNL     1      -8.699  19.232  68.875  1.00  0.00    -0.342 NA 
HETATM    2  H1  UNL     1      -9.594  18.759  69.005  1.00  0.00     0.000 HD 
HETATM    3  H2  UNL     1      -8.805  20.206  68.592  1.00  0.00     0.000 HD 
HETATM    4  CA  UNL     1      -7.888  18.421  67.895  1.00  0.00    -0.256 C  
HETATM    5  OXT UNL     1      -5.607  18.695  67.055  1.00  0.00    -0.141 OA 
HETATM    6  C   UNL     1      -6.544  19.133  67.700  1.00  0.00    -0.206 C  
HETATM    7  O   UNL     1      -6.511  20.323  68.359  1.00  0.00    -0.284 OA 
ENDROOT
BRANCH   4   8
HETATM    8  C   UNL     1      -8.531  18.194  66.499  1.00  0.00    -0.262 C  
HETATM    9  O   UNL     1      -9.643  19.075  66.308  1.00  0.00    -0.344 OA 
HETATM   10  H   UNL     1     -10.036  18.936  65.454  1.00  0.00     0.000 HD 
BRANCH   8  11
HETATM   11  C   UNL     1      -9.013  16.761  66.324  1.00  0.00    -0.325 A  
HETATM   12  C   UNL     1      -8.278  15.679  66.847  1.00  0.00    -0.288 A  
HETATM   13  C   UNL     1      -8.703  14.376  66.623  1.00  0.00    -0.099 A  
HETATM   14  C   UNL     1      -9.861  14.132  65.893  1.00  0.00    -0.289 A  
HETATM   15  O   UNL     1      -8.003  13.299  67.092  1.00  0.00    -0.316 OA 
HETATM   16  H   UNL     1      -8.294  12.408  66.938  1.00  0.00     0.000 HD 
HETATM   17  O   UNL     1     -10.266  12.849  65.667  1.00  0.00    -0.279 OA 
HETATM   18  C   UNL     1     -10.613  15.181  65.385  1.00  0.00    -0.410 A  
HETATM   19  C   UNL     1     -10.187  16.496  65.596  1.00  0.00    -0.316 A  
HETATM   20  H   UNL     1     -11.057  12.682  65.168  1.00  0.00     0.000 HD 
ENDBRANCH   8  11
ENDBRANCH   4   8
TORSDOF 2
ENDMDL
MODEL      162
REMARK 921   NORMALIZED FREE ENERGY PREDICTED BY IDOCK:   -3.71 KCAL/MOL
REMARK 922        TOTAL FREE ENERGY PREDICTED BY IDOCK:   -4.41 KCAL/MOL
REMARK 923 INTER-LIGAND FREE ENERGY PREDICTED BY IDOCK:   -4.66 KCAL/MOL
REMARK 924 INTRA-LIGAND FREE ENERGY PREDICTED BY IDOCK:    0.25 KCAL/MOL
REMARK 927      BINDING AFFINITY PREDICTED BY RF-SCORE:    0.00 PKD
ROOT
HETATM    1  N   UNL     1      -7.350  21.266  67.388  1.00  0.00    -0.666 NA 
HETATM    2  H1  UNL     1      -6.408  21.634  67.255  1.00  0.00     0.000 HD 
HETATM    3  H2  UNL     1      -7.482  20.837  68.304  1.00  0.00     0.000 HD 
HETATM    4  CA  UNL     1      -7.639  20.318  66.250  1.00  0.00    -0.219 C  
HETATM    5  OXT UNL     1      -9.648  19.053  65.658  1.00  0.00    -0.327 OA 
HETATM    6  C   UNL     1      -9.055  19.765  66.451  1.00  0.00    -0.382 C  
HETATM    7  O   UNL     1      -9.591  20.185  67.629  1.00  0.00    -0.368 OA 
ENDROOT
BRANCH   4   8
HETATM    8  C   UNL     1      -6.662  19.121  66.094  1.00  0.00    -0.220 C  
HETATM    9  O   UNL     1      -6.645  18.658  64.739  1.00  0.00    -0.472 OA 
HETATM   10  H   UNL     1      -6.048  17.926  64.643  1.00  0.00     0.000 HD 
BRANCH   8  11
HETATM   11  C   UNL     1      -7.042  17.958  66.997  1.00  0.00    -0.209 A  
HETATM   12  C   UNL     1      -7.511  16.743  66.459  1.00  0.00    -0.322 A  
HETATM   13  C   UNL     1      -7.912  15.716  67.303  1.00  0.00    -0.197 A  
HETATM   14  C   UNL     1      -7.840  15.874  68.683  1.00  0.00    -0.164 A  
HETATM   15  O   UNL     1      -8.397  14.533  66.820  1.00  0.00    -0.387 OA 
HETATM   16  H   UNL     1      -8.671  13.830  67.397  1.00  0.00     0.000 HD 
HETATM   17  O   UNL     1      -8.247  14.865  69.506  1.00  0.00    -0.366 OA 
HETATM   18  C   UNL     1      -7.363  17.053  69.237  1.00  0.00    -0.119 A  
HETATM   19  C   UNL     1      -6.968  18.097  68.395  1.00  0.00    -0.243 A  
HETATM   20  H   UNL     1      -8.198  14.973  70.449  1.00  0.00     0.000 HD 
ENDBRANCH   8  11
ENDBRANCH   4   8
TORSDOF 2
ENDMDL
MODEL      163
REMARK 921   NORMALIZED FREE ENERGY PREDICTED BY IDOCK:   -3.69 KCAL/MOL
REMARK 922        TOTAL FREE ENERGY PREDICTED BY IDOCK:   -4.39 KCAL/MOL
REMARK 923 INTER-LIGAND FREE ENERGY PREDICTED BY IDOCK:   -4.26 KCAL/MOL
REMARK 924 INTRA-LIGAND FREE ENERGY PREDICTED BY IDOCK:   -0.13 KCAL/MOL
REMARK 927      BINDING AFFINITY PREDICTED BY RF-SCORE:    0.00 PKD
ROOT
HETATM    1  N   UNL     1      -7.802  19.205  69.213  1.00  0.00    -0.168 NA 
HETATM    2  H1  UNL     1      -6.829  19.451  69.034  1.00  0.00     0.000 HD 
HETATM    3  H2  UNL     1      -7.930  18.212  69.410  1.00  0.00     0.000 HD 
HETATM    4  CA  UNL     1      -8.620  19.679  68.037  1.00  0.00    -0.312 C  
HETATM    5  OXT UNL     1     -11.029  19.637  67.610  1.00  0.00    -0.380 OA 
HETATM    6  C   UNL     1     -10.083  19.308  68.307  1.00  0.00    -0.425 C  
HETATM    7  O   UNL     1     -10.209  18.574  69.445  1.00  0.00    -0.163 OA 
ENDROOT
BRANCH   4   8
HETATM    8  C   UNL     1      -8.217  19.108  66.650  1.00  0.00    -0.293 C  
HETATM    9  O   UNL     1      -9.017  19.689  65.614  1.00  0.00    -0.325 OA 
HETATM   10  H   UNL     1      -8.770  19.340  64.766  1.00  0.00     0.000 HD 
BRANCH   8  11
HETATM   11  C   UNL     1      -8.375  17.596  66.592  1.00  0.00    -0.288 A  
HETATM   12  C   UNL     1      -9.516  17.007  66.011  1.00  0.00    -0.195 A  
HETATM   13  C   UNL     1      -9.670  15.627  66.023  1.00  0.00    -0.346 A  
HETATM   14  C   UNL     1      -8.695  14.818  66.597  1.00  0.00    -0.194 A  
HETATM   15  O   UNL     1     -10.774  15.020  65.493  1.00  0.00    -0.313 OA 
HETATM   16  H   UNL     1     -10.879  14.076  65.502  1.00  0.00     0.000 HD 
HETATM   17  O   UNL     1      -8.859  13.464  66.616  1.00  0.00    -0.400 OA 
HETATM   18  C   UNL     1      -7.554  15.372  67.157  1.00  0.00    -0.238 A  
HETATM   19  C   UNL     1      -7.395  16.762  67.159  1.00  0.00    -0.222 A  
HETATM   20  H   UNL     1      -8.193  12.911  67.008  1.00  0.00     0.000 HD 
ENDBRANCH   8  11
ENDBRANCH   4   8
TORSDOF 2
ENDMDL
MODEL      164
REMARK 921   NORMALIZED FREE ENERGY PREDICTED BY IDOCK:   -3.69 KCAL/MOL
REMARK 922        TOTAL FREE ENERGY PREDICTED BY IDOCK:   -4.39 KCAL/MOL
REMARK 923 INTER-LIGAND FREE ENERGY PREDICTED BY IDOCK:   -4.09 KCAL/MOL
REMARK 924 INTRA-LIGAND FREE ENERGY PREDICTED BY IDOCK:   -0.30 KCAL/MOL
REMARK 927      BINDING AFFINITY PREDICTED BY RF-SCORE:    0.00 PKD
ROOT
HETATM    1  N   UNL     1     -10.528  10.395  63.939  1.00  0.00    -0.393 NA 
HETATM    2  H1  UNL     1     -11.203  11.053  64.330  1.00  0.00     0.000 HD 
HETATM    3  H2  UNL     1     -10.799   9.421  64.076  1.00  0.00     0.000 HD 
HETATM    4  CA  UNL     1      -9.178  10.717  64.530  1.00  0.00    -0.231 C  
HETATM    5  OXT UNL     1      -6.958   9.770  64.125  1.00  0.00    -0.112 OA 
HETATM    6  C   UNL     1      -8.164   9.728  63.943  1.00  0.00    -0.159 C  
HETATM    7  O   UNL     1      -8.773   8.793  63.165  1.00  0.00    -0.133 OA 
ENDROOT
BRANCH   4   8
HETATM    8  C   UNL     1      -9.079  10.658  66.080  1.00  0.00    -0.180 C  
HETATM    9  O   UNL     1      -9.388   9.343  66.554  1.00  0.00    -0.151 OA 
HETATM   10  H   UNL     1      -9.327   9.307  67.502  1.00  0.00     0.000 HD 
BRANCH   8  11
HETATM   11  C   UNL     1     -10.025  11.647  66.745  1.00  0.00    -0.229 A  
HETATM   12  C   UNL     1      -9.979  13.019  66.430  1.00  0.00    -0.277 A  
HETATM   13  C   UNL     1     -10.809  13.914  67.094  1.00  0.00    -0.284 A  
HETATM   14  C   UNL     1     -11.698  13.459  68.062  1.00  0.00    -0.356 A  
HETATM   15  O   UNL     1     -10.776  15.256  66.836  1.00  0.00    -0.303 OA 
HETATM   16  H   UNL     1     -11.343  15.867  67.289  1.00  0.00     0.000 HD 
HETATM   17  O   UNL     1     -12.502  14.345  68.718  1.00  0.00    -0.582 OA 
HETATM   18  C   UNL     1     -11.776  12.111  68.375  1.00  0.00    -0.388 A  
HETATM   19  C   UNL     1     -10.936  11.204  67.720  1.00  0.00    -0.315 A  
HETATM   20  H   UNL     1     -13.109  14.035  69.379  1.00  0.00     0.000 HD 
ENDBRANCH   8  11
ENDBRANCH   4   8
TORSDOF 2
ENDMDL
MODEL      165
REMARK 921   NORMALIZED FREE ENERGY PREDICTED BY IDOCK:   -3.69 KCAL/MOL
REMARK 922        TOTAL FREE ENERGY PREDICTED BY IDOCK:   -4.39 KCAL/MOL
REMARK 923 INTER-LIGAND FREE ENERGY PREDICTED BY IDOCK:   -4.16 KCAL/MOL
REMARK 924 INTRA-LIGAND FREE ENERGY PREDICTED BY IDOCK:   -0.23 KCAL/MOL
REMARK 927      BINDING AFFINITY PREDICTED BY RF-SCORE:    0.00 PKD
ROOT
HETATM    1  N   UNL     1     -10.883   8.009  67.580  1.00  0.00    -0.518 NA 
HETATM    2  H1  UNL     1     -11.605   8.251  68.258  1.00  0.00     0.000 HD 
HETATM    3  H2  UNL     1     -10.104   7.498  67.996  1.00  0.00     0.000 HD 
HETATM    4  CA  UNL     1     -10.450   9.282  66.896  1.00  0.00    -0.214 C  
HETATM    5  OXT UNL     1      -8.868   9.692  65.075  1.00  0.00    -0.161 OA 
HETATM    6  C   UNL     1      -9.364   8.918  65.877  1.00  0.00    -0.236 C  
HETATM    7  O   UNL     1      -9.025   7.603  65.958  1.00  0.00    -0.171 OA 
ENDROOT
BRANCH   4   8
HETATM    8  C   UNL     1      -9.900  10.402  67.821  1.00  0.00    -0.168 C  
HETATM    9  O   UNL     1     -10.463  10.293  69.133  1.00  0.00    -0.196 OA 
HETATM   10  H   UNL     1     -10.126  10.977  69.699  1.00  0.00     0.000 HD 
BRANCH   8  11
HETATM   11  C   UNL     1     -10.208  11.789  67.277  1.00  0.00    -0.226 A  
HETATM   12  C   UNL     1     -11.520  12.150  66.912  1.00  0.00    -0.414 A  
HETATM   13  C   UNL     1     -11.770  13.400  66.360  1.00  0.00    -0.368 A  
HETATM   14  C   UNL     1     -10.731  14.305  66.175  1.00  0.00    -0.295 A  
HETATM   15  O   UNL     1     -13.024  13.778  65.969  1.00  0.00    -0.345 OA 
HETATM   16  H   UNL     1     -13.195  14.632  65.591  1.00  0.00     0.000 HD 
HETATM   17  O   UNL     1     -10.981  15.526  65.621  1.00  0.00    -0.333 OA 
HETATM   18  C   UNL     1      -9.434  13.980  66.545  1.00  0.00    -0.295 A  
HETATM   19  C   UNL     1      -9.171  12.720  67.092  1.00  0.00    -0.219 A  
HETATM   20  H   UNL     1     -10.272  16.145  65.495  1.00  0.00     0.000 HD 
ENDBRANCH   8  11
ENDBRANCH   4   8
TORSDOF 2
ENDMDL
MODEL      166
REMARK 921   NORMALIZED FREE ENERGY PREDICTED BY IDOCK:   -3.64 KCAL/MOL
REMARK 922        TOTAL FREE ENERGY PREDICTED BY IDOCK:   -4.33 KCAL/MOL
REMARK 923 INTER-LIGAND FREE ENERGY PREDICTED BY IDOCK:   -5.50 KCAL/MOL
REMARK 924 INTRA-LIGAND FREE ENERGY PREDICTED BY IDOCK:    1.17 KCAL/MOL
REMARK 927      BINDING AFFINITY PREDICTED BY RF-SCORE:    0.00 PKD
ROOT
HETATM    1  N   UNL     1     -12.444  15.037  64.104  1.00  0.00    -0.901 NA 
HETATM    2  H1  UNL     1     -11.928  15.822  63.706  1.00  0.00     0.000 HD 
HETATM    3  H2  UNL     1     -12.771  15.217  65.053  1.00  0.00     0.000 HD 
HETATM    4  CA  UNL     1     -11.565  13.814  64.009  1.00  0.00    -0.275 C  
HETATM    5  OXT UNL     1     -11.969  11.473  64.595  1.00  0.00    -0.043 OA 
HETATM    6  C   UNL     1     -12.341  12.634  64.607  1.00  0.00    -0.476 C  
HETATM    7  O   UNL     1     -13.525  13.038  65.143  1.00  0.00    -0.481 OA 
ENDROOT
BRANCH   4   8
HETATM    8  C   UNL     1     -10.188  13.906  64.721  1.00  0.00    -0.324 C  
HETATM    9  O   UNL     1      -9.446  12.694  64.542  1.00  0.00    -0.415 OA 
HETATM   10  H   UNL     1      -8.604  12.751  64.977  1.00  0.00     0.000 HD 
BRANCH   8  11
HETATM   11  C   UNL     1     -10.337  14.165  66.213  1.00  0.00    -0.294 A  
HETATM   12  C   UNL     1      -9.229  14.081  67.079  1.00  0.00    -0.262 A  
HETATM   13  C   UNL     1      -9.399  14.261  68.446  1.00  0.00    -0.208 A  
HETATM   14  C   UNL     1     -10.659  14.536  68.965  1.00  0.00    -0.247 A  
HETATM   15  O   UNL     1      -8.354  14.161  69.321  1.00  0.00    -0.353 OA 
HETATM   16  H   UNL     1      -8.470  14.284  70.256  1.00  0.00     0.000 HD 
HETATM   17  O   UNL     1     -10.820  14.700  70.310  1.00  0.00    -0.464 OA 
HETATM   18  C   UNL     1     -11.761  14.644  68.131  1.00  0.00    -0.360 A  
HETATM   19  C   UNL     1     -11.602  14.454  66.755  1.00  0.00    -0.399 A  
HETATM   20  H   UNL     1     -11.681  14.888  70.666  1.00  0.00     0.000 HD 
ENDBRANCH   8  11
ENDBRANCH   4   8
TORSDOF 2
ENDMDL
MODEL      167
REMARK 921   NORMALIZED FREE ENERGY PREDICTED BY IDOCK:   -3.63 KCAL/MOL
REMARK 922        TOTAL FREE ENERGY PREDICTED BY IDOCK:   -4.33 KCAL/MOL
REMARK 923 INTER-LIGAND FREE ENERGY PREDICTED BY IDOCK:   -4.19 KCAL/MOL
REMARK 924 INTRA-LIGAND FREE ENERGY PREDICTED BY IDOCK:   -0.14 KCAL/MOL
REMARK 927      BINDING AFFINITY PREDICTED BY RF-SCORE:    0.00 PKD
ROOT
HETATM    1  N   UNL     1      -9.687  14.190  68.881  1.00  0.00    -0.391 NA 
HETATM    2  H1  UNL     1      -8.695  14.429  68.878  1.00  0.00     0.000 HD 
HETATM    3  H2  UNL     1      -9.910  13.432  69.526  1.00  0.00     0.000 HD 
HETATM    4  CA  UNL     1     -10.090  13.887  67.459  1.00  0.00    -0.244 C  
HETATM    5  OXT UNL     1     -12.257  13.331  66.468  1.00  0.00    -0.387 OA 
HETATM    6  C   UNL     1     -11.581  13.528  67.464  1.00  0.00    -0.350 C  
HETATM    7  O   UNL     1     -12.076  13.473  68.730  1.00  0.00    -0.344 OA 
ENDROOT
BRANCH   4   8
HETATM    8  C   UNL     1      -9.312  12.740  66.757  1.00  0.00    -0.241 C  
HETATM    9  O   UNL     1      -9.770  12.571  65.412  1.00  0.00    -0.406 OA 
HETATM   10  H   UNL     1      -9.294  11.870  64.982  1.00  0.00     0.000 HD 
BRANCH   8  11
HETATM   11  C   UNL     1      -9.469  11.417  67.492  1.00  0.00    -0.173 A  
HETATM   12  C   UNL     1     -10.216  10.362  66.933  1.00  0.00    -0.281 A  
HETATM   13  C   UNL     1     -10.399   9.184  67.647  1.00  0.00    -0.255 A  
HETATM   14  C   UNL     1      -9.835   9.035  68.910  1.00  0.00    -0.175 A  
HETATM   15  O   UNL     1     -11.139   8.148  67.151  1.00  0.00    -0.419 OA 
HETATM   16  H   UNL     1     -11.264   7.343  67.640  1.00  0.00     0.000 HD 
HETATM   17  O   UNL     1     -10.028   7.881  69.610  1.00  0.00    -0.184 OA 
HETATM   18  C   UNL     1      -9.078  10.052  69.472  1.00  0.00    -0.236 A  
HETATM   19  C   UNL     1      -8.898  11.246  68.765  1.00  0.00    -0.106 A  
HETATM   20  H   UNL     1      -9.643   7.779  70.473  1.00  0.00     0.000 HD 
ENDBRANCH   8  11
ENDBRANCH   4   8
TORSDOF 2
ENDMDL
MODEL      168
REMARK 921   NORMALIZED FREE ENERGY PREDICTED BY IDOCK:   -3.62 KCAL/MOL
REMARK 922        TOTAL FREE ENERGY PREDICTED BY IDOCK:   -4.32 KCAL/MOL
REMARK 923 INTER-LIGAND FREE ENERGY PREDICTED BY IDOCK:   -4.05 KCAL/MOL
REMARK 924 INTRA-LIGAND FREE ENERGY PREDICTED BY IDOCK:   -0.26 KCAL/MOL
REMARK 927      BINDING AFFINITY PREDICTED BY RF-SCORE:    0.00 PKD
ROOT
HETATM    1  N   UNL     1      -9.603   8.718  65.796  1.00  0.00    -0.445 NA 
HETATM    2  H1  UNL     1      -9.949   7.769  65.932  1.00  0.00     0.000 HD 
HETATM    3  H2  UNL     1      -8.683   8.744  65.356  1.00  0.00     0.000 HD 
HETATM    4  CA  UNL     1      -9.633   9.415  67.133  1.00  0.00    -0.154 C  
HETATM    5  OXT UNL     1      -9.101  11.715  67.780  1.00  0.00    -0.164 OA 
HETATM    6  C   UNL     1      -9.111  10.843  66.927  1.00  0.00    -0.154 C  
HETATM    7  O   UNL     1      -8.672  11.033  65.653  1.00  0.00    -0.186 OA 
ENDROOT
BRANCH   4   8
HETATM    8  C   UNL     1      -8.808   8.750  68.269  1.00  0.00    -0.141 C  
HETATM    9  O   UNL     1      -8.297   7.482  67.844  1.00  0.00    -0.122 OA 
HETATM   10  H   UNL     1      -7.792   7.076  68.538  1.00  0.00     0.000 HD 
BRANCH   8  11
HETATM   11  C   UNL     1      -9.640   8.540  69.525  1.00  0.00    -0.170 A  
HETATM   12  C   UNL     1     -10.875   7.864  69.473  1.00  0.00    -0.141 A  
HETATM   13  C   UNL     1     -11.648   7.737  70.620  1.00  0.00    -0.218 A  
HETATM   14  C   UNL     1     -11.203   8.263  71.827  1.00  0.00    -0.283 A  
HETATM   15  O   UNL     1     -12.863   7.111  70.604  1.00  0.00    -0.609 OA 
HETATM   16  H   UNL     1     -13.392   7.024  71.388  1.00  0.00     0.000 HD 
HETATM   17  O   UNL     1     -11.973   8.145  72.947  1.00  0.00    -0.581 OA 
HETATM   18  C   UNL     1      -9.981   8.915  71.909  1.00  0.00    -0.384 A  
HETATM   19  C   UNL     1      -9.201   9.058  70.757  1.00  0.00    -0.299 A  
HETATM   20  H   UNL     1     -11.669   8.505  73.772  1.00  0.00     0.000 HD 
ENDBRANCH   8  11
ENDBRANCH   4   8
TORSDOF 2
ENDMDL
MODEL      169
REMARK 921   NORMALIZED FREE ENERGY PREDICTED BY IDOCK:   -3.62 KCAL/MOL
REMARK 922        TOTAL FREE ENERGY PREDICTED BY IDOCK:   -4.31 KCAL/MOL
REMARK 923 INTER-LIGAND FREE ENERGY PREDICTED BY IDOCK:   -4.04 KCAL/MOL
REMARK 924 INTRA-LIGAND FREE ENERGY PREDICTED BY IDOCK:   -0.27 KCAL/MOL
REMARK 927      BINDING AFFINITY PREDICTED BY RF-SCORE:    0.00 PKD
ROOT
HETATM    1  N   UNL     1     -11.983  13.343  71.063  1.00  0.00    -0.431 NA 
HETATM    2  H1  UNL     1     -11.609  12.623  71.682  1.00  0.00     0.000 HD 
HETATM    3  H2  UNL     1     -12.996  13.286  70.956  1.00  0.00     0.000 HD 
HETATM    4  CA  UNL     1     -11.248  13.247  69.749  1.00  0.00     0.039 C  
HETATM    5  OXT UNL     1     -11.370  14.602  67.716  1.00  0.00    -0.294 OA 
HETATM    6  C   UNL     1     -11.810  14.329  68.820  1.00  0.00    -0.341 C  
HETATM    7  O   UNL     1     -12.863  14.976  69.389  1.00  0.00     0.124 OA 
ENDROOT
BRANCH   4   8
HETATM    8  C   UNL     1     -11.333  11.879  69.017  1.00  0.00    -0.279 C  
HETATM    9  O   UNL     1     -12.401  11.884  68.064  1.00  0.00    -0.363 OA 
HETATM   10  H   UNL     1     -12.453  11.048  67.616  1.00  0.00     0.000 HD 
BRANCH   8  11
HETATM   11  C   UNL     1     -11.557  10.730  69.989  1.00  0.00    -0.417 A  
HETATM   12  C   UNL     1     -10.470  10.006  70.519  1.00  0.00    -0.265 A  
HETATM   13  C   UNL     1     -10.699   8.921  71.356  1.00  0.00    -0.312 A  
HETATM   14  C   UNL     1     -11.998   8.552  71.685  1.00  0.00    -0.316 A  
HETATM   15  O   UNL     1      -9.673   8.178  71.870  1.00  0.00    -0.171 OA 
HETATM   16  H   UNL     1      -9.829   7.437  72.442  1.00  0.00     0.000 HD 
HETATM   17  O   UNL     1     -12.216   7.478  72.498  1.00  0.00    -0.516 OA 
HETATM   18  C   UNL     1     -13.083   9.260  71.192  1.00  0.00    -0.251 A  
HETATM   19  C   UNL     1     -12.863  10.347  70.340  1.00  0.00    -0.249 A  
HETATM   20  H   UNL     1     -13.104   7.225  72.723  1.00  0.00     0.000 HD 
ENDBRANCH   8  11
ENDBRANCH   4   8
TORSDOF 2
ENDMDL
MODEL      170
REMARK 921   NORMALIZED FREE ENERGY PREDICTED BY IDOCK:   -3.62 KCAL/MOL
REMARK 922        TOTAL FREE ENERGY PREDICTED BY IDOCK:   -4.31 KCAL/MOL
REMARK 923 INTER-LIGAND FREE ENERGY PREDICTED BY IDOCK:   -4.24 KCAL/MOL
REMARK 924 INTRA-LIGAND FREE ENERGY PREDICTED BY IDOCK:   -0.07 KCAL/MOL
REMARK 927      BINDING AFFINITY PREDICTED BY RF-SCORE:    0.00 PKD
ROOT
HETATM    1  N   UNL     1     -11.845  14.814  68.545  1.00  0.00    -0.467 NA 
HETATM    2  H1  UNL     1     -11.861  15.661  67.977  1.00  0.00     0.000 HD 
HETATM    3  H2  UNL     1     -11.019  14.752  69.141  1.00  0.00     0.000 HD 
HETATM    4  CA  UNL     1     -11.986  13.635  67.614  1.00  0.00    -0.351 C  
HETATM    5  OXT UNL     1     -12.157  11.233  68.047  1.00  0.00    -0.638 OA 
HETATM    6  C   UNL     1     -11.960  12.361  68.467  1.00  0.00    -0.223 C  
HETATM    7  O   UNL     1     -11.709  12.642  69.775  1.00  0.00    -0.309 OA 
ENDROOT
BRANCH   4   8
HETATM    8  C   UNL     1     -10.903  13.505  66.507  1.00  0.00    -0.282 C  
HETATM    9  O   UNL     1     -10.688  12.130  66.172  1.00  0.00    -0.256 OA 
HETATM   10  H   UNL     1     -10.026  12.051  65.495  1.00  0.00     0.000 HD 
BRANCH   8  11
HETATM   11  C   UNL     1      -9.576  14.111  66.939  1.00  0.00    -0.275 A  
HETATM   12  C   UNL     1      -8.789  13.499  67.935  1.00  0.00    -0.190 A  
HETATM   13  C   UNL     1      -7.611  14.101  68.359  1.00  0.00    -0.130 A  
HETATM   14  C   UNL     1      -7.195  15.302  67.795  1.00  0.00    -0.165 A  
HETATM   15  O   UNL     1      -6.834  13.552  69.340  1.00  0.00    -0.222 OA 
HETATM   16  H   UNL     1      -6.028  13.964  69.630  1.00  0.00     0.000 HD 
HETATM   17  O   UNL     1      -6.044  15.894  68.225  1.00  0.00    -0.100 OA 
HETATM   18  C   UNL     1      -7.942  15.914  66.799  1.00  0.00    -0.287 A  
HETATM   19  C   UNL     1      -9.136  15.321  66.374  1.00  0.00    -0.347 A  
HETATM   20  H   UNL     1      -5.759  16.715  67.840  1.00  0.00     0.000 HD 
ENDBRANCH   8  11
ENDBRANCH   4   8
TORSDOF 2
ENDMDL
MODEL      171
REMARK 921   NORMALIZED FREE ENERGY PREDICTED BY IDOCK:   -3.61 KCAL/MOL
REMARK 922        TOTAL FREE ENERGY PREDICTED BY IDOCK:   -4.30 KCAL/MOL
REMARK 923 INTER-LIGAND FREE ENERGY PREDICTED BY IDOCK:   -4.10 KCAL/MOL
REMARK 924 INTRA-LIGAND FREE ENERGY PREDICTED BY IDOCK:   -0.20 KCAL/MOL
REMARK 927      BINDING AFFINITY PREDICTED BY RF-SCORE:    0.00 PKD
ROOT
HETATM    1  N   UNL     1      -8.793   7.614  70.075  1.00  0.00    -0.142 NA 
HETATM    2  H1  UNL     1      -8.657   7.070  69.223  1.00  0.00     0.000 HD 
HETATM    3  H2  UNL     1      -8.452   7.136  70.910  1.00  0.00     0.000 HD 
HETATM    4  CA  UNL     1     -10.256   7.972  70.162  1.00  0.00    -0.203 C  
HETATM    5  OXT UNL     1     -11.505   9.331  71.769  1.00  0.00    -0.366 OA 
HETATM    6  C   UNL     1     -10.461   8.789  71.443  1.00  0.00    -0.284 C  
HETATM    7  O   UNL     1      -9.318   8.859  72.178  1.00  0.00    -0.348 OA 
ENDROOT
BRANCH   4   8
HETATM    8  C   UNL     1     -11.252   6.779  70.177  1.00  0.00    -0.335 C  
HETATM    9  O   UNL     1     -12.581   7.237  70.449  1.00  0.00    -0.572 OA 
HETATM   10  H   UNL     1     -13.190   6.508  70.458  1.00  0.00     0.000 HD 
BRANCH   8  11
HETATM   11  C   UNL     1     -10.875   5.739  71.221  1.00  0.00    -0.313 A  
HETATM   12  C   UNL     1      -9.964   4.707  70.921  1.00  0.00    -0.273 A  
HETATM   13  C   UNL     1      -9.680   3.732  71.868  1.00  0.00    -0.167 A  
HETATM   14  C   UNL     1     -10.282   3.776  73.121  1.00  0.00    -0.157 A  
HETATM   15  O   UNL     1      -8.823   2.700  71.607  1.00  0.00    -0.071 OA 
HETATM   16  H   UNL     1      -8.629   2.033  72.254  1.00  0.00     0.000 HD 
HETATM   17  O   UNL     1     -10.007   2.809  74.043  1.00  0.00    -0.094 OA 
HETATM   18  C   UNL     1     -11.165   4.794  73.448  1.00  0.00    -0.425 A  
HETATM   19  C   UNL     1     -11.466   5.774  72.496  1.00  0.00    -0.349 A  
HETATM   20  H   UNL     1     -10.418   2.839  74.899  1.00  0.00     0.000 HD 
ENDBRANCH   8  11
ENDBRANCH   4   8
TORSDOF 2
ENDMDL
MODEL      172
REMARK 921   NORMALIZED FREE ENERGY PREDICTED BY IDOCK:   -3.60 KCAL/MOL
REMARK 922        TOTAL FREE ENERGY PREDICTED BY IDOCK:   -4.29 KCAL/MOL
REMARK 923 INTER-LIGAND FREE ENERGY PREDICTED BY IDOCK:   -4.09 KCAL/MOL
REMARK 924 INTRA-LIGAND FREE ENERGY PREDICTED BY IDOCK:   -0.20 KCAL/MOL
REMARK 927      BINDING AFFINITY PREDICTED BY RF-SCORE:    0.00 PKD
ROOT
HETATM    1  N   UNL     1      -9.795   4.260  70.773  1.00  0.00    -0.204 NA 
HETATM    2  H1  UNL     1      -9.431   4.476  69.845  1.00  0.00     0.000 HD 
HETATM    3  H2  UNL     1     -10.686   3.763  70.742  1.00  0.00     0.000 HD 
HETATM    4  CA  UNL     1      -9.870   5.551  71.549  1.00  0.00    -0.171 C  
HETATM    5  OXT UNL     1     -10.509   6.021  73.865  1.00  0.00    -0.257 OA 
HETATM    6  C   UNL     1     -10.419   5.226  72.944  1.00  0.00    -0.211 C  
HETATM    7  O   UNL     1     -10.781   3.918  73.044  1.00  0.00    -0.172 OA 
ENDROOT
BRANCH   4   8
HETATM    8  C   UNL     1     -10.747   6.673  70.927  1.00  0.00    -0.235 C  
HETATM    9  O   UNL     1     -12.137   6.351  71.048  1.00  0.00    -0.300 OA 
HETATM   10  H   UNL     1     -12.673   7.037  70.668  1.00  0.00     0.000 HD 
BRANCH   8  11
HETATM   11  C   UNL     1     -10.427   6.890  69.456  1.00  0.00    -0.244 A  
HETATM   12  C   UNL     1     -11.088   6.154  68.453  1.00  0.00    -0.343 A  
HETATM   13  C   UNL     1     -10.738   6.323  67.119  1.00  0.00    -0.359 A  
HETATM   14  C   UNL     1      -9.744   7.229  66.765  1.00  0.00    -0.198 A  
HETATM   15  O   UNL     1     -11.337   5.608  66.120  1.00  0.00    -0.739 OA 
HETATM   16  H   UNL     1     -11.097   5.724  65.209  1.00  0.00     0.000 HD 
HETATM   17  O   UNL     1      -9.397   7.382  65.455  1.00  0.00    -0.371 OA 
HETATM   18  C   UNL     1      -9.093   7.981  67.732  1.00  0.00    -0.136 A  
HETATM   19  C   UNL     1      -9.431   7.809  69.079  1.00  0.00    -0.150 A  
HETATM   20  H   UNL     1      -8.718   8.001  65.213  1.00  0.00     0.000 HD 
ENDBRANCH   8  11
ENDBRANCH   4   8
TORSDOF 2
ENDMDL
MODEL      173
REMARK 921   NORMALIZED FREE ENERGY PREDICTED BY IDOCK:   -3.60 KCAL/MOL
REMARK 922        TOTAL FREE ENERGY PREDICTED BY IDOCK:   -4.29 KCAL/MOL
REMARK 923 INTER-LIGAND FREE ENERGY PREDICTED BY IDOCK:   -4.02 KCAL/MOL
REMARK 924 INTRA-LIGAND FREE ENERGY PREDICTED BY IDOCK:   -0.27 KCAL/MOL
REMARK 927      BINDING AFFINITY PREDICTED BY RF-SCORE:    0.00 PKD
ROOT
HETATM    1  N   UNL     1      -9.416   8.040  71.434  1.00  0.00    -0.150 NA 
HETATM    2  H1  UNL     1      -8.719   8.183  70.703  1.00  0.00     0.000 HD 
HETATM    3  H2  UNL     1      -9.661   7.058  71.561  1.00  0.00     0.000 HD 
HETATM    4  CA  UNL     1     -10.609   8.904  71.106  1.00  0.00    -0.265 C  
HETATM    5  OXT UNL     1     -12.701   9.311  72.308  1.00  0.00    -0.382 OA 
HETATM    6  C   UNL     1     -11.657   8.688  72.204  1.00  0.00    -0.370 C  
HETATM    7  O   UNL     1     -11.272   7.718  73.077  1.00  0.00    -0.405 OA 
ENDROOT
BRANCH   4   8
HETATM    8  C   UNL     1     -11.281   8.646  69.729  1.00  0.00     0.016 C  
HETATM    9  O   UNL     1     -11.338   7.243  69.452  1.00  0.00    -0.467 OA 
HETATM   10  H   UNL     1     -11.749   7.085  68.610  1.00  0.00     0.000 HD 
BRANCH   8  11
HETATM   11  C   UNL     1     -10.533   9.333  68.596  1.00  0.00    -0.236 A  
HETATM   12  C   UNL     1      -9.970  10.613  68.770  1.00  0.00    -0.201 A  
HETATM   13  C   UNL     1      -9.344  11.248  67.705  1.00  0.00    -0.160 A  
HETATM   14  C   UNL     1      -9.258  10.621  66.467  1.00  0.00    -0.166 A  
HETATM   15  O   UNL     1      -8.809  12.500  67.826  1.00  0.00    -0.160 OA 
HETATM   16  H   UNL     1      -8.381  12.935  67.097  1.00  0.00     0.000 HD 
HETATM   17  O   UNL     1      -8.653  11.256  65.422  1.00  0.00    -0.369 OA 
HETATM   18  C   UNL     1      -9.787   9.353  66.277  1.00  0.00    -0.351 A  
HETATM   19  C   UNL     1     -10.428   8.710  67.340  1.00  0.00    -0.351 A  
HETATM   20  H   UNL     1      -8.594  10.827  64.576  1.00  0.00     0.000 HD 
ENDBRANCH   8  11
ENDBRANCH   4   8
TORSDOF 2
ENDMDL
MODEL      174
REMARK 921   NORMALIZED FREE ENERGY PREDICTED BY IDOCK:   -3.60 KCAL/MOL
REMARK 922        TOTAL FREE ENERGY PREDICTED BY IDOCK:   -4.28 KCAL/MOL
REMARK 923 INTER-LIGAND FREE ENERGY PREDICTED BY IDOCK:   -4.16 KCAL/MOL
REMARK 924 INTRA-LIGAND FREE ENERGY PREDICTED BY IDOCK:   -0.12 KCAL/MOL
REMARK 927      BINDING AFFINITY PREDICTED BY RF-SCORE:    0.00 PKD
ROOT
HETATM    1  N   UNL     1     -10.827   8.228  67.380  1.00  0.00    -0.497 NA 
HETATM    2  H1  UNL     1     -10.649   8.011  66.399  1.00  0.00     0.000 HD 
HETATM    3  H2  UNL     1     -11.596   8.887  67.506  1.00  0.00     0.000 HD 
HETATM    4  CA  UNL     1      -9.534   8.714  67.985  1.00  0.00    -0.140 C  
HETATM    5  OXT UNL     1      -8.951   9.359  70.272  1.00  0.00    -0.204 OA 
HETATM    6  C   UNL     1      -9.802   9.041  69.459  1.00  0.00    -0.180 C  
HETATM    7  O   UNL     1     -11.122   8.914  69.765  1.00  0.00    -0.200 OA 
ENDROOT
BRANCH   4   8
HETATM    8  C   UNL     1      -8.891   9.960  67.315  1.00  0.00    -0.132 C  
HETATM    9  O   UNL     1      -7.697  10.343  68.006  1.00  0.00    -0.091 OA 
HETATM   10  H   UNL     1      -7.304  11.105  67.596  1.00  0.00     0.000 HD 
BRANCH   8  11
HETATM   11  C   UNL     1      -9.842  11.147  67.298  1.00  0.00    -0.198 A  
HETATM   12  C   UNL     1      -9.881  12.062  68.369  1.00  0.00    -0.204 A  
HETATM   13  C   UNL     1     -10.799  13.104  68.362  1.00  0.00    -0.262 A  
HETATM   14  C   UNL     1     -11.676  13.258  67.294  1.00  0.00    -0.377 A  
HETATM   15  O   UNL     1     -10.885  13.996  69.394  1.00  0.00    -0.374 OA 
HETATM   16  H   UNL     1     -11.513  14.708  69.389  1.00  0.00     0.000 HD 
HETATM   17  O   UNL     1     -12.583  14.277  67.299  1.00  0.00    -0.544 OA 
HETATM   18  C   UNL     1     -11.644  12.383  66.218  1.00  0.00    -0.449 A  
HETATM   19  C   UNL     1     -10.730  11.324  66.222  1.00  0.00    -0.312 A  
HETATM   20  H   UNL     1     -13.182  14.383  66.569  1.00  0.00     0.000 HD 
ENDBRANCH   8  11
ENDBRANCH   4   8
TORSDOF 2
ENDMDL
MODEL      175
REMARK 921   NORMALIZED FREE ENERGY PREDICTED BY IDOCK:   -3.59 KCAL/MOL
REMARK 922        TOTAL FREE ENERGY PREDICTED BY IDOCK:   -4.28 KCAL/MOL
REMARK 923 INTER-LIGAND FREE ENERGY PREDICTED BY IDOCK:   -4.10 KCAL/MOL
REMARK 924 INTRA-LIGAND FREE ENERGY PREDICTED BY IDOCK:   -0.18 KCAL/MOL
REMARK 927      BINDING AFFINITY PREDICTED BY RF-SCORE:    0.00 PKD
ROOT
HETATM    1  N   UNL     1      -9.924  13.128  68.863  1.00  0.00    -0.434 NA 
HETATM    2  H1  UNL     1      -9.008  13.566  68.966  1.00  0.00     0.000 HD 
HETATM    3  H2  UNL     1      -9.977  12.212  69.308  1.00  0.00     0.000 HD 
HETATM    4  CA  UNL     1     -10.249  13.086  67.390  1.00  0.00    -0.231 C  
HETATM    5  OXT UNL     1     -12.241  12.329  66.187  1.00  0.00    -0.647 OA 
HETATM    6  C   UNL     1     -11.626  12.428  67.236  1.00  0.00    -0.365 C  
HETATM    7  O   UNL     1     -12.099  11.977  68.429  1.00  0.00    -0.412 OA 
ENDROOT
BRANCH   4   8
HETATM    8  C   UNL     1      -9.238  12.325  66.489  1.00  0.00    -0.219 C  
HETATM    9  O   UNL     1      -9.538  12.538  65.106  1.00  0.00    -0.462 OA 
HETATM   10  H   UNL     1      -8.919  12.073  64.554  1.00  0.00     0.000 HD 
BRANCH   8  11
HETATM   11  C   UNL     1      -9.250  10.828  66.762  1.00  0.00    -0.174 A  
HETATM   12  C   UNL     1      -8.710  10.304  67.953  1.00  0.00    -0.122 A  
HETATM   13  C   UNL     1      -8.676   8.930  68.156  1.00  0.00    -0.134 A  
HETATM   14  C   UNL     1      -9.185   8.066  67.192  1.00  0.00    -0.142 A  
HETATM   15  O   UNL     1      -8.137   8.381  69.285  1.00  0.00    -0.111 OA 
HETATM   16  H   UNL     1      -8.113   7.442  69.424  1.00  0.00     0.000 HD 
HETATM   17  O   UNL     1      -9.137   6.718  67.392  1.00  0.00    -0.118 OA 
HETATM   18  C   UNL     1      -9.740   8.560  66.021  1.00  0.00    -0.195 A  
HETATM   19  C   UNL     1      -9.769   9.941  65.803  1.00  0.00    -0.332 A  
HETATM   20  H   UNL     1      -9.485   6.127  66.734  1.00  0.00     0.000 HD 
ENDBRANCH   8  11
ENDBRANCH   4   8
TORSDOF 2
ENDMDL
MODEL      176
REMARK 921   NORMALIZED FREE ENERGY PREDICTED BY IDOCK:   -3.58 KCAL/MOL
REMARK 922        TOTAL FREE ENERGY PREDICTED BY IDOCK:   -4.27 KCAL/MOL
REMARK 923 INTER-LIGAND FREE ENERGY PREDICTED BY IDOCK:   -4.04 KCAL/MOL
REMARK 924 INTRA-LIGAND FREE ENERGY PREDICTED BY IDOCK:   -0.22 KCAL/MOL
REMARK 927      BINDING AFFINITY PREDICTED BY RF-SCORE:    0.00 PKD
ROOT
HETATM    1  N   UNL     1      -9.143   8.907  62.701  1.00  0.00    -0.492 NA 
HETATM    2  H1  UNL     1     -10.058   9.357  62.708  1.00  0.00     0.000 HD 
HETATM    3  H2  UNL     1      -9.198   7.895  62.822  1.00  0.00     0.000 HD 
HETATM    4  CA  UNL     1      -8.293   9.578  63.752  1.00  0.00    -0.176 C  
HETATM    5  OXT UNL     1      -5.952   9.265  64.392  1.00  0.00    -0.069 OA 
HETATM    6  C   UNL     1      -6.917   8.900  63.741  1.00  0.00    -0.088 C  
HETATM    7  O   UNL     1      -6.891   7.839  62.891  1.00  0.00    -0.076 OA 
ENDROOT
BRANCH   4   8
HETATM    8  C   UNL     1      -8.846   9.542  65.203  1.00  0.00    -0.186 C  
HETATM    9  O   UNL     1      -9.654   8.378  65.405  1.00  0.00    -0.391 OA 
HETATM   10  H   UNL     1      -9.993   8.356  66.293  1.00  0.00     0.000 HD 
BRANCH   8  11
HETATM   11  C   UNL     1      -9.683  10.773  65.520  1.00  0.00    -0.290 A  
HETATM   12  C   UNL     1     -10.402  10.870  66.728  1.00  0.00    -0.289 A  
HETATM   13  C   UNL     1     -11.208  11.974  66.972  1.00  0.00    -0.320 A  
HETATM   14  C   UNL     1     -11.301  12.995  66.032  1.00  0.00    -0.310 A  
HETATM   15  O   UNL     1     -11.941  12.093  68.119  1.00  0.00    -0.430 OA 
HETATM   16  H   UNL     1     -12.493  12.847  68.286  1.00  0.00     0.000 HD 
HETATM   17  O   UNL     1     -12.105  14.071  66.272  1.00  0.00    -0.412 OA 
HETATM   18  C   UNL     1     -10.588  12.932  64.844  1.00  0.00    -0.342 A  
HETATM   19  C   UNL     1      -9.782  11.818  64.586  1.00  0.00    -0.172 A  
HETATM   20  H   UNL     1     -12.168  14.768  65.631  1.00  0.00     0.000 HD 
ENDBRANCH   8  11
ENDBRANCH   4   8
TORSDOF 2
ENDMDL
MODEL      177
REMARK 921   NORMALIZED FREE ENERGY PREDICTED BY IDOCK:   -3.57 KCAL/MOL
REMARK 922        TOTAL FREE ENERGY PREDICTED BY IDOCK:   -4.26 KCAL/MOL
REMARK 923 INTER-LIGAND FREE ENERGY PREDICTED BY IDOCK:   -4.16 KCAL/MOL
REMARK 924 INTRA-LIGAND FREE ENERGY PREDICTED BY IDOCK:   -0.10 KCAL/MOL
REMARK 927      BINDING AFFINITY PREDICTED BY RF-SCORE:    0.00 PKD
ROOT
HETATM    1  N   UNL     1      -9.249   9.902  69.274  1.00  0.00    -0.187 NA 
HETATM    2  H1  UNL     1     -10.149  10.068  69.723  1.00  0.00     0.000 HD 
HETATM    3  H2  UNL     1      -8.919  10.706  68.740  1.00  0.00     0.000 HD 
HETATM    4  CA  UNL     1      -9.377   8.654  68.435  1.00  0.00    -0.138 C  
HETATM    5  OXT UNL     1      -7.742   7.423  67.094  1.00  0.00    -0.110 OA 
HETATM    6  C   UNL     1      -8.023   8.406  67.759  1.00  0.00    -0.111 C  
HETATM    7  O   UNL     1      -7.149   9.418  68.009  1.00  0.00    -0.079 OA 
ENDROOT
BRANCH   4   8
HETATM    8  C   UNL     1     -10.476   8.678  67.338  1.00  0.00    -0.281 C  
HETATM    9  O   UNL     1     -10.315   7.576  66.440  1.00  0.00    -0.490 OA 
HETATM   10  H   UNL     1     -10.987   7.590  65.769  1.00  0.00     0.000 HD 
BRANCH   8  11
HETATM   11  C   UNL     1     -10.443   9.968  66.531  1.00  0.00    -0.223 A  
HETATM   12  C   UNL     1      -9.781  10.030  65.289  1.00  0.00    -0.373 A  
HETATM   13  C   UNL     1      -9.710  11.233  64.598  1.00  0.00    -0.253 A  
HETATM   14  C   UNL     1     -10.302  12.377  65.120  1.00  0.00    -0.287 A  
HETATM   15  O   UNL     1      -9.055  11.340  63.403  1.00  0.00    -0.390 OA 
HETATM   16  H   UNL     1      -9.006  12.162  62.930  1.00  0.00     0.000 HD 
HETATM   17  O   UNL     1     -10.218  13.558  64.441  1.00  0.00    -0.576 OA 
HETATM   18  C   UNL     1     -10.976  12.337  66.331  1.00  0.00    -0.326 A  
HETATM   19  C   UNL     1     -11.044  11.133  67.040  1.00  0.00    -0.339 A  
HETATM   20  H   UNL     1     -10.622  14.340  64.798  1.00  0.00     0.000 HD 
ENDBRANCH   8  11
ENDBRANCH   4   8
TORSDOF 2
ENDMDL
MODEL      178
REMARK 921   NORMALIZED FREE ENERGY PREDICTED BY IDOCK:   -3.57 KCAL/MOL
REMARK 922        TOTAL FREE ENERGY PREDICTED BY IDOCK:   -4.25 KCAL/MOL
REMARK 923 INTER-LIGAND FREE ENERGY PREDICTED BY IDOCK:   -4.10 KCAL/MOL
REMARK 924 INTRA-LIGAND FREE ENERGY PREDICTED BY IDOCK:   -0.15 KCAL/MOL
REMARK 927      BINDING AFFINITY PREDICTED BY RF-SCORE:    0.00 PKD
ROOT
HETATM    1  N   UNL     1      -7.957  13.201  68.247  1.00  0.00    -0.142 NA 
HETATM    2  H1  UNL     1      -8.176  12.223  68.054  1.00  0.00     0.000 HD 
HETATM    3  H2  UNL     1      -8.391  13.541  69.106  1.00  0.00     0.000 HD 
HETATM    4  CA  UNL     1      -8.348  14.007  67.033  1.00  0.00    -0.104 C  
HETATM    5  OXT UNL     1      -8.111  16.387  66.518  1.00  0.00    -0.254 OA 
HETATM    6  C   UNL     1      -8.020  15.477  67.324  1.00  0.00    -0.203 C  
HETATM    7  O   UNL     1      -7.589  15.647  68.603  1.00  0.00    -0.130 OA 
ENDROOT
BRANCH   4   8
HETATM    8  C   UNL     1      -9.838  13.913  66.601  1.00  0.00    -0.284 C  
HETATM    9  O   UNL     1     -10.449  15.208  66.617  1.00  0.00    -0.275 OA 
HETATM   10  H   UNL     1     -11.359  15.151  66.353  1.00  0.00     0.000 HD 
BRANCH   8  11
HETATM   11  C   UNL     1     -10.634  12.991  67.512  1.00  0.00    -0.237 A  
HETATM   12  C   UNL     1     -11.198  13.467  68.713  1.00  0.00    -0.315 A  
HETATM   13  C   UNL     1     -11.869  12.594  69.560  1.00  0.00    -0.312 A  
HETATM   14  C   UNL     1     -12.000  11.252  69.223  1.00  0.00    -0.342 A  
HETATM   15  O   UNL     1     -12.407  13.012  70.746  1.00  0.00    -0.363 OA 
HETATM   16  H   UNL     1     -12.865  12.415  71.325  1.00  0.00     0.000 HD 
HETATM   17  O   UNL     1     -12.650  10.398  70.066  1.00  0.00    -0.518 OA 
HETATM   18  C   UNL     1     -11.471  10.764  68.038  1.00  0.00    -0.333 A  
HETATM   19  C   UNL     1     -10.784  11.632  67.183  1.00  0.00    -0.288 A  
HETATM   20  H   UNL     1     -12.739   9.481  69.836  1.00  0.00     0.000 HD 
ENDBRANCH   8  11
ENDBRANCH   4   8
TORSDOF 2
ENDMDL
MODEL      179
REMARK 921   NORMALIZED FREE ENERGY PREDICTED BY IDOCK:   -3.53 KCAL/MOL
REMARK 922        TOTAL FREE ENERGY PREDICTED BY IDOCK:   -4.21 KCAL/MOL
REMARK 923 INTER-LIGAND FREE ENERGY PREDICTED BY IDOCK:   -3.84 KCAL/MOL
REMARK 924 INTRA-LIGAND FREE ENERGY PREDICTED BY IDOCK:   -0.38 KCAL/MOL
REMARK 927      BINDING AFFINITY PREDICTED BY RF-SCORE:    0.00 PKD
ROOT
HETATM    1  N   UNL     1     -11.592  11.982  65.667  1.00  0.00    -0.338 NA 
HETATM    2  H1  UNL     1     -11.772  10.978  65.671  1.00  0.00     0.000 HD 
HETATM    3  H2  UNL     1     -11.111  12.295  64.823  1.00  0.00     0.000 HD 
HETATM    4  CA  UNL     1     -10.838  12.319  66.930  1.00  0.00    -0.251 C  
HETATM    5  OXT UNL     1     -10.071  14.455  67.844  1.00  0.00    -0.223 OA 
HETATM    6  C   UNL     1     -10.567  13.828  66.923  1.00  0.00    -0.276 C  
HETATM    7  O   UNL     1     -10.971  14.401  65.757  1.00  0.00    -0.300 OA 
ENDROOT
BRANCH   4   8
HETATM    8  C   UNL     1      -9.488  11.579  67.138  1.00  0.00    -0.177 C  
HETATM    9  O   UNL     1      -8.493  12.085  66.241  1.00  0.00    -0.378 OA 
HETATM   10  H   UNL     1      -7.668  11.633  66.368  1.00  0.00     0.000 HD 
BRANCH   8  11
HETATM   11  C   UNL     1      -9.623  10.080  66.914  1.00  0.00    -0.219 A  
HETATM   12  C   UNL     1      -9.018   9.455  65.807  1.00  0.00    -0.227 A  
HETATM   13  C   UNL     1      -9.205   8.096  65.587  1.00  0.00     0.025 A  
HETATM   14  C   UNL     1      -9.978   7.344  66.464  1.00  0.00    -0.124 A  
HETATM   15  O   UNL     1      -8.656   7.458  64.510  1.00  0.00    -0.365 OA 
HETATM   16  H   UNL     1      -8.784   6.529  64.359  1.00  0.00     0.000 HD 
HETATM   17  O   UNL     1     -10.167   6.012  66.236  1.00  0.00    -0.379 OA 
HETATM   18  C   UNL     1     -10.567   7.933  67.573  1.00  0.00    -0.312 A  
HETATM   19  C   UNL     1     -10.394   9.302  67.796  1.00  0.00    -0.292 A  
HETATM   20  H   UNL     1     -10.695   5.498  66.835  1.00  0.00     0.000 HD 
ENDBRANCH   8  11
ENDBRANCH   4   8
TORSDOF 2
ENDMDL
MODEL      180
REMARK 921   NORMALIZED FREE ENERGY PREDICTED BY IDOCK:   -3.53 KCAL/MOL
REMARK 922        TOTAL FREE ENERGY PREDICTED BY IDOCK:   -4.21 KCAL/MOL
REMARK 923 INTER-LIGAND FREE ENERGY PREDICTED BY IDOCK:   -4.18 KCAL/MOL
REMARK 924 INTRA-LIGAND FREE ENERGY PREDICTED BY IDOCK:   -0.03 KCAL/MOL
REMARK 927      BINDING AFFINITY PREDICTED BY RF-SCORE:    0.00 PKD
ROOT
HETATM    1  N   UNL     1      -8.290   7.120  65.300  1.00  0.00    -0.228 NA 
HETATM    2  H1  UNL     1      -8.692   7.566  64.475  1.00  0.00     0.000 HD 
HETATM    3  H2  UNL     1      -8.749   6.240  65.538  1.00  0.00     0.000 HD 
HETATM    4  CA  UNL     1      -8.324   8.122  66.427  1.00  0.00    -0.115 C  
HETATM    5  OXT UNL     1      -7.496   8.010  68.727  1.00  0.00    -0.087 OA 
HETATM    6  C   UNL     1      -7.720   7.450  67.666  1.00  0.00    -0.112 C  
HETATM    7  O   UNL     1      -7.439   6.139  67.435  1.00  0.00    -0.079 OA 
ENDROOT
BRANCH   4   8
HETATM    8  C   UNL     1      -9.724   8.680  66.804  1.00  0.00    -0.233 C  
HETATM    9  O   UNL     1     -10.725   7.667  66.656  1.00  0.00    -0.470 OA 
HETATM   10  H   UNL     1     -11.581   8.008  66.887  1.00  0.00     0.000 HD 
BRANCH   8  11
HETATM   11  C   UNL     1     -10.110   9.871  65.941  1.00  0.00    -0.316 A  
HETATM   12  C   UNL     1     -10.966  10.877  66.433  1.00  0.00    -0.156 A  
HETATM   13  C   UNL     1     -11.355  11.924  65.608  1.00  0.00    -0.284 A  
HETATM   14  C   UNL     1     -10.894  11.994  64.299  1.00  0.00    -0.339 A  
HETATM   15  O   UNL     1     -12.205  12.904  66.040  1.00  0.00    -0.452 OA 
HETATM   16  H   UNL     1     -12.471  13.620  65.476  1.00  0.00     0.000 HD 
HETATM   17  O   UNL     1     -11.290  13.019  63.491  1.00  0.00    -0.586 OA 
HETATM   18  C   UNL     1     -10.035  11.028  63.797  1.00  0.00    -0.404 A  
HETATM   19  C   UNL     1      -9.646   9.963  64.617  1.00  0.00    -0.320 A  
HETATM   20  H   UNL     1     -10.975  13.067  62.596  1.00  0.00     0.000 HD 
ENDBRANCH   8  11
ENDBRANCH   4   8
TORSDOF 2
ENDMDL
MODEL      181
REMARK 921   NORMALIZED FREE ENERGY PREDICTED BY IDOCK:   -3.53 KCAL/MOL
REMARK 922        TOTAL FREE ENERGY PREDICTED BY IDOCK:   -4.21 KCAL/MOL
REMARK 923 INTER-LIGAND FREE ENERGY PREDICTED BY IDOCK:   -3.95 KCAL/MOL
REMARK 924 INTRA-LIGAND FREE ENERGY PREDICTED BY IDOCK:   -0.26 KCAL/MOL
REMARK 927      BINDING AFFINITY PREDICTED BY RF-SCORE:    0.00 PKD
ROOT
HETATM    1  N   UNL     1      -9.494  11.338  65.883  1.00  0.00    -0.215 NA 
HETATM    2  H1  UNL     1      -9.388  11.678  66.839  1.00  0.00     0.000 HD 
HETATM    3  H2  UNL     1      -8.722  11.615  65.276  1.00  0.00     0.000 HD 
HETATM    4  CA  UNL     1     -10.835  11.807  65.375  1.00  0.00    -0.295 C  
HETATM    5  OXT UNL     1     -12.006  11.403  63.264  1.00  0.00    -0.200 OA 
HETATM    6  C   UNL     1     -10.994  11.296  63.938  1.00  0.00    -0.305 C  
HETATM    7  O   UNL     1      -9.863  10.681  63.500  1.00  0.00    -0.307 OA 
ENDROOT
BRANCH   4   8
HETATM    8  C   UNL     1     -11.068  13.343  65.379  1.00  0.00    -0.287 C  
HETATM    9  O   UNL     1     -10.819  13.893  64.081  1.00  0.00    -0.581 OA 
HETATM   10  H   UNL     1     -10.962  14.832  64.083  1.00  0.00     0.000 HD 
BRANCH   8  11
HETATM   11  C   UNL     1     -10.171  14.049  66.384  1.00  0.00    -0.293 A  
HETATM   12  C   UNL     1      -9.162  14.936  65.958  1.00  0.00    -0.210 A  
HETATM   13  C   UNL     1      -8.314  15.523  66.888  1.00  0.00    -0.255 A  
HETATM   14  C   UNL     1      -8.463  15.250  68.243  1.00  0.00    -0.154 A  
HETATM   15  O   UNL     1      -7.306  16.367  66.513  1.00  0.00    -0.229 OA 
HETATM   16  H   UNL     1      -6.726  16.768  67.149  1.00  0.00     0.000 HD 
HETATM   17  O   UNL     1      -7.619  15.821  69.150  1.00  0.00    -0.182 OA 
HETATM   18  C   UNL     1      -9.462  14.397  68.689  1.00  0.00    -0.193 A  
HETATM   19  C   UNL     1     -10.314  13.793  67.759  1.00  0.00    -0.241 A  
HETATM   20  H   UNL     1      -7.721  15.635  70.076  1.00  0.00     0.000 HD 
ENDBRANCH   8  11
ENDBRANCH   4   8
TORSDOF 2
ENDMDL
MODEL      182
REMARK 921   NORMALIZED FREE ENERGY PREDICTED BY IDOCK:   -3.52 KCAL/MOL
REMARK 922        TOTAL FREE ENERGY PREDICTED BY IDOCK:   -4.20 KCAL/MOL
REMARK 923 INTER-LIGAND FREE ENERGY PREDICTED BY IDOCK:   -4.03 KCAL/MOL
REMARK 924 INTRA-LIGAND FREE ENERGY PREDICTED BY IDOCK:   -0.17 KCAL/MOL
REMARK 927      BINDING AFFINITY PREDICTED BY RF-SCORE:    0.00 PKD
ROOT
HETATM    1  N   UNL     1      -9.029   6.669  65.470  1.00  0.00    -0.364 NA 
HETATM    2  H1  UNL     1      -8.834   7.655  65.642  1.00  0.00     0.000 HD 
HETATM    3  H2  UNL     1      -9.805   6.525  64.824  1.00  0.00     0.000 HD 
HETATM    4  CA  UNL     1      -9.247   6.004  66.806  1.00  0.00    -0.136 C  
HETATM    5  OXT UNL     1      -9.661   3.669  67.411  1.00  0.00    -0.208 OA 
HETATM    6  C   UNL     1      -9.540   4.521  66.547  1.00  0.00    -0.190 C  
HETATM    7  O   UNL     1      -9.632   4.257  65.215  1.00  0.00    -0.163 OA 
ENDROOT
BRANCH   4   8
HETATM    8  C   UNL     1     -10.393   6.585  67.680  1.00  0.00    -0.194 C  
HETATM    9  O   UNL     1     -11.633   6.561  66.964  1.00  0.00    -0.729 OA 
HETATM   10  H   UNL     1     -12.334   6.916  67.498  1.00  0.00     0.000 HD 
BRANCH   8  11
HETATM   11  C   UNL     1     -10.109   8.017  68.106  1.00  0.00    -0.234 A  
HETATM   12  C   UNL     1      -9.475   8.296  69.333  1.00  0.00    -0.159 A  
HETATM   13  C   UNL     1      -9.280   9.612  69.732  1.00  0.00    -0.219 A  
HETATM   14  C   UNL     1      -9.697  10.660  68.919  1.00  0.00    -0.202 A  
HETATM   15  O   UNL     1      -8.692   9.924  70.926  1.00  0.00    -0.331 OA 
HETATM   16  H   UNL     1      -8.560  10.824  71.199  1.00  0.00     0.000 HD 
HETATM   17  O   UNL     1      -9.514  11.951  69.323  1.00  0.00    -0.301 OA 
HETATM   18  C   UNL     1     -10.306  10.411  67.698  1.00  0.00    -0.260 A  
HETATM   19  C   UNL     1     -10.516   9.089  67.293  1.00  0.00    -0.343 A  
HETATM   20  H   UNL     1      -9.799  12.667  68.768  1.00  0.00     0.000 HD 
ENDBRANCH   8  11
ENDBRANCH   4   8
TORSDOF 2
ENDMDL
MODEL      183
REMARK 921   NORMALIZED FREE ENERGY PREDICTED BY IDOCK:   -3.51 KCAL/MOL
REMARK 922        TOTAL FREE ENERGY PREDICTED BY IDOCK:   -4.19 KCAL/MOL
REMARK 923 INTER-LIGAND FREE ENERGY PREDICTED BY IDOCK:   -4.16 KCAL/MOL
REMARK 924 INTRA-LIGAND FREE ENERGY PREDICTED BY IDOCK:   -0.04 KCAL/MOL
REMARK 927      BINDING AFFINITY PREDICTED BY RF-SCORE:    0.00 PKD
ROOT
HETATM    1  N   UNL     1      -7.364  11.963  66.360  1.00  0.00    -0.361 NA 
HETATM    2  H1  UNL     1      -7.509  12.442  65.471  1.00  0.00     0.000 HD 
HETATM    3  H2  UNL     1      -8.151  11.369  66.623  1.00  0.00     0.000 HD 
HETATM    4  CA  UNL     1      -7.047  13.010  67.400  1.00  0.00    -0.117 C  
HETATM    5  OXT UNL     1      -6.452  12.822  69.766  1.00  0.00    -0.098 OA 
HETATM    6  C   UNL     1      -6.830  12.289  68.736  1.00  0.00    -0.092 C  
HETATM    7  O   UNL     1      -7.091  10.957  68.631  1.00  0.00    -0.070 OA 
ENDROOT
BRANCH   4   8
HETATM    8  C   UNL     1      -8.120  14.114  67.607  1.00  0.00    -0.180 C  
HETATM    9  O   UNL     1      -8.312  14.373  69.002  1.00  0.00    -0.289 OA 
HETATM   10  H   UNL     1      -8.968  15.049  69.129  1.00  0.00     0.000 HD 
BRANCH   8  11
HETATM   11  C   UNL     1      -9.459  13.724  66.999  1.00  0.00    -0.255 A  
HETATM   12  C   UNL     1     -10.241  12.697  67.564  1.00  0.00    -0.215 A  
HETATM   13  C   UNL     1     -11.431  12.315  66.958  1.00  0.00    -0.354 A  
HETATM   14  C   UNL     1     -11.863  12.950  65.799  1.00  0.00    -0.419 A  
HETATM   15  O   UNL     1     -12.205  11.306  67.461  1.00  0.00    -0.330 OA 
HETATM   16  H   UNL     1     -13.018  11.045  67.046  1.00  0.00     0.000 HD 
HETATM   17  O   UNL     1     -13.026  12.561  65.202  1.00  0.00    -0.700 OA 
HETATM   18  C   UNL     1     -11.121  13.976  65.235  1.00  0.00    -0.325 A  
HETATM   19  C   UNL     1      -9.916  14.361  65.832  1.00  0.00    -0.350 A  
HETATM   20  H   UNL     1     -13.322  12.995  64.410  1.00  0.00     0.000 HD 
ENDBRANCH   8  11
ENDBRANCH   4   8
TORSDOF 2
ENDMDL
MODEL      184
REMARK 921   NORMALIZED FREE ENERGY PREDICTED BY IDOCK:   -3.51 KCAL/MOL
REMARK 922        TOTAL FREE ENERGY PREDICTED BY IDOCK:   -4.19 KCAL/MOL
REMARK 923 INTER-LIGAND FREE ENERGY PREDICTED BY IDOCK:   -3.94 KCAL/MOL
REMARK 924 INTRA-LIGAND FREE ENERGY PREDICTED BY IDOCK:   -0.25 KCAL/MOL
REMARK 927      BINDING AFFINITY PREDICTED BY RF-SCORE:    0.00 PKD
ROOT
HETATM    1  N   UNL     1      -7.461  11.217  67.214  1.00  0.00    -0.119 NA 
HETATM    2  H1  UNL     1      -7.202  12.055  66.693  1.00  0.00     0.000 HD 
HETATM    3  H2  UNL     1      -6.846  10.426  67.023  1.00  0.00     0.000 HD 
HETATM    4  CA  UNL     1      -8.909  10.920  66.915  1.00  0.00    -0.142 C  
HETATM    5  OXT UNL     1     -10.426   9.200  67.770  1.00  0.00    -0.232 OA 
HETATM    6  C   UNL     1      -9.298   9.660  67.698  1.00  0.00    -0.126 C  
HETATM    7  O   UNL     1      -8.224   9.117  68.333  1.00  0.00    -0.113 OA 
ENDROOT
BRANCH   4   8
HETATM    8  C   UNL     1      -9.266  10.698  65.419  1.00  0.00    -0.193 C  
HETATM    9  O   UNL     1      -8.080  10.651  64.620  1.00  0.00    -0.319 OA 
HETATM   10  H   UNL     1      -8.298  10.515  63.706  1.00  0.00     0.000 HD 
BRANCH   8  11
HETATM   11  C   UNL     1     -10.168  11.799  64.883  1.00  0.00    -0.315 A  
HETATM   12  C   UNL     1      -9.728  13.137  64.831  1.00  0.00     0.091 A  
HETATM   13  C   UNL     1     -10.588  14.136  64.395  1.00  0.00    -0.095 A  
HETATM   14  C   UNL     1     -11.882  13.822  63.996  1.00  0.00    -0.370 A  
HETATM   15  O   UNL     1     -10.207  15.449  64.355  1.00  0.00    -0.394 OA 
HETATM   16  H   UNL     1     -10.795  16.132  64.057  1.00  0.00     0.000 HD 
HETATM   17  O   UNL     1     -12.725  14.811  63.580  1.00  0.00    -0.851 OA 
HETATM   18  C   UNL     1     -12.332  12.511  64.018  1.00  0.00    -0.557 A  
HETATM   19  C   UNL     1     -11.477  11.499  64.466  1.00  0.00    -0.204 A  
HETATM   20  H   UNL     1     -13.610  14.597  63.307  1.00  0.00     0.000 HD 
ENDBRANCH   8  11
ENDBRANCH   4   8
TORSDOF 2
ENDMDL
MODEL      185
REMARK 921   NORMALIZED FREE ENERGY PREDICTED BY IDOCK:   -3.50 KCAL/MOL
REMARK 922        TOTAL FREE ENERGY PREDICTED BY IDOCK:   -4.18 KCAL/MOL
REMARK 923 INTER-LIGAND FREE ENERGY PREDICTED BY IDOCK:   -4.00 KCAL/MOL
REMARK 924 INTRA-LIGAND FREE ENERGY PREDICTED BY IDOCK:   -0.17 KCAL/MOL
REMARK 927      BINDING AFFINITY PREDICTED BY RF-SCORE:    0.00 PKD
ROOT
HETATM    1  N   UNL     1     -10.324   6.488  72.479  1.00  0.00    -0.190 NA 
HETATM    2  H1  UNL     1     -11.124   6.866  72.986  1.00  0.00     0.000 HD 
HETATM    3  H2  UNL     1      -9.702   7.213  72.122  1.00  0.00     0.000 HD 
HETATM    4  CA  UNL     1     -10.854   5.584  71.393  1.00  0.00    -0.185 C  
HETATM    5  OXT UNL     1      -9.714   4.165  69.758  1.00  0.00    -0.204 OA 
HETATM    6  C   UNL     1      -9.651   5.015  70.631  1.00  0.00    -0.184 C  
HETATM    7  O   UNL     1      -8.483   5.562  71.064  1.00  0.00    -0.121 OA 
ENDROOT
BRANCH   4   8
HETATM    8  C   UNL     1     -11.819   6.240  70.368  1.00  0.00    -0.107 C  
HETATM    9  O   UNL     1     -11.213   6.298  69.072  1.00  0.00    -0.395 OA 
HETATM   10  H   UNL     1     -11.803   6.699  68.445  1.00  0.00     0.000 HD 
BRANCH   8  11
HETATM   11  C   UNL     1     -12.210   7.651  70.782  1.00  0.00    -0.109 A  
HETATM   12  C   UNL     1     -11.348   8.741  70.548  1.00  0.00    -0.255 A  
HETATM   13  C   UNL     1     -11.697  10.011  70.988  1.00  0.00    -0.392 A  
HETATM   14  C   UNL     1     -12.902  10.218  71.650  1.00  0.00    -0.463 A  
HETATM   15  O   UNL     1     -10.876  11.089  70.804  1.00  0.00    -0.046 OA 
HETATM   16  H   UNL     1     -11.114  11.957  71.105  1.00  0.00     0.000 HD 
HETATM   17  O   UNL     1     -13.233  11.466  72.091  1.00  0.00    -0.576 OA 
HETATM   18  C   UNL     1     -13.776   9.165  71.874  1.00  0.00    -0.485 A  
HETATM   19  C   UNL     1     -13.429   7.880  71.444  1.00  0.00    -0.290 A  
HETATM   20  H   UNL     1     -14.056  11.607  72.543  1.00  0.00     0.000 HD 
ENDBRANCH   8  11
ENDBRANCH   4   8
TORSDOF 2
ENDMDL
MODEL      186
REMARK 921   NORMALIZED FREE ENERGY PREDICTED BY IDOCK:   -3.48 KCAL/MOL
REMARK 922        TOTAL FREE ENERGY PREDICTED BY IDOCK:   -4.16 KCAL/MOL
REMARK 923 INTER-LIGAND FREE ENERGY PREDICTED BY IDOCK:   -3.89 KCAL/MOL
REMARK 924 INTRA-LIGAND FREE ENERGY PREDICTED BY IDOCK:   -0.26 KCAL/MOL
REMARK 927      BINDING AFFINITY PREDICTED BY RF-SCORE:    0.00 PKD
ROOT
HETATM    1  N   UNL     1     -12.836  13.138  70.376  1.00  0.00     0.023 NA 
HETATM    2  H1  UNL     1     -12.586  12.276  69.892  1.00  0.00     0.000 HD 
HETATM    3  H2  UNL     1     -13.773  13.466  70.144  1.00  0.00     0.000 HD 
HETATM    4  CA  UNL     1     -11.766  14.159  70.077  1.00  0.00    -0.291 C  
HETATM    5  OXT UNL     1     -11.442  16.452  70.867  1.00  0.00    -0.380 OA 
HETATM    6  C   UNL     1     -12.142  15.455  70.806  1.00  0.00    -0.366 C  
HETATM    7  O   UNL     1     -13.359  15.355  71.405  1.00  0.00    -0.457 OA 
ENDROOT
BRANCH   4   8
HETATM    8  C   UNL     1     -11.536  14.488  68.577  1.00  0.00    -0.313 C  
HETATM    9  O   UNL     1     -12.513  13.831  67.762  1.00  0.00    -0.387 OA 
HETATM   10  H   UNL     1     -12.373  14.032  66.844  1.00  0.00     0.000 HD 
BRANCH   8  11
HETATM   11  C   UNL     1     -10.152  14.065  68.109  1.00  0.00    -0.244 A  
HETATM   12  C   UNL     1      -9.896  12.739  67.708  1.00  0.00    -0.220 A  
HETATM   13  C   UNL     1      -8.611  12.358  67.343  1.00  0.00    -0.181 A  
HETATM   14  C   UNL     1      -7.574  13.284  67.359  1.00  0.00    -0.129 A  
HETATM   15  O   UNL     1      -8.317  11.075  66.973  1.00  0.00    -0.129 OA 
HETATM   16  H   UNL     1      -7.438  10.815  66.724  1.00  0.00     0.000 HD 
HETATM   17  O   UNL     1      -6.312  12.900  67.011  1.00  0.00    -0.477 OA 
HETATM   18  C   UNL     1      -7.805  14.600  67.731  1.00  0.00    -0.165 A  
HETATM   19  C   UNL     1      -9.093  14.990  68.111  1.00  0.00    -0.178 A  
HETATM   20  H   UNL     1      -5.603  13.533  67.023  1.00  0.00     0.000 HD 
ENDBRANCH   8  11
ENDBRANCH   4   8
TORSDOF 2
ENDMDL
MODEL      187
REMARK 921   NORMALIZED FREE ENERGY PREDICTED BY IDOCK:   -3.48 KCAL/MOL
REMARK 922        TOTAL FREE ENERGY PREDICTED BY IDOCK:   -4.15 KCAL/MOL
REMARK 923 INTER-LIGAND FREE ENERGY PREDICTED BY IDOCK:   -3.88 KCAL/MOL
REMARK 924 INTRA-LIGAND FREE ENERGY PREDICTED BY IDOCK:   -0.27 KCAL/MOL
REMARK 927      BINDING AFFINITY PREDICTED BY RF-SCORE:    0.00 PKD
ROOT
HETATM    1  N   UNL     1      -9.971   9.597  65.153  1.00  0.00    -0.402 NA 
HETATM    2  H1  UNL     1     -10.747  10.158  65.505  1.00  0.00     0.000 HD 
HETATM    3  H2  UNL     1      -9.738   8.815  65.764  1.00  0.00     0.000 HD 
HETATM    4  CA  UNL     1      -8.805  10.525  64.917  1.00  0.00    -0.192 C  
HETATM    5  OXT UNL     1      -6.574  10.129  63.993  1.00  0.00    -0.129 OA 
HETATM    6  C   UNL     1      -7.638   9.682  64.388  1.00  0.00    -0.128 C  
HETATM    7  O   UNL     1      -7.941   8.355  64.391  1.00  0.00    -0.134 OA 
ENDROOT
BRANCH   4   8
HETATM    8  C   UNL     1      -8.310  11.327  66.152  1.00  0.00    -0.111 C  
HETATM    9  O   UNL     1      -7.873  10.440  67.187  1.00  0.00    -0.108 OA 
HETATM   10  H   UNL     1      -7.570  10.930  67.942  1.00  0.00     0.000 HD 
BRANCH   8  11
HETATM   11  C   UNL     1      -9.399  12.229  66.715  1.00  0.00    -0.218 A  
HETATM   12  C   UNL     1      -9.711  12.218  68.089  1.00  0.00    -0.213 A  
HETATM   13  C   UNL     1     -10.750  13.003  68.573  1.00  0.00    -0.255 A  
HETATM   14  C   UNL     1     -11.478  13.812  67.708  1.00  0.00    -0.322 A  
HETATM   15  O   UNL     1     -11.100  13.001  69.894  1.00  0.00    -0.473 OA 
HETATM   16  H   UNL     1     -11.810  13.537  70.225  1.00  0.00     0.000 HD 
HETATM   17  O   UNL     1     -12.505  14.572  68.189  1.00  0.00    -0.589 OA 
HETATM   18  C   UNL     1     -11.177  13.855  66.355  1.00  0.00    -0.319 A  
HETATM   19  C   UNL     1     -10.140  13.060  65.857  1.00  0.00    -0.291 A  
HETATM   20  H   UNL     1     -13.003  15.125  67.598  1.00  0.00     0.000 HD 
ENDBRANCH   8  11
ENDBRANCH   4   8
TORSDOF 2
ENDMDL
MODEL      188
REMARK 921   NORMALIZED FREE ENERGY PREDICTED BY IDOCK:   -3.47 KCAL/MOL
REMARK 922        TOTAL FREE ENERGY PREDICTED BY IDOCK:   -4.14 KCAL/MOL
REMARK 923 INTER-LIGAND FREE ENERGY PREDICTED BY IDOCK:   -3.90 KCAL/MOL
REMARK 924 INTRA-LIGAND FREE ENERGY PREDICTED BY IDOCK:   -0.24 KCAL/MOL
REMARK 927      BINDING AFFINITY PREDICTED BY RF-SCORE:    0.00 PKD
ROOT
HETATM    1  N   UNL     1     -10.354   5.234  71.032  1.00  0.00    -0.233 NA 
HETATM    2  H1  UNL     1     -10.098   5.178  70.046  1.00  0.00     0.000 HD 
HETATM    3  H2  UNL     1     -11.237   4.768  71.239  1.00  0.00     0.000 HD 
HETATM    4  CA  UNL     1     -10.352   6.690  71.425  1.00  0.00    -0.200 C  
HETATM    5  OXT UNL     1     -10.729   7.793  73.577  1.00  0.00    -0.292 OA 
HETATM    6  C   UNL     1     -10.737   6.773  72.907  1.00  0.00    -0.261 C  
HETATM    7  O   UNL     1     -11.074   5.552  73.404  1.00  0.00    -0.282 OA 
ENDROOT
BRANCH   4   8
HETATM    8  C   UNL     1     -11.303   7.617  70.619  1.00  0.00    -0.272 C  
HETATM    9  O   UNL     1     -12.325   6.849  69.973  1.00  0.00    -0.619 OA 
HETATM   10  H   UNL     1     -12.907   7.416  69.481  1.00  0.00     0.000 HD 
BRANCH   8  11
HETATM   11  C   UNL     1     -10.555   8.413  69.560  1.00  0.00    -0.217 A  
HETATM   12  C   UNL     1     -10.507   7.974  68.222  1.00  0.00    -0.210 A  
HETATM   13  C   UNL     1      -9.767   8.683  67.284  1.00  0.00    -0.185 A  
HETATM   14  C   UNL     1      -9.082   9.834  67.655  1.00  0.00    -0.131 A  
HETATM   15  O   UNL     1      -9.674   8.275  65.982  1.00  0.00    -0.431 OA 
HETATM   16  H   UNL     1      -9.168   8.759  65.341  1.00  0.00     0.000 HD 
HETATM   17  O   UNL     1      -8.348  10.518  66.731  1.00  0.00    -0.124 OA 
HETATM   18  C   UNL     1      -9.131  10.297  68.962  1.00  0.00    -0.187 A  
HETATM   19  C   UNL     1      -9.864   9.584  69.916  1.00  0.00    -0.254 A  
HETATM   20  H   UNL     1      -7.879  11.305  66.985  1.00  0.00     0.000 HD 
ENDBRANCH   8  11
ENDBRANCH   4   8
TORSDOF 2
ENDMDL
MODEL      189
REMARK 921   NORMALIZED FREE ENERGY PREDICTED BY IDOCK:   -3.46 KCAL/MOL
REMARK 922        TOTAL FREE ENERGY PREDICTED BY IDOCK:   -4.14 KCAL/MOL
REMARK 923 INTER-LIGAND FREE ENERGY PREDICTED BY IDOCK:   -3.89 KCAL/MOL
REMARK 924 INTRA-LIGAND FREE ENERGY PREDICTED BY IDOCK:   -0.25 KCAL/MOL
REMARK 927      BINDING AFFINITY PREDICTED BY RF-SCORE:    0.00 PKD
ROOT
HETATM    1  N   UNL     1      -9.135   8.806  65.156  1.00  0.00    -0.419 NA 
HETATM    2  H1  UNL     1      -8.864   8.220  65.946  1.00  0.00     0.000 HD 
HETATM    3  H2  UNL     1      -8.336   9.128  64.609  1.00  0.00     0.000 HD 
HETATM    4  CA  UNL     1      -9.974   9.939  65.691  1.00  0.00    -0.283 C  
HETATM    5  OXT UNL     1     -11.150  11.765  64.562  1.00  0.00    -0.309 OA 
HETATM    6  C   UNL     1     -10.381  10.820  64.503  1.00  0.00    -0.331 C  
HETATM    7  O   UNL     1      -9.788  10.405  63.350  1.00  0.00    -0.307 OA 
ENDROOT
BRANCH   4   8
HETATM    8  C   UNL     1      -9.302  10.841  66.762  1.00  0.00    -0.161 C  
HETATM    9  O   UNL     1      -7.878  10.808  66.626  1.00  0.00    -0.128 OA 
HETATM   10  H   UNL     1      -7.466  11.360  67.281  1.00  0.00     0.000 HD 
BRANCH   8  11
HETATM   11  C   UNL     1      -9.662  10.406  68.175  1.00  0.00    -0.165 A  
HETATM   12  C   UNL     1      -8.715   9.772  69.003  1.00  0.00    -0.148 A  
HETATM   13  C   UNL     1      -9.081   9.327  70.267  1.00  0.00    -0.237 A  
HETATM   14  C   UNL     1     -10.380   9.516  70.727  1.00  0.00    -0.306 A  
HETATM   15  O   UNL     1      -8.198   8.685  71.089  1.00  0.00    -0.124 OA 
HETATM   16  H   UNL     1      -8.449   8.381  71.953  1.00  0.00     0.000 HD 
HETATM   17  O   UNL     1     -10.736   9.067  71.965  1.00  0.00    -0.349 OA 
HETATM   18  C   UNL     1     -11.325  10.156  69.939  1.00  0.00    -0.335 A  
HETATM   19  C   UNL     1     -10.968  10.597  68.660  1.00  0.00    -0.291 A  
HETATM   20  H   UNL     1     -11.623   9.195  72.279  1.00  0.00     0.000 HD 
ENDBRANCH   8  11
ENDBRANCH   4   8
TORSDOF 2
ENDMDL
MODEL      190
REMARK 921   NORMALIZED FREE ENERGY PREDICTED BY IDOCK:   -3.46 KCAL/MOL
REMARK 922        TOTAL FREE ENERGY PREDICTED BY IDOCK:   -4.13 KCAL/MOL
REMARK 923 INTER-LIGAND FREE ENERGY PREDICTED BY IDOCK:   -4.02 KCAL/MOL
REMARK 924 INTRA-LIGAND FREE ENERGY PREDICTED BY IDOCK:   -0.11 KCAL/MOL
REMARK 927      BINDING AFFINITY PREDICTED BY RF-SCORE:    0.00 PKD
ROOT
HETATM    1  N   UNL     1     -10.327  17.344  68.587  1.00  0.00    -0.353 NA 
HETATM    2  H1  UNL     1      -9.981  18.064  69.222  1.00  0.00     0.000 HD 
HETATM    3  H2  UNL     1     -10.040  16.404  68.862  1.00  0.00     0.000 HD 
HETATM    4  CA  UNL     1      -9.883  17.708  67.192  1.00  0.00    -0.306 C  
HETATM    5  OXT UNL     1     -10.315  16.661  65.023  1.00  0.00    -0.623 OA 
HETATM    6  C   UNL     1     -10.402  16.625  66.240  1.00  0.00    -0.317 C  
HETATM    7  O   UNL     1     -11.001  15.610  66.919  1.00  0.00    -0.315 OA 
ENDROOT
BRANCH   4   8
HETATM    8  C   UNL     1      -8.351  17.855  66.980  1.00  0.00    -0.234 C  
HETATM    9  O   UNL     1      -8.021  17.729  65.592  1.00  0.00    -0.532 OA 
HETATM   10  H   UNL     1      -7.084  17.819  65.462  1.00  0.00     0.000 HD 
BRANCH   8  11
HETATM   11  C   UNL     1      -7.568  16.810  67.760  1.00  0.00    -0.180 A  
HETATM   12  C   UNL     1      -7.335  15.528  67.224  1.00  0.00    -0.249 A  
HETATM   13  C   UNL     1      -6.671  14.568  67.977  1.00  0.00    -0.145 A  
HETATM   14  C   UNL     1      -6.222  14.870  69.258  1.00  0.00    -0.110 A  
HETATM   15  O   UNL     1      -6.449  13.306  67.503  1.00  0.00    -0.164 OA 
HETATM   16  H   UNL     1      -5.996  12.649  68.018  1.00  0.00     0.000 HD 
HETATM   17  O   UNL     1      -5.582  13.919  69.997  1.00  0.00    -0.100 OA 
HETATM   18  C   UNL     1      -6.421  16.131  69.800  1.00  0.00    -0.159 A  
HETATM   19  C   UNL     1      -7.098  17.100  69.053  1.00  0.00    -0.232 A  
HETATM   20  H   UNL     1      -5.275  14.125  70.872  1.00  0.00     0.000 HD 
ENDBRANCH   8  11
ENDBRANCH   4   8
TORSDOF 2
ENDMDL
MODEL      191
REMARK 921   NORMALIZED FREE ENERGY PREDICTED BY IDOCK:   -3.46 KCAL/MOL
REMARK 922        TOTAL FREE ENERGY PREDICTED BY IDOCK:   -4.13 KCAL/MOL
REMARK 923 INTER-LIGAND FREE ENERGY PREDICTED BY IDOCK:   -4.25 KCAL/MOL
REMARK 924 INTRA-LIGAND FREE ENERGY PREDICTED BY IDOCK:    0.12 KCAL/MOL
REMARK 927      BINDING AFFINITY PREDICTED BY RF-SCORE:    0.00 PKD
ROOT
HETATM    1  N   UNL     1      -7.965  10.986  68.114  1.00  0.00    -0.113 NA 
HETATM    2  H1  UNL     1      -7.812  11.578  68.931  1.00  0.00     0.000 HD 
HETATM    3  H2  UNL     1      -8.277  11.511  67.297  1.00  0.00     0.000 HD 
HETATM    4  CA  UNL     1      -8.926   9.893  68.512  1.00  0.00    -0.122 C  
HETATM    5  OXT UNL     1      -9.795   7.966  67.280  1.00  0.00    -0.163 OA 
HETATM    6  C   UNL     1      -9.155   9.004  67.283  1.00  0.00    -0.133 C  
HETATM    7  O   UNL     1      -8.533   9.507  66.182  1.00  0.00    -0.117 OA 
ENDROOT
BRANCH   4   8
HETATM    8  C   UNL     1     -10.309  10.360  69.044  1.00  0.00    -0.214 C  
HETATM    9  O   UNL     1     -11.224   9.261  69.100  1.00  0.00    -0.440 OA 
HETATM   10  H   UNL     1     -12.069   9.546  69.426  1.00  0.00     0.000 HD 
BRANCH   8  11
HETATM   11  C   UNL     1     -10.914  11.448  68.169  1.00  0.00    -0.284 A  
HETATM   12  C   UNL     1     -11.188  12.729  68.689  1.00  0.00    -0.322 A  
HETATM   13  C   UNL     1     -11.797  13.689  67.891  1.00  0.00    -0.366 A  
HETATM   14  C   UNL     1     -12.128  13.396  66.573  1.00  0.00    -0.388 A  
HETATM   15  O   UNL     1     -12.103  14.933  68.366  1.00  0.00    -0.539 OA 
HETATM   16  H   UNL     1     -12.520  15.589  67.821  1.00  0.00     0.000 HD 
HETATM   17  O   UNL     1     -12.737  14.340  65.798  1.00  0.00    -0.464 OA 
HETATM   18  C   UNL     1     -11.851  12.150  66.032  1.00  0.00    -0.328 A  
HETATM   19  C   UNL     1     -11.247  11.173  66.831  1.00  0.00    -0.258 A  
HETATM   20  H   UNL     1     -12.964  14.141  64.897  1.00  0.00     0.000 HD 
ENDBRANCH   8  11
ENDBRANCH   4   8
TORSDOF 2
ENDMDL
MODEL      192
REMARK 921   NORMALIZED FREE ENERGY PREDICTED BY IDOCK:   -3.45 KCAL/MOL
REMARK 922        TOTAL FREE ENERGY PREDICTED BY IDOCK:   -4.12 KCAL/MOL
REMARK 923 INTER-LIGAND FREE ENERGY PREDICTED BY IDOCK:   -3.87 KCAL/MOL
REMARK 924 INTRA-LIGAND FREE ENERGY PREDICTED BY IDOCK:   -0.25 KCAL/MOL
REMARK 927      BINDING AFFINITY PREDICTED BY RF-SCORE:    0.00 PKD
ROOT
HETATM    1  N   UNL     1      -7.745  12.112  66.915  1.00  0.00    -0.340 NA 
HETATM    2  H1  UNL     1      -8.334  12.235  66.091  1.00  0.00     0.000 HD 
HETATM    3  H2  UNL     1      -8.027  11.318  67.489  1.00  0.00     0.000 HD 
HETATM    4  CA  UNL     1      -7.743  13.415  67.676  1.00  0.00    -0.177 C  
HETATM    5  OXT UNL     1      -6.551  14.116  69.695  1.00  0.00    -0.129 OA 
HETATM    6  C   UNL     1      -6.858  13.230  68.915  1.00  0.00    -0.103 C  
HETATM    7  O   UNL     1      -6.430  11.944  69.033  1.00  0.00    -0.072 OA 
ENDROOT
BRANCH   4   8
HETATM    8  C   UNL     1      -9.131  13.938  68.139  1.00  0.00    -0.193 C  
HETATM    9  O   UNL     1     -10.140  12.944  67.926  1.00  0.00    -0.219 OA 
HETATM   10  H   UNL     1     -10.988  13.263  68.209  1.00  0.00     0.000 HD 
BRANCH   8  11
HETATM   11  C   UNL     1      -9.535  15.204  67.399  1.00  0.00    -0.204 A  
HETATM   12  C   UNL     1      -9.488  16.461  68.033  1.00  0.00    -0.217 A  
HETATM   13  C   UNL     1      -9.920  17.597  67.359  1.00  0.00    -0.321 A  
HETATM   14  C   UNL     1     -10.388  17.502  66.053  1.00  0.00    -0.306 A  
HETATM   15  O   UNL     1      -9.914  18.830  67.948  1.00  0.00    -0.322 OA 
HETATM   16  H   UNL     1     -10.210  19.606  67.488  1.00  0.00     0.000 HD 
HETATM   17  O   UNL     1     -10.821  18.619  65.402  1.00  0.00    -0.569 OA 
HETATM   18  C   UNL     1     -10.424  16.278  65.401  1.00  0.00    -0.365 A  
HETATM   19  C   UNL     1     -10.002  15.128  66.075  1.00  0.00    -0.335 A  
HETATM   20  H   UNL     1     -11.141  18.554  64.509  1.00  0.00     0.000 HD 
ENDBRANCH   8  11
ENDBRANCH   4   8
TORSDOF 2
ENDMDL
MODEL      193
REMARK 921   NORMALIZED FREE ENERGY PREDICTED BY IDOCK:   -3.45 KCAL/MOL
REMARK 922        TOTAL FREE ENERGY PREDICTED BY IDOCK:   -4.12 KCAL/MOL
REMARK 923 INTER-LIGAND FREE ENERGY PREDICTED BY IDOCK:   -3.85 KCAL/MOL
REMARK 924 INTRA-LIGAND FREE ENERGY PREDICTED BY IDOCK:   -0.27 KCAL/MOL
REMARK 927      BINDING AFFINITY PREDICTED BY RF-SCORE:    0.00 PKD
ROOT
HETATM    1  N   UNL     1     -10.825  12.912  69.269  1.00  0.00    -0.440 NA 
HETATM    2  H1  UNL     1     -10.287  12.358  69.935  1.00  0.00     0.000 HD 
HETATM    3  H2  UNL     1     -11.765  13.126  69.600  1.00  0.00     0.000 HD 
HETATM    4  CA  UNL     1     -10.820  12.177  67.951  1.00  0.00    -0.217 C  
HETATM    5  OXT UNL     1     -11.740  12.762  65.760  1.00  0.00    -0.357 OA 
HETATM    6  C   UNL     1     -11.629  13.010  66.950  1.00  0.00    -0.366 C  
HETATM    7  O   UNL     1     -12.203  14.089  67.548  1.00  0.00    -0.366 OA 
ENDROOT
BRANCH   4   8
HETATM    8  C   UNL     1     -11.398  10.735  67.970  1.00  0.00    -0.307 C  
HETATM    9  O   UNL     1     -12.540  10.663  68.831  1.00  0.00    -0.742 OA 
HETATM   10  H   UNL     1     -12.894   9.782  68.843  1.00  0.00     0.000 HD 
BRANCH   8  11
HETATM   11  C   UNL     1     -10.370   9.719  68.445  1.00  0.00    -0.230 A  
HETATM   12  C   UNL     1      -9.003   9.877  68.146  1.00  0.00    -0.118 A  
HETATM   13  C   UNL     1      -8.089   8.906  68.535  1.00  0.00    -0.108 A  
HETATM   14  C   UNL     1      -8.515   7.781  69.233  1.00  0.00    -0.138 A  
HETATM   15  O   UNL     1      -6.758   9.009  68.241  1.00  0.00    -0.059 OA 
HETATM   16  H   UNL     1      -6.133   8.346  68.507  1.00  0.00     0.000 HD 
HETATM   17  O   UNL     1      -7.614   6.826  69.602  1.00  0.00    -0.096 OA 
HETATM   18  C   UNL     1      -9.853   7.613  69.557  1.00  0.00    -0.178 A  
HETATM   19  C   UNL     1     -10.782   8.580  69.159  1.00  0.00    -0.128 A  
HETATM   20  H   UNL     1      -7.905   6.058  70.079  1.00  0.00     0.000 HD 
ENDBRANCH   8  11
ENDBRANCH   4   8
TORSDOF 2
ENDMDL
MODEL      194
REMARK 921   NORMALIZED FREE ENERGY PREDICTED BY IDOCK:   -3.42 KCAL/MOL
REMARK 922        TOTAL FREE ENERGY PREDICTED BY IDOCK:   -4.09 KCAL/MOL
REMARK 923 INTER-LIGAND FREE ENERGY PREDICTED BY IDOCK:   -3.70 KCAL/MOL
REMARK 924 INTRA-LIGAND FREE ENERGY PREDICTED BY IDOCK:   -0.39 KCAL/MOL
REMARK 927      BINDING AFFINITY PREDICTED BY RF-SCORE:    0.00 PKD
ROOT
HETATM    1  N   UNL     1      -7.554  12.604  68.324  1.00  0.00    -0.125 NA 
HETATM    2  H1  UNL     1      -7.532  11.665  67.927  1.00  0.00     0.000 HD 
HETATM    3  H2  UNL     1      -7.980  12.633  69.250  1.00  0.00     0.000 HD 
HETATM    4  CA  UNL     1      -8.246  13.506  67.332  1.00  0.00    -0.181 C  
HETATM    5  OXT UNL     1      -8.672  15.915  67.347  1.00  0.00    -0.174 OA 
HETATM    6  C   UNL     1      -8.279  14.918  67.929  1.00  0.00    -0.144 C  
HETATM    7  O   UNL     1      -7.791  14.933  69.199  1.00  0.00    -0.159 OA 
ENDROOT
BRANCH   4   8
HETATM    8  C   UNL     1      -9.695  13.105  66.939  1.00  0.00    -0.243 C  
HETATM    9  O   UNL     1     -10.615  13.469  67.973  1.00  0.00    -0.229 OA 
HETATM   10  H   UNL     1     -11.501  13.224  67.734  1.00  0.00     0.000 HD 
BRANCH   8  11
HETATM   11  C   UNL     1      -9.819  11.610  66.685  1.00  0.00    -0.223 A  
HETATM   12  C   UNL     1     -10.441  10.764  67.624  1.00  0.00    -0.252 A  
HETATM   13  C   UNL     1     -10.490   9.393  67.401  1.00  0.00    -0.278 A  
HETATM   14  C   UNL     1      -9.938   8.851  66.245  1.00  0.00    -0.266 A  
HETATM   15  O   UNL     1     -11.060   8.537  68.300  1.00  0.00    -0.442 OA 
HETATM   16  H   UNL     1     -11.094   7.600  68.148  1.00  0.00     0.000 HD 
HETATM   17  O   UNL     1      -9.979   7.504  66.039  1.00  0.00    -0.429 OA 
HETATM   18  C   UNL     1      -9.339   9.666  65.296  1.00  0.00    -0.322 A  
HETATM   19  C   UNL     1      -9.275  11.046  65.518  1.00  0.00    -0.235 A  
HETATM   20  H   UNL     1      -9.602   7.133  65.249  1.00  0.00     0.000 HD 
ENDBRANCH   8  11
ENDBRANCH   4   8
TORSDOF 2
ENDMDL
MODEL      195
REMARK 921   NORMALIZED FREE ENERGY PREDICTED BY IDOCK:   -3.42 KCAL/MOL
REMARK 922        TOTAL FREE ENERGY PREDICTED BY IDOCK:   -4.09 KCAL/MOL
REMARK 923 INTER-LIGAND FREE ENERGY PREDICTED BY IDOCK:   -3.80 KCAL/MOL
REMARK 924 INTRA-LIGAND FREE ENERGY PREDICTED BY IDOCK:   -0.29 KCAL/MOL
REMARK 927      BINDING AFFINITY PREDICTED BY RF-SCORE:    0.00 PKD
ROOT
HETATM    1  N   UNL     1     -10.755  17.899  66.415  1.00  0.00    -0.201 NA 
HETATM    2  H1  UNL     1     -10.937  16.895  66.383  1.00  0.00     0.000 HD 
HETATM    3  H2  UNL     1      -9.889  18.159  65.943  1.00  0.00     0.000 HD 
HETATM    4  CA  UNL     1     -10.785  18.325  67.862  1.00  0.00    -0.311 C  
HETATM    5  OXT UNL     1     -10.567  20.524  68.913  1.00  0.00    -0.050 OA 
HETATM    6  C   UNL     1     -10.511  19.833  67.910  1.00  0.00    -0.393 C  
HETATM    7  O   UNL     1     -10.211  20.324  66.676  1.00  0.00    -0.438 OA 
ENDROOT
BRANCH   4   8
HETATM    8  C   UNL     1      -9.778  17.613  68.806  1.00  0.00    -0.311 C  
HETATM    9  O   UNL     1      -8.452  17.679  68.269  1.00  0.00    -0.254 OA 
HETATM   10  H   UNL     1      -7.836  17.244  68.846  1.00  0.00     0.000 HD 
BRANCH   8  11
HETATM   11  C   UNL     1     -10.139  16.151  69.021  1.00  0.00    -0.247 A  
HETATM   12  C   UNL     1      -9.312  15.119  68.533  1.00  0.00    -0.192 A  
HETATM   13  C   UNL     1      -9.692  13.792  68.686  1.00  0.00    -0.140 A  
HETATM   14  C   UNL     1     -10.881  13.473  69.332  1.00  0.00     0.015 A  
HETATM   15  O   UNL     1      -8.930  12.764  68.204  1.00  0.00    -0.192 OA 
HETATM   16  H   UNL     1      -9.190  11.857  68.309  1.00  0.00     0.000 HD 
HETATM   17  O   UNL     1     -11.254  12.168  69.468  1.00  0.00    -0.401 OA 
HETATM   18  C   UNL     1     -11.702  14.470  69.838  1.00  0.00    -0.354 A  
HETATM   19  C   UNL     1     -11.334  15.809  69.679  1.00  0.00    -0.334 A  
HETATM   20  H   UNL     1     -12.066  11.949  69.909  1.00  0.00     0.000 HD 
ENDBRANCH   8  11
ENDBRANCH   4   8
TORSDOF 2
ENDMDL
MODEL      196
REMARK 921   NORMALIZED FREE ENERGY PREDICTED BY IDOCK:   -3.41 KCAL/MOL
REMARK 922        TOTAL FREE ENERGY PREDICTED BY IDOCK:   -4.07 KCAL/MOL
REMARK 923 INTER-LIGAND FREE ENERGY PREDICTED BY IDOCK:   -4.01 KCAL/MOL
REMARK 924 INTRA-LIGAND FREE ENERGY PREDICTED BY IDOCK:   -0.06 KCAL/MOL
REMARK 927      BINDING AFFINITY PREDICTED BY RF-SCORE:    0.00 PKD
ROOT
HETATM    1  N   UNL     1      -9.965  11.426  69.179  1.00  0.00    -0.416 NA 
HETATM    2  H1  UNL     1      -9.558  12.087  69.841  1.00  0.00     0.000 HD 
HETATM    3  H2  UNL     1     -10.907  11.134  69.440  1.00  0.00     0.000 HD 
HETATM    4  CA  UNL     1      -9.009  10.267  69.039  1.00  0.00    -0.172 C  
HETATM    5  OXT UNL     1      -9.067   8.276  67.619  1.00  0.00    -0.131 OA 
HETATM    6  C   UNL     1      -9.623   9.274  68.044  1.00  0.00    -0.142 C  
HETATM    7  O   UNL     1     -10.874   9.655  67.669  1.00  0.00    -0.282 OA 
ENDROOT
BRANCH   4   8
HETATM    8  C   UNL     1      -8.666   9.503  70.347  1.00  0.00    -0.223 C  
HETATM    9  O   UNL     1      -7.609   8.565  70.119  1.00  0.00    -0.063 OA 
HETATM   10  H   UNL     1      -7.399   8.097  70.919  1.00  0.00     0.000 HD 
BRANCH   8  11
HETATM   11  C   UNL     1      -9.870   8.751  70.896  1.00  0.00    -0.278 A  
HETATM   12  C   UNL     1      -9.846   7.350  71.040  1.00  0.00    -0.179 A  
HETATM   13  C   UNL     1     -10.977   6.677  71.485  1.00  0.00    -0.247 A  
HETATM   14  C   UNL     1     -12.133   7.382  71.802  1.00  0.00    -0.312 A  
HETATM   15  O   UNL     1     -11.002   5.316  71.613  1.00  0.00    -0.171 OA 
HETATM   16  H   UNL     1     -11.776   4.856  71.917  1.00  0.00     0.000 HD 
HETATM   17  O   UNL     1     -13.243   6.713  72.227  1.00  0.00    -0.545 OA 
HETATM   18  C   UNL     1     -12.174   8.763  71.688  1.00  0.00    -0.399 A  
HETATM   19  C   UNL     1     -11.044   9.449  71.230  1.00  0.00    -0.446 A  
HETATM   20  H   UNL     1     -14.033   7.195  72.444  1.00  0.00     0.000 HD 
ENDBRANCH   8  11
ENDBRANCH   4   8
TORSDOF 2
ENDMDL
MODEL      197
REMARK 921   NORMALIZED FREE ENERGY PREDICTED BY IDOCK:   -3.40 KCAL/MOL
REMARK 922        TOTAL FREE ENERGY PREDICTED BY IDOCK:   -4.07 KCAL/MOL
REMARK 923 INTER-LIGAND FREE ENERGY PREDICTED BY IDOCK:   -3.81 KCAL/MOL
REMARK 924 INTRA-LIGAND FREE ENERGY PREDICTED BY IDOCK:   -0.26 KCAL/MOL
REMARK 927      BINDING AFFINITY PREDICTED BY RF-SCORE:    0.00 PKD
ROOT
HETATM    1  N   UNL     1     -10.060   8.920  71.822  1.00  0.00    -0.328 NA 
HETATM    2  H1  UNL     1      -9.699   9.855  71.631  1.00  0.00     0.000 HD 
HETATM    3  H2  UNL     1      -9.347   8.285  72.180  1.00  0.00     0.000 HD 
HETATM    4  CA  UNL     1     -10.714   8.415  70.559  1.00  0.00    -0.227 C  
HETATM    5  OXT UNL     1     -11.936   6.350  70.076  1.00  0.00    -0.333 OA 
HETATM    6  C   UNL     1     -11.256   7.009  70.846  1.00  0.00    -0.282 C  
HETATM    7  O   UNL     1     -10.902   6.582  72.088  1.00  0.00    -0.218 OA 
ENDROOT
BRANCH   4   8
HETATM    8  C   UNL     1      -9.806   8.343  69.301  1.00  0.00    -0.186 C  
HETATM    9  O   UNL     1      -8.462   8.014  69.668  1.00  0.00    -0.128 OA 
HETATM   10  H   UNL     1      -7.907   7.970  68.899  1.00  0.00     0.000 HD 
BRANCH   8  11
HETATM   11  C   UNL     1      -9.791   9.660  68.539  1.00  0.00    -0.170 A  
HETATM   12  C   UNL     1     -10.990  10.275  68.128  1.00  0.00    -0.328 A  
HETATM   13  C   UNL     1     -10.952  11.444  67.380  1.00  0.00    -0.273 A  
HETATM   14  C   UNL     1      -9.732  12.022  67.043  1.00  0.00    -0.196 A  
HETATM   15  O   UNL     1     -12.092  12.057  66.940  1.00  0.00    -0.608 OA 
HETATM   16  H   UNL     1     -12.066  12.856  66.428  1.00  0.00     0.000 HD 
HETATM   17  O   UNL     1      -9.702  13.164  66.298  1.00  0.00    -0.271 OA 
HETATM   18  C   UNL     1      -8.539  11.446  67.453  1.00  0.00    -0.142 A  
HETATM   19  C   UNL     1      -8.567  10.263  68.197  1.00  0.00    -0.119 A  
HETATM   20  H   UNL     1      -8.869  13.559  66.068  1.00  0.00     0.000 HD 
ENDBRANCH   8  11
ENDBRANCH   4   8
TORSDOF 2
ENDMDL
MODEL      198
REMARK 921   NORMALIZED FREE ENERGY PREDICTED BY IDOCK:   -3.37 KCAL/MOL
REMARK 922        TOTAL FREE ENERGY PREDICTED BY IDOCK:   -4.04 KCAL/MOL
REMARK 923 INTER-LIGAND FREE ENERGY PREDICTED BY IDOCK:   -3.75 KCAL/MOL
REMARK 924 INTRA-LIGAND FREE ENERGY PREDICTED BY IDOCK:   -0.28 KCAL/MOL
REMARK 927      BINDING AFFINITY PREDICTED BY RF-SCORE:    0.00 PKD
ROOT
HETATM    1  N   UNL     1     -10.219   4.975  70.996  1.00  0.00    -0.223 NA 
HETATM    2  H1  UNL     1      -9.840   4.969  70.049  1.00  0.00     0.000 HD 
HETATM    3  H2  UNL     1     -11.122   4.506  71.065  1.00  0.00     0.000 HD 
HETATM    4  CA  UNL     1     -10.265   6.409  71.462  1.00  0.00    -0.194 C  
HETATM    5  OXT UNL     1     -10.911   7.402  73.604  1.00  0.00    -0.306 OA 
HETATM    6  C   UNL     1     -10.835   6.419  72.886  1.00  0.00    -0.256 C  
HETATM    7  O   UNL     1     -11.233   5.176  73.271  1.00  0.00    -0.308 OA 
ENDROOT
BRANCH   4   8
HETATM    8  C   UNL     1     -11.105   7.384  70.591  1.00  0.00    -0.266 C  
HETATM    9  O   UNL     1     -11.672   6.696  69.471  1.00  0.00    -0.634 OA 
HETATM   10  H   UNL     1     -12.186   7.292  68.938  1.00  0.00     0.000 HD 
BRANCH   8  11
HETATM   11  C   UNL     1     -10.269   8.545  70.074  1.00  0.00    -0.201 A  
HETATM   12  C   UNL     1      -8.982   8.797  70.587  1.00  0.00    -0.219 A  
HETATM   13  C   UNL     1      -8.260   9.899  70.146  1.00  0.00    -0.136 A  
HETATM   14  C   UNL     1      -8.797  10.750  69.187  1.00  0.00    -0.086 A  
HETATM   15  O   UNL     1      -7.019  10.192  70.638  1.00  0.00    -0.298 OA 
HETATM   16  H   UNL     1      -6.526  10.945  70.336  1.00  0.00     0.000 HD 
HETATM   17  O   UNL     1      -8.088  11.837  68.766  1.00  0.00    -0.262 OA 
HETATM   18  C   UNL     1     -10.055  10.512  68.652  1.00  0.00    -0.190 A  
HETATM   19  C   UNL     1     -10.793   9.411  69.099  1.00  0.00    -0.176 A  
HETATM   20  H   UNL     1      -8.455  12.419  68.111  1.00  0.00     0.000 HD 
ENDBRANCH   8  11
ENDBRANCH   4   8
TORSDOF 2
ENDMDL
MODEL      199
REMARK 921   NORMALIZED FREE ENERGY PREDICTED BY IDOCK:   -3.37 KCAL/MOL
REMARK 922        TOTAL FREE ENERGY PREDICTED BY IDOCK:   -4.03 KCAL/MOL
REMARK 923 INTER-LIGAND FREE ENERGY PREDICTED BY IDOCK:   -3.64 KCAL/MOL
REMARK 924 INTRA-LIGAND FREE ENERGY PREDICTED BY IDOCK:   -0.39 KCAL/MOL
REMARK 927      BINDING AFFINITY PREDICTED BY RF-SCORE:    0.00 PKD
ROOT
HETATM    1  N   UNL     1      -7.735   9.004  72.233  1.00  0.00    -0.313 NA 
HETATM    2  H1  UNL     1      -8.305   9.743  71.822  1.00  0.00     0.000 HD 
HETATM    3  H2  UNL     1      -7.104   8.568  71.560  1.00  0.00     0.000 HD 
HETATM    4  CA  UNL     1      -8.668   8.014  72.887  1.00  0.00    -0.213 C  
HETATM    5  OXT UNL     1      -8.236   5.997  74.202  1.00  0.00    -0.106 OA 
HETATM    6  C   UNL     1      -7.811   6.903  73.505  1.00  0.00    -0.093 C  
HETATM    7  O   UNL     1      -6.495   7.059  73.197  1.00  0.00    -0.064 OA 
ENDROOT
BRANCH   4   8
HETATM    8  C   UNL     1      -9.728   7.359  71.959  1.00  0.00    -0.154 C  
HETATM    9  O   UNL     1      -9.122   6.362  71.129  1.00  0.00    -0.149 OA 
HETATM   10  H   UNL     1      -9.769   5.961  70.562  1.00  0.00     0.000 HD 
BRANCH   8  11
HETATM   11  C   UNL     1     -10.409   8.384  71.064  1.00  0.00    -0.244 A  
HETATM   12  C   UNL     1     -10.129   8.442  69.685  1.00  0.00    -0.199 A  
HETATM   13  C   UNL     1     -10.715   9.425  68.897  1.00  0.00    -0.178 A  
HETATM   14  C   UNL     1     -11.590  10.347  69.462  1.00  0.00    -0.219 A  
HETATM   15  O   UNL     1     -10.450   9.531  67.560  1.00  0.00    -0.241 OA 
HETATM   16  H   UNL     1     -10.850  10.203  67.022  1.00  0.00     0.000 HD 
HETATM   17  O   UNL     1     -12.152  11.317  68.684  1.00  0.00    -0.543 OA 
HETATM   18  C   UNL     1     -11.896  10.297  70.813  1.00  0.00    -0.459 A  
HETATM   19  C   UNL     1     -11.302   9.318  71.617  1.00  0.00    -0.467 A  
HETATM   20  H   UNL     1     -12.750  11.947  69.070  1.00  0.00     0.000 HD 
ENDBRANCH   8  11
ENDBRANCH   4   8
TORSDOF 2
ENDMDL
MODEL      200
REMARK 921   NORMALIZED FREE ENERGY PREDICTED BY IDOCK:   -3.36 KCAL/MOL
REMARK 922        TOTAL FREE ENERGY PREDICTED BY IDOCK:   -4.02 KCAL/MOL
REMARK 923 INTER-LIGAND FREE ENERGY PREDICTED BY IDOCK:   -3.77 KCAL/MOL
REMARK 924 INTRA-LIGAND FREE ENERGY PREDICTED BY IDOCK:   -0.26 KCAL/MOL
REMARK 927      BINDING AFFINITY PREDICTED BY RF-SCORE:    0.00 PKD
ROOT
HETATM    1  N   UNL     1     -10.078   9.573  70.299  1.00  0.00    -0.245 NA 
HETATM    2  H1  UNL     1      -9.931   9.346  71.283  1.00  0.00     0.000 HD 
HETATM    3  H2  UNL     1     -10.840  10.236  70.156  1.00  0.00     0.000 HD 
HETATM    4  CA  UNL     1     -10.281   8.277  69.554  1.00  0.00    -0.210 C  
HETATM    5  OXT UNL     1     -10.594   7.803  67.174  1.00  0.00    -0.321 OA 
HETATM    6  C   UNL     1     -10.503   8.620  68.076  1.00  0.00    -0.197 C  
HETATM    7  O   UNL     1     -10.568   9.965  67.880  1.00  0.00    -0.220 OA 
ENDROOT
BRANCH   4   8
HETATM    8  C   UNL     1     -11.462   7.390  70.035  1.00  0.00    -0.065 C  
HETATM    9  O   UNL     1     -12.365   8.149  70.845  1.00  0.00    -0.483 OA 
HETATM   10  H   UNL     1     -13.087   7.607  71.139  1.00  0.00     0.000 HD 
BRANCH   8  11
HETATM   11  C   UNL     1     -10.979   6.193  70.841  1.00  0.00    -0.359 A  
HETATM   12  C   UNL     1     -11.466   5.950  72.141  1.00  0.00    -0.333 A  
HETATM   13  C   UNL     1     -10.966   4.887  72.883  1.00  0.00    -0.262 A  
HETATM   14  C   UNL     1      -9.995   4.051  72.345  1.00  0.00    -0.164 A  
HETATM   15  O   UNL     1     -11.394   4.634  74.157  1.00  0.00    -0.273 OA 
HETATM   16  H   UNL     1     -11.052   3.908  74.665  1.00  0.00     0.000 HD 
HETATM   17  O   UNL     1      -9.501   3.017  73.084  1.00  0.00    -0.089 OA 
HETATM   18  C   UNL     1      -9.515   4.258  71.060  1.00  0.00    -0.236 A  
HETATM   19  C   UNL     1     -10.003   5.332  70.309  1.00  0.00    -0.310 A  
HETATM   20  H   UNL     1      -8.837   2.445  72.717  1.00  0.00     0.000 HD 
ENDBRANCH   8  11
ENDBRANCH   4   8
TORSDOF 2
ENDMDL
MODEL      201
REMARK 921   NORMALIZED FREE ENERGY PREDICTED BY IDOCK:   -3.33 KCAL/MOL
REMARK 922        TOTAL FREE ENERGY PREDICTED BY IDOCK:   -3.99 KCAL/MOL
REMARK 923 INTER-LIGAND FREE ENERGY PREDICTED BY IDOCK:   -3.71 KCAL/MOL
REMARK 924 INTRA-LIGAND FREE ENERGY PREDICTED BY IDOCK:   -0.27 KCAL/MOL
REMARK 927      BINDING AFFINITY PREDICTED BY RF-SCORE:    0.00 PKD
ROOT
HETATM    1  N   UNL     1      -7.023  11.613  69.355  1.00  0.00    -0.266 NA 
HETATM    2  H1  UNL     1      -6.981  12.436  68.754  1.00  0.00     0.000 HD 
HETATM    3  H2  UNL     1      -6.295  10.930  69.143  1.00  0.00     0.000 HD 
HETATM    4  CA  UNL     1      -8.414  11.039  69.253  1.00  0.00     0.065 C  
HETATM    5  OXT UNL     1      -9.483   9.157  70.395  1.00  0.00    -0.190 OA 
HETATM    6  C   UNL     1      -8.476   9.802  70.158  1.00  0.00    -0.174 C  
HETATM    7  O   UNL     1      -7.257   9.514  70.691  1.00  0.00    -0.119 OA 
ENDROOT
BRANCH   4   8
HETATM    8  C   UNL     1      -8.881  10.629  67.829  1.00  0.00    -0.133 C  
HETATM    9  O   UNL     1      -7.786  10.675  66.908  1.00  0.00    -0.113 OA 
HETATM   10  H   UNL     1      -8.072  10.424  66.037  1.00  0.00     0.000 HD 
BRANCH   8  11
HETATM   11  C   UNL     1      -9.986  11.539  67.312  1.00  0.00    -0.212 A  
HETATM   12  C   UNL     1     -10.702  12.380  68.187  1.00  0.00    -0.243 A  
HETATM   13  C   UNL     1     -11.748  13.157  67.705  1.00  0.00    -0.369 A  
HETATM   14  C   UNL     1     -12.085  13.119  66.356  1.00  0.00    -0.382 A  
HETATM   15  O   UNL     1     -12.483  13.966  68.525  1.00  0.00    -0.442 OA 
HETATM   16  H   UNL     1     -13.198  14.497  68.196  1.00  0.00     0.000 HD 
HETATM   17  O   UNL     1     -13.121  13.875  65.892  1.00  0.00    -0.449 OA 
HETATM   18  C   UNL     1     -11.383  12.314  65.472  1.00  0.00    -0.394 A  
HETATM   19  C   UNL     1     -10.335  11.520  65.950  1.00  0.00    -0.293 A  
HETATM   20  H   UNL     1     -13.352  13.849  64.971  1.00  0.00     0.000 HD 
ENDBRANCH   8  11
ENDBRANCH   4   8
TORSDOF 2
ENDMDL
MODEL      202
REMARK 921   NORMALIZED FREE ENERGY PREDICTED BY IDOCK:   -3.31 KCAL/MOL
REMARK 922        TOTAL FREE ENERGY PREDICTED BY IDOCK:   -3.96 KCAL/MOL
REMARK 923 INTER-LIGAND FREE ENERGY PREDICTED BY IDOCK:   -3.85 KCAL/MOL
REMARK 924 INTRA-LIGAND FREE ENERGY PREDICTED BY IDOCK:   -0.11 KCAL/MOL
REMARK 927      BINDING AFFINITY PREDICTED BY RF-SCORE:    0.00 PKD
ROOT
HETATM    1  N   UNL     1      -8.919   8.787  65.022  1.00  0.00    -0.403 NA 
HETATM    2  H1  UNL     1      -8.799   7.949  65.592  1.00  0.00     0.000 HD 
HETATM    3  H2  UNL     1      -8.052   9.310  64.898  1.00  0.00     0.000 HD 
HETATM    4  CA  UNL     1     -10.018   9.612  65.644  1.00  0.00    -0.251 C  
HETATM    5  OXT UNL     1     -11.074  11.705  64.943  1.00  0.00    -0.299 OA 
HETATM    6  C   UNL     1     -10.198  10.871  64.787  1.00  0.00    -0.333 C  
HETATM    7  O   UNL     1      -9.263  10.940  63.801  1.00  0.00    -0.209 OA 
ENDROOT
BRANCH   4   8
HETATM    8  C   UNL     1      -9.793  10.050  67.118  1.00  0.00    -0.185 C  
HETATM    9  O   UNL     1      -8.398  10.239  67.378  1.00  0.00    -0.117 OA 
HETATM   10  H   UNL     1      -8.260  10.508  68.279  1.00  0.00     0.000 HD 
BRANCH   8  11
HETATM   11  C   UNL     1     -10.334   9.025  68.102  1.00  0.00    -0.262 A  
HETATM   12  C   UNL     1     -10.514   9.349  69.462  1.00  0.00    -0.229 A  
HETATM   13  C   UNL     1     -10.951   8.380  70.356  1.00  0.00    -0.239 A  
HETATM   14  C   UNL     1     -11.225   7.091  69.914  1.00  0.00    -0.246 A  
HETATM   15  O   UNL     1     -11.112   8.648  71.687  1.00  0.00    -0.261 OA 
HETATM   16  H   UNL     1     -11.411   7.985  72.298  1.00  0.00     0.000 HD 
HETATM   17  O   UNL     1     -11.643   6.141  70.800  1.00  0.00    -0.316 OA 
HETATM   18  C   UNL     1     -11.076   6.753  68.577  1.00  0.00    -0.217 A  
HETATM   19  C   UNL     1     -10.626   7.719  67.671  1.00  0.00    -0.283 A  
HETATM   20  H   UNL     1     -11.831   5.260  70.498  1.00  0.00     0.000 HD 
ENDBRANCH   8  11
ENDBRANCH   4   8
TORSDOF 2
ENDMDL
MODEL      203
REMARK 921   NORMALIZED FREE ENERGY PREDICTED BY IDOCK:   -3.30 KCAL/MOL
REMARK 922        TOTAL FREE ENERGY PREDICTED BY IDOCK:   -3.95 KCAL/MOL
REMARK 923 INTER-LIGAND FREE ENERGY PREDICTED BY IDOCK:   -4.05 KCAL/MOL
REMARK 924 INTRA-LIGAND FREE ENERGY PREDICTED BY IDOCK:    0.10 KCAL/MOL
REMARK 927      BINDING AFFINITY PREDICTED BY RF-SCORE:    0.00 PKD
ROOT
HETATM    1  N   UNL     1     -11.468   8.910  69.882  1.00  0.00    -0.443 NA 
HETATM    2  H1  UNL     1     -12.413   8.594  69.662  1.00  0.00     0.000 HD 
HETATM    3  H2  UNL     1     -11.298   9.876  69.602  1.00  0.00     0.000 HD 
HETATM    4  CA  UNL     1     -10.501   7.939  69.251  1.00  0.00    -0.216 C  
HETATM    5  OXT UNL     1      -8.059   7.803  69.315  1.00  0.00    -0.122 OA 
HETATM    6  C   UNL     1      -9.081   8.414  69.580  1.00  0.00    -0.153 C  
HETATM    7  O   UNL     1      -9.094   9.608  70.232  1.00  0.00    -0.235 OA 
ENDROOT
BRANCH   4   8
HETATM    8  C   UNL     1     -10.615   7.764  67.711  1.00  0.00    -0.185 C  
HETATM    9  O   UNL     1      -9.656   6.812  67.240  1.00  0.00    -0.129 OA 
HETATM   10  H   UNL     1      -9.725   6.705  66.299  1.00  0.00     0.000 HD 
BRANCH   8  11
HETATM   11  C   UNL     1     -10.396   9.077  66.974  1.00  0.00    -0.339 A  
HETATM   12  C   UNL     1     -11.063  10.252  67.372  1.00  0.00    -0.261 A  
HETATM   13  C   UNL     1     -10.896  11.426  66.648  1.00  0.00    -0.289 A  
HETATM   14  C   UNL     1     -10.060  11.452  65.537  1.00  0.00    -0.247 A  
HETATM   15  O   UNL     1     -11.547  12.580  66.985  1.00  0.00    -0.330 OA 
HETATM   16  H   UNL     1     -11.433  13.382  66.491  1.00  0.00     0.000 HD 
HETATM   17  O   UNL     1      -9.910  12.605  64.824  1.00  0.00    -0.477 OA 
HETATM   18  C   UNL     1      -9.377  10.313  65.138  1.00  0.00    -0.279 A  
HETATM   19  C   UNL     1      -9.547   9.123  65.854  1.00  0.00    -0.343 A  
HETATM   20  H   UNL     1      -9.339  12.623  64.065  1.00  0.00     0.000 HD 
ENDBRANCH   8  11
ENDBRANCH   4   8
TORSDOF 2
ENDMDL
MODEL      204
REMARK 921   NORMALIZED FREE ENERGY PREDICTED BY IDOCK:   -3.29 KCAL/MOL
REMARK 922        TOTAL FREE ENERGY PREDICTED BY IDOCK:   -3.94 KCAL/MOL
REMARK 923 INTER-LIGAND FREE ENERGY PREDICTED BY IDOCK:   -3.68 KCAL/MOL
REMARK 924 INTRA-LIGAND FREE ENERGY PREDICTED BY IDOCK:   -0.26 KCAL/MOL
REMARK 927      BINDING AFFINITY PREDICTED BY RF-SCORE:    0.00 PKD
ROOT
HETATM    1  N   UNL     1     -10.471  10.493  64.023  1.00  0.00    -0.384 NA 
HETATM    2  H1  UNL     1     -11.013  11.009  64.716  1.00  0.00     0.000 HD 
HETATM    3  H2  UNL     1     -10.853   9.567  63.831  1.00  0.00     0.000 HD 
HETATM    4  CA  UNL     1      -9.040  10.449  64.500  1.00  0.00    -0.229 C  
HETATM    5  OXT UNL     1      -7.013   9.539  63.476  1.00  0.00    -0.097 OA 
HETATM    6  C   UNL     1      -8.225   9.672  63.459  1.00  0.00    -0.158 C  
HETATM    7  O   UNL     1      -9.023   9.158  62.484  1.00  0.00    -0.224 OA 
ENDROOT
BRANCH   4   8
HETATM    8  C   UNL     1      -8.803   9.800  65.892  1.00  0.00    -0.150 C  
HETATM    9  O   UNL     1      -9.204   8.425  65.881  1.00  0.00    -0.258 OA 
HETATM   10  H   UNL     1      -9.059   8.028  66.731  1.00  0.00     0.000 HD 
BRANCH   8  11
HETATM   11  C   UNL     1      -9.573  10.518  66.990  1.00  0.00    -0.202 A  
HETATM   12  C   UNL     1     -10.380   9.804  67.897  1.00  0.00    -0.258 A  
HETATM   13  C   UNL     1     -11.123  10.485  68.853  1.00  0.00    -0.261 A  
HETATM   14  C   UNL     1     -11.064  11.872  68.930  1.00  0.00    -0.247 A  
HETATM   15  O   UNL     1     -11.938   9.830  69.734  1.00  0.00    -0.458 OA 
HETATM   16  H   UNL     1     -12.446  10.295  70.387  1.00  0.00     0.000 HD 
HETATM   17  O   UNL     1     -11.805  12.535  69.864  1.00  0.00    -0.341 OA 
HETATM   18  C   UNL     1     -10.261  12.596  68.062  1.00  0.00    -0.230 A  
HETATM   19  C   UNL     1      -9.518  11.920  67.088  1.00  0.00    -0.180 A  
HETATM   20  H   UNL     1     -11.765  13.482  69.916  1.00  0.00     0.000 HD 
ENDBRANCH   8  11
ENDBRANCH   4   8
TORSDOF 2
ENDMDL
MODEL      205
REMARK 921   NORMALIZED FREE ENERGY PREDICTED BY IDOCK:   -3.28 KCAL/MOL
REMARK 922        TOTAL FREE ENERGY PREDICTED BY IDOCK:   -3.93 KCAL/MOL
REMARK 923 INTER-LIGAND FREE ENERGY PREDICTED BY IDOCK:   -3.83 KCAL/MOL
REMARK 924 INTRA-LIGAND FREE ENERGY PREDICTED BY IDOCK:   -0.11 KCAL/MOL
REMARK 927      BINDING AFFINITY PREDICTED BY RF-SCORE:    0.00 PKD
ROOT
HETATM    1  N   UNL     1      -8.963   7.772  71.743  1.00  0.00    -0.119 NA 
HETATM    2  H1  UNL     1      -9.237   8.465  72.439  1.00  0.00     0.000 HD 
HETATM    3  H2  UNL     1      -8.482   8.182  70.942  1.00  0.00     0.000 HD 
HETATM    4  CA  UNL     1     -10.200   7.001  71.352  1.00  0.00    -0.196 C  
HETATM    5  OXT UNL     1     -10.520   5.094  69.851  1.00  0.00    -0.295 OA 
HETATM    6  C   UNL     1      -9.788   5.958  70.305  1.00  0.00    -0.185 C  
HETATM    7  O   UNL     1      -8.481   6.097  69.951  1.00  0.00    -0.125 OA 
ENDROOT
BRANCH   4   8
HETATM    8  C   UNL     1     -11.373   7.839  70.774  1.00  0.00    -0.279 C  
HETATM    9  O   UNL     1     -12.360   6.985  70.186  1.00  0.00    -0.618 OA 
HETATM   10  H   UNL     1     -13.078   7.497  69.833  1.00  0.00     0.000 HD 
BRANCH   8  11
HETATM   11  C   UNL     1     -10.898   8.826  69.718  1.00  0.00    -0.196 A  
HETATM   12  C   UNL     1     -10.817  10.204  69.997  1.00  0.00    -0.361 A  
HETATM   13  C   UNL     1     -10.439  11.096  69.001  1.00  0.00    -0.206 A  
HETATM   14  C   UNL     1     -10.127  10.632  67.728  1.00  0.00    -0.174 A  
HETATM   15  O   UNL     1     -10.374  12.442  69.225  1.00  0.00    -0.419 OA 
HETATM   16  H   UNL     1     -10.117  13.052  68.544  1.00  0.00     0.000 HD 
HETATM   17  O   UNL     1      -9.768  11.514  66.751  1.00  0.00    -0.194 OA 
HETATM   18  C   UNL     1     -10.179   9.278  67.434  1.00  0.00    -0.304 A  
HETATM   19  C   UNL     1     -10.569   8.374  68.428  1.00  0.00    -0.155 A  
HETATM   20  H   UNL     1      -9.554  11.198  65.881  1.00  0.00     0.000 HD 
ENDBRANCH   8  11
ENDBRANCH   4   8
TORSDOF 2
ENDMDL
MODEL      206
REMARK 921   NORMALIZED FREE ENERGY PREDICTED BY IDOCK:   -3.28 KCAL/MOL
REMARK 922        TOTAL FREE ENERGY PREDICTED BY IDOCK:   -3.93 KCAL/MOL
REMARK 923 INTER-LIGAND FREE ENERGY PREDICTED BY IDOCK:   -3.70 KCAL/MOL
REMARK 924 INTRA-LIGAND FREE ENERGY PREDICTED BY IDOCK:   -0.23 KCAL/MOL
REMARK 927      BINDING AFFINITY PREDICTED BY RF-SCORE:    0.00 PKD
ROOT
HETATM    1  N   UNL     1      -6.053  17.335  70.291  1.00  0.00    -0.034 NA 
HETATM    2  H1  UNL     1      -6.428  18.221  70.632  1.00  0.00     0.000 HD 
HETATM    3  H2  UNL     1      -5.033  17.327  70.249  1.00  0.00     0.000 HD 
HETATM    4  CA  UNL     1      -6.696  17.046  68.958  1.00  0.00    -0.221 C  
HETATM    5  OXT UNL     1      -6.514  15.130  67.446  1.00  0.00    -0.275 OA 
HETATM    6  C   UNL     1      -6.131  15.715  68.446  1.00  0.00    -0.104 C  
HETATM    7  O   UNL     1      -5.151  15.243  69.263  1.00  0.00    -0.092 OA 
ENDROOT
BRANCH   4   8
HETATM    8  C   UNL     1      -6.495  18.121  67.854  1.00  0.00    -0.187 C  
HETATM    9  O   UNL     1      -5.825  19.269  68.386  1.00  0.00    -0.206 OA 
HETATM   10  H   UNL     1      -5.702  19.926  67.711  1.00  0.00     0.000 HD 
BRANCH   8  11
HETATM   11  C   UNL     1      -7.819  18.569  67.253  1.00  0.00    -0.240 A  
HETATM   12  C   UNL     1      -8.674  17.650  66.614  1.00  0.00    -0.286 A  
HETATM   13  C   UNL     1      -9.849  18.090  66.018  1.00  0.00    -0.169 A  
HETATM   14  C   UNL     1     -10.193  19.437  66.058  1.00  0.00    -0.457 A  
HETATM   15  O   UNL     1     -10.692  17.234  65.366  1.00  0.00    -0.583 OA 
HETATM   16  H   UNL     1     -11.495  17.535  64.958  1.00  0.00     0.000 HD 
HETATM   17  O   UNL     1     -11.342  19.864  65.460  1.00  0.00    -0.089 OA 
HETATM   18  C   UNL     1      -9.378  20.358  66.698  1.00  0.00    -0.405 A  
HETATM   19  C   UNL     1      -8.188  19.926  67.292  1.00  0.00    -0.350 A  
HETATM   20  H   UNL     1     -11.578  20.784  65.487  1.00  0.00     0.000 HD 
ENDBRANCH   8  11
ENDBRANCH   4   8
TORSDOF 2
ENDMDL
MODEL      207
REMARK 921   NORMALIZED FREE ENERGY PREDICTED BY IDOCK:   -3.27 KCAL/MOL
REMARK 922        TOTAL FREE ENERGY PREDICTED BY IDOCK:   -3.93 KCAL/MOL
REMARK 923 INTER-LIGAND FREE ENERGY PREDICTED BY IDOCK:   -3.54 KCAL/MOL
REMARK 924 INTRA-LIGAND FREE ENERGY PREDICTED BY IDOCK:   -0.39 KCAL/MOL
REMARK 927      BINDING AFFINITY PREDICTED BY RF-SCORE:    0.00 PKD
ROOT
HETATM    1  N   UNL     1      -7.682  10.722  68.196  1.00  0.00    -0.099 NA 
HETATM    2  H1  UNL     1      -7.857   9.718  68.254  1.00  0.00     0.000 HD 
HETATM    3  H2  UNL     1      -7.542  11.152  69.110  1.00  0.00     0.000 HD 
HETATM    4  CA  UNL     1      -8.818  11.343  67.423  1.00  0.00    -0.150 C  
HETATM    5  OXT UNL     1      -9.220  13.643  66.690  1.00  0.00    -0.249 OA 
HETATM    6  C   UNL     1      -8.554  12.851  67.337  1.00  0.00    -0.195 C  
HETATM    7  O   UNL     1      -7.459  13.207  68.062  1.00  0.00    -0.104 OA 
ENDROOT
BRANCH   4   8
HETATM    8  C   UNL     1     -10.241  11.127  68.007  1.00  0.00    -0.181 C  
HETATM    9  O   UNL     1     -10.448  11.963  69.151  1.00  0.00    -0.396 OA 
HETATM   10  H   UNL     1     -11.319  11.831  69.508  1.00  0.00     0.000 HD 
BRANCH   8  11
HETATM   11  C   UNL     1     -10.471   9.680  68.418  1.00  0.00    -0.258 A  
HETATM   12  C   UNL     1     -10.682   9.334  69.767  1.00  0.00    -0.245 A  
HETATM   13  C   UNL     1     -10.828   8.001  70.129  1.00  0.00    -0.242 A  
HETATM   14  C   UNL     1     -10.780   7.003  69.162  1.00  0.00    -0.218 A  
HETATM   15  O   UNL     1     -11.009   7.622  71.430  1.00  0.00    -0.229 OA 
HETATM   16  H   UNL     1     -11.109   6.711  71.678  1.00  0.00     0.000 HD 
HETATM   17  O   UNL     1     -10.912   5.695  69.526  1.00  0.00    -0.334 OA 
HETATM   18  C   UNL     1     -10.593   7.320  67.825  1.00  0.00    -0.289 A  
HETATM   19  C   UNL     1     -10.434   8.658  67.453  1.00  0.00    -0.351 A  
HETATM   20  H   UNL     1     -10.879   5.012  68.866  1.00  0.00     0.000 HD 
ENDBRANCH   8  11
ENDBRANCH   4   8
TORSDOF 2
ENDMDL
MODEL      208
REMARK 921   NORMALIZED FREE ENERGY PREDICTED BY IDOCK:   -3.26 KCAL/MOL
REMARK 922        TOTAL FREE ENERGY PREDICTED BY IDOCK:   -3.91 KCAL/MOL
REMARK 923 INTER-LIGAND FREE ENERGY PREDICTED BY IDOCK:   -3.64 KCAL/MOL
REMARK 924 INTRA-LIGAND FREE ENERGY PREDICTED BY IDOCK:   -0.27 KCAL/MOL
REMARK 927      BINDING AFFINITY PREDICTED BY RF-SCORE:    0.00 PKD
ROOT
HETATM    1  N   UNL     1      -6.058   8.880  73.176  1.00  0.00    -0.255 NA 
HETATM    2  H1  UNL     1      -6.234   9.716  72.619  1.00  0.00     0.000 HD 
HETATM    3  H2  UNL     1      -5.303   8.306  72.802  1.00  0.00     0.000 HD 
HETATM    4  CA  UNL     1      -7.360   8.128  73.299  1.00  0.00    -0.129 C  
HETATM    5  OXT UNL     1      -7.952   6.091  74.519  1.00  0.00    -0.102 OA 
HETATM    6  C   UNL     1      -7.096   6.871  74.136  1.00  0.00    -0.089 C  
HETATM    7  O   UNL     1      -5.773   6.734  74.425  1.00  0.00    -0.055 OA 
ENDROOT
BRANCH   4   8
HETATM    8  C   UNL     1      -8.029   7.697  71.964  1.00  0.00    -0.100 C  
HETATM    9  O   UNL     1      -7.226   8.095  70.848  1.00  0.00    -0.051 OA 
HETATM   10  H   UNL     1      -7.634   7.832  70.032  1.00  0.00     0.000 HD 
BRANCH   8  11
HETATM   11  C   UNL     1      -9.415   8.303  71.804  1.00  0.00    -0.274 A  
HETATM   12  C   UNL     1      -9.642   9.370  70.912  1.00  0.00    -0.301 A  
HETATM   13  C   UNL     1     -10.901   9.949  70.825  1.00  0.00    -0.317 A  
HETATM   14  C   UNL     1     -11.947   9.472  71.607  1.00  0.00    -0.401 A  
HETATM   15  O   UNL     1     -11.155  11.002  69.992  1.00  0.00    -0.402 OA 
HETATM   16  H   UNL     1     -12.016  11.398  69.933  1.00  0.00     0.000 HD 
HETATM   17  O   UNL     1     -13.179  10.053  71.526  1.00  0.00    -0.374 OA 
HETATM   18  C   UNL     1     -11.754   8.410  72.478  1.00  0.00    -0.429 A  
HETATM   19  C   UNL     1     -10.487   7.827  72.580  1.00  0.00    -0.363 A  
HETATM   20  H   UNL     1     -13.894   9.728  72.061  1.00  0.00     0.000 HD 
ENDBRANCH   8  11
ENDBRANCH   4   8
TORSDOF 2
ENDMDL
MODEL      209
REMARK 921   NORMALIZED FREE ENERGY PREDICTED BY IDOCK:   -3.24 KCAL/MOL
REMARK 922        TOTAL FREE ENERGY PREDICTED BY IDOCK:   -3.89 KCAL/MOL
REMARK 923 INTER-LIGAND FREE ENERGY PREDICTED BY IDOCK:   -3.62 KCAL/MOL
REMARK 924 INTRA-LIGAND FREE ENERGY PREDICTED BY IDOCK:   -0.27 KCAL/MOL
REMARK 927      BINDING AFFINITY PREDICTED BY RF-SCORE:    0.00 PKD
ROOT
HETATM    1  N   UNL     1     -10.814  11.253  69.506  1.00  0.00    -0.415 NA 
HETATM    2  H1  UNL     1     -10.811  11.424  70.512  1.00  0.00     0.000 HD 
HETATM    3  H2  UNL     1     -11.732  11.394  69.083  1.00  0.00     0.000 HD 
HETATM    4  CA  UNL     1     -10.269   9.865  69.274  1.00  0.00    -0.209 C  
HETATM    5  OXT UNL     1      -9.801   8.626  67.217  1.00  0.00    -0.167 OA 
HETATM    6  C   UNL     1     -10.275   9.609  67.762  1.00  0.00    -0.205 C  
HETATM    7  O   UNL     1     -10.862  10.633  67.086  1.00  0.00    -0.274 OA 
ENDROOT
BRANCH   4   8
HETATM    8  C   UNL     1     -11.033   8.706  69.971  1.00  0.00    -0.203 C  
HETATM    9  O   UNL     1     -12.242   9.187  70.568  1.00  0.00    -0.480 OA 
HETATM   10  H   UNL     1     -12.709   8.478  70.994  1.00  0.00     0.000 HD 
BRANCH   8  11
HETATM   11  C   UNL     1     -10.192   8.043  71.052  1.00  0.00    -0.217 A  
HETATM   12  C   UNL     1     -10.765   7.646  72.276  1.00  0.00    -0.311 A  
HETATM   13  C   UNL     1      -9.967   7.098  73.273  1.00  0.00    -0.254 A  
HETATM   14  C   UNL     1      -8.603   6.927  73.064  1.00  0.00    -0.118 A  
HETATM   15  O   UNL     1     -10.480   6.726  74.484  1.00  0.00    -0.436 OA 
HETATM   16  H   UNL     1      -9.935   6.352  75.165  1.00  0.00     0.000 HD 
HETATM   17  O   UNL     1      -7.824   6.399  74.052  1.00  0.00    -0.098 OA 
HETATM   18  C   UNL     1      -8.019   7.290  71.860  1.00  0.00    -0.091 A  
HETATM   19  C   UNL     1      -8.812   7.853  70.854  1.00  0.00    -0.141 A  
HETATM   20  H   UNL     1      -6.892   6.282  73.909  1.00  0.00     0.000 HD 
ENDBRANCH   8  11
ENDBRANCH   4   8
TORSDOF 2
ENDMDL
MODEL      210
REMARK 921   NORMALIZED FREE ENERGY PREDICTED BY IDOCK:   -3.24 KCAL/MOL
REMARK 922        TOTAL FREE ENERGY PREDICTED BY IDOCK:   -3.89 KCAL/MOL
REMARK 923 INTER-LIGAND FREE ENERGY PREDICTED BY IDOCK:   -3.61 KCAL/MOL
REMARK 924 INTRA-LIGAND FREE ENERGY PREDICTED BY IDOCK:   -0.28 KCAL/MOL
REMARK 927      BINDING AFFINITY PREDICTED BY RF-SCORE:    0.00 PKD
ROOT
HETATM    1  N   UNL     1      -8.157  11.286  69.549  1.00  0.00    -0.329 NA 
HETATM    2  H1  UNL     1      -8.095  11.034  70.536  1.00  0.00     0.000 HD 
HETATM    3  H2  UNL     1      -8.562  12.210  69.401  1.00  0.00     0.000 HD 
HETATM    4  CA  UNL     1      -8.918  10.191  68.843  1.00  0.00    -0.155 C  
HETATM    5  OXT UNL     1      -9.469   9.856  66.483  1.00  0.00    -0.165 OA 
HETATM    6  C   UNL     1      -9.011  10.569  67.360  1.00  0.00    -0.135 C  
HETATM    7  O   UNL     1      -8.495  11.807  67.129  1.00  0.00    -0.156 OA 
ENDROOT
BRANCH   4   8
HETATM    8  C   UNL     1     -10.353   9.908  69.368  1.00  0.00    -0.222 C  
HETATM    9  O   UNL     1     -10.718  10.863  70.371  1.00  0.00    -0.399 OA 
HETATM   10  H   UNL     1     -11.596  10.690  70.692  1.00  0.00     0.000 HD 
BRANCH   8  11
HETATM   11  C   UNL     1     -10.474   8.513  69.962  1.00  0.00    -0.226 A  
HETATM   12  C   UNL     1     -11.514   8.192  70.856  1.00  0.00    -0.288 A  
HETATM   13  C   UNL     1     -11.571   6.931  71.434  1.00  0.00    -0.299 A  
HETATM   14  C   UNL     1     -10.611   5.974  71.125  1.00  0.00    -0.246 A  
HETATM   15  O   UNL     1     -12.550   6.590  72.326  1.00  0.00    -0.543 OA 
HETATM   16  H   UNL     1     -12.589   5.728  72.722  1.00  0.00     0.000 HD 
HETATM   17  O   UNL     1     -10.667   4.741  71.706  1.00  0.00    -0.111 OA 
HETATM   18  C   UNL     1      -9.589   6.259  70.232  1.00  0.00    -0.182 A  
HETATM   19  C   UNL     1      -9.517   7.530  69.653  1.00  0.00    -0.156 A  
HETATM   20  H   UNL     1     -10.011   4.087  71.494  1.00  0.00     0.000 HD 
ENDBRANCH   8  11
ENDBRANCH   4   8
TORSDOF 2
ENDMDL
MODEL      211
REMARK 921   NORMALIZED FREE ENERGY PREDICTED BY IDOCK:   -3.24 KCAL/MOL
REMARK 922        TOTAL FREE ENERGY PREDICTED BY IDOCK:   -3.88 KCAL/MOL
REMARK 923 INTER-LIGAND FREE ENERGY PREDICTED BY IDOCK:   -3.67 KCAL/MOL
REMARK 924 INTRA-LIGAND FREE ENERGY PREDICTED BY IDOCK:   -0.21 KCAL/MOL
REMARK 927      BINDING AFFINITY PREDICTED BY RF-SCORE:    0.00 PKD
ROOT
HETATM    1  N   UNL     1     -12.122  11.926  66.230  1.00  0.00    -0.438 NA 
HETATM    2  H1  UNL     1     -11.879  10.989  66.554  1.00  0.00     0.000 HD 
HETATM    3  H2  UNL     1     -12.048  12.027  65.218  1.00  0.00     0.000 HD 
HETATM    4  CA  UNL     1     -11.259  12.909  66.981  1.00  0.00    -0.288 C  
HETATM    5  OXT UNL     1     -11.193  15.356  66.967  1.00  0.00    -0.312 OA 
HETATM    6  C   UNL     1     -11.624  14.317  66.494  1.00  0.00    -0.378 C  
HETATM    7  O   UNL     1     -12.516  14.273  65.468  1.00  0.00    -0.444 OA 
ENDROOT
BRANCH   4   8
HETATM    8  C   UNL     1      -9.723  12.722  66.835  1.00  0.00    -0.234 C  
HETATM    9  O   UNL     1      -9.362  12.594  65.455  1.00  0.00    -0.453 OA 
HETATM   10  H   UNL     1      -8.423  12.480  65.365  1.00  0.00     0.000 HD 
BRANCH   8  11
HETATM   11  C   UNL     1      -9.229  11.492  67.581  1.00  0.00    -0.171 A  
HETATM   12  C   UNL     1      -8.108  10.770  67.126  1.00  0.00    -0.124 A  
HETATM   13  C   UNL     1      -7.710   9.614  67.787  1.00  0.00    -0.094 A  
HETATM   14  C   UNL     1      -8.406   9.172  68.906  1.00  0.00    -0.124 A  
HETATM   15  O   UNL     1      -6.644   8.872  67.362  1.00  0.00    -0.060 OA 
HETATM   16  H   UNL     1      -6.372   8.082  67.813  1.00  0.00     0.000 HD 
HETATM   17  O   UNL     1      -8.017   8.029  69.543  1.00  0.00    -0.110 OA 
HETATM   18  C   UNL     1      -9.501   9.877  69.385  1.00  0.00    -0.226 A  
HETATM   19  C   UNL     1      -9.915  11.035  68.720  1.00  0.00    -0.215 A  
HETATM   20  H   UNL     1      -8.493   7.727  70.307  1.00  0.00     0.000 HD 
ENDBRANCH   8  11
ENDBRANCH   4   8
TORSDOF 2
ENDMDL
MODEL      212
REMARK 921   NORMALIZED FREE ENERGY PREDICTED BY IDOCK:   -3.23 KCAL/MOL
REMARK 922        TOTAL FREE ENERGY PREDICTED BY IDOCK:   -3.87 KCAL/MOL
REMARK 923 INTER-LIGAND FREE ENERGY PREDICTED BY IDOCK:   -3.73 KCAL/MOL
REMARK 924 INTRA-LIGAND FREE ENERGY PREDICTED BY IDOCK:   -0.14 KCAL/MOL
REMARK 927      BINDING AFFINITY PREDICTED BY RF-SCORE:    0.00 PKD
ROOT
HETATM    1  N   UNL     1      -9.065   8.530  64.784  1.00  0.00    -0.377 NA 
HETATM    2  H1  UNL     1      -9.113   9.486  64.429  1.00  0.00     0.000 HD 
HETATM    3  H2  UNL     1      -9.930   8.233  65.238  1.00  0.00     0.000 HD 
HETATM    4  CA  UNL     1      -7.864   8.436  65.692  1.00  0.00    -0.106 C  
HETATM    5  OXT UNL     1      -6.886   6.548  66.903  1.00  0.00    -0.061 OA 
HETATM    6  C   UNL     1      -7.794   7.000  66.226  1.00  0.00    -0.104 C  
HETATM    7  O   UNL     1      -8.872   6.269  65.831  1.00  0.00    -0.156 OA 
ENDROOT
BRANCH   4   8
HETATM    8  C   UNL     1      -7.845   9.411  66.902  1.00  0.00    -0.105 C  
HETATM    9  O   UNL     1      -7.870   8.683  68.135  1.00  0.00    -0.100 OA 
HETATM   10  H   UNL     1      -7.858   9.279  68.874  1.00  0.00     0.000 HD 
BRANCH   8  11
HETATM   11  C   UNL     1      -9.029  10.366  66.879  1.00  0.00    -0.151 A  
HETATM   12  C   UNL     1     -10.155  10.145  67.697  1.00  0.00    -0.231 A  
HETATM   13  C   UNL     1     -11.251  10.994  67.616  1.00  0.00    -0.305 A  
HETATM   14  C   UNL     1     -11.239  12.073  66.739  1.00  0.00    -0.322 A  
HETATM   15  O   UNL     1     -12.372  10.798  68.374  1.00  0.00    -0.813 OA 
HETATM   16  H   UNL     1     -13.121  11.379  68.318  1.00  0.00     0.000 HD 
HETATM   17  O   UNL     1     -12.323  12.896  66.656  1.00  0.00    -0.422 OA 
HETATM   18  C   UNL     1     -10.134  12.323  65.939  1.00  0.00    -0.272 A  
HETATM   19  C   UNL     1      -9.030  11.467  66.005  1.00  0.00    -0.203 A  
HETATM   20  H   UNL     1     -12.315  13.633  66.057  1.00  0.00     0.000 HD 
ENDBRANCH   8  11
ENDBRANCH   4   8
TORSDOF 2
ENDMDL
MODEL      213
REMARK 921   NORMALIZED FREE ENERGY PREDICTED BY IDOCK:   -3.22 KCAL/MOL
REMARK 922        TOTAL FREE ENERGY PREDICTED BY IDOCK:   -3.86 KCAL/MOL
REMARK 923 INTER-LIGAND FREE ENERGY PREDICTED BY IDOCK:   -3.63 KCAL/MOL
REMARK 924 INTRA-LIGAND FREE ENERGY PREDICTED BY IDOCK:   -0.24 KCAL/MOL
REMARK 927      BINDING AFFINITY PREDICTED BY RF-SCORE:    0.00 PKD
ROOT
HETATM    1  N   UNL     1      -8.820  11.843  67.871  1.00  0.00    -0.164 NA 
HETATM    2  H1  UNL     1      -9.700  12.204  68.239  1.00  0.00     0.000 HD 
HETATM    3  H2  UNL     1      -8.756  11.915  66.856  1.00  0.00     0.000 HD 
HETATM    4  CA  UNL     1      -8.661  10.427  68.370  1.00  0.00    -0.129 C  
HETATM    5  OXT UNL     1      -6.847   8.806  68.107  1.00  0.00    -0.067 OA 
HETATM    6  C   UNL     1      -7.338   9.884  67.815  1.00  0.00    -0.089 C  
HETATM    7  O   UNL     1      -6.756  10.768  66.961  1.00  0.00    -0.078 OA 
ENDROOT
BRANCH   4   8
HETATM    8  C   UNL     1      -9.796   9.437  67.989  1.00  0.00    -0.164 C  
HETATM    9  O   UNL     1     -10.659  10.016  67.004  1.00  0.00    -0.240 OA 
HETATM   10  H   UNL     1     -11.353   9.411  66.771  1.00  0.00     0.000 HD 
BRANCH   8  11
HETATM   11  C   UNL     1     -10.635   9.046  69.196  1.00  0.00    -0.219 A  
HETATM   12  C   UNL     1     -11.337  10.016  69.938  1.00  0.00    -0.306 A  
HETATM   13  C   UNL     1     -12.046   9.646  71.073  1.00  0.00    -0.337 A  
HETATM   14  C   UNL     1     -12.079   8.316  71.477  1.00  0.00    -0.299 A  
HETATM   15  O   UNL     1     -12.719  10.561  71.834  1.00  0.00    -0.419 OA 
HETATM   16  H   UNL     1     -13.204  10.308  72.610  1.00  0.00     0.000 HD 
HETATM   17  O   UNL     1     -12.768   7.961  72.599  1.00  0.00    -0.555 OA 
HETATM   18  C   UNL     1     -11.412   7.339  70.752  1.00  0.00    -0.328 A  
HETATM   19  C   UNL     1     -10.686   7.704  69.614  1.00  0.00    -0.230 A  
HETATM   20  H   UNL     1     -12.790   7.052  72.875  1.00  0.00     0.000 HD 
ENDBRANCH   8  11
ENDBRANCH   4   8
TORSDOF 2
ENDMDL
MODEL      214
REMARK 921   NORMALIZED FREE ENERGY PREDICTED BY IDOCK:   -3.22 KCAL/MOL
REMARK 922        TOTAL FREE ENERGY PREDICTED BY IDOCK:   -3.86 KCAL/MOL
REMARK 923 INTER-LIGAND FREE ENERGY PREDICTED BY IDOCK:   -4.08 KCAL/MOL
REMARK 924 INTRA-LIGAND FREE ENERGY PREDICTED BY IDOCK:    0.22 KCAL/MOL
REMARK 927      BINDING AFFINITY PREDICTED BY RF-SCORE:    0.00 PKD
ROOT
HETATM    1  N   UNL     1      -9.794  19.996  66.507  1.00  0.00    -0.430 NA 
HETATM    2  H1  UNL     1      -9.481  20.206  65.559  1.00  0.00     0.000 HD 
HETATM    3  H2  UNL     1      -9.131  20.301  67.220  1.00  0.00     0.000 HD 
HETATM    4  CA  UNL     1     -10.090  18.518  66.576  1.00  0.00    -0.400 C  
HETATM    5  OXT UNL     1     -10.982  17.121  68.376  1.00  0.00    -0.337 OA 
HETATM    6  C   UNL     1     -10.559  18.202  68.001  1.00  0.00    -0.341 C  
HETATM    7  O   UNL     1     -10.468  19.293  68.809  1.00  0.00    -0.246 OA 
ENDROOT
BRANCH   4   8
HETATM    8  C   UNL     1      -8.911  17.568  66.226  1.00  0.00    -0.191 C  
HETATM    9  O   UNL     1      -9.402  16.292  65.801  1.00  0.00    -0.442 OA 
HETATM   10  H   UNL     1      -8.681  15.712  65.587  1.00  0.00     0.000 HD 
BRANCH   8  11
HETATM   11  C   UNL     1      -7.982  17.358  67.412  1.00  0.00    -0.212 A  
HETATM   12  C   UNL     1      -7.999  16.154  68.143  1.00  0.00    -0.148 A  
HETATM   13  C   UNL     1      -7.186  16.006  69.260  1.00  0.00    -0.226 A  
HETATM   14  C   UNL     1      -6.343  17.039  69.655  1.00  0.00    -0.215 A  
HETATM   15  O   UNL     1      -7.193  14.863  70.010  1.00  0.00    -0.299 OA 
HETATM   16  H   UNL     1      -6.638  14.762  70.774  1.00  0.00     0.000 HD 
HETATM   17  O   UNL     1      -5.557  16.891  70.760  1.00  0.00    -0.146 OA 
HETATM   18  C   UNL     1      -6.293  18.226  68.940  1.00  0.00    -0.227 A  
HETATM   19  C   UNL     1      -7.116  18.388  67.821  1.00  0.00    -0.221 A  
HETATM   20  H   UNL     1      -4.980  17.596  71.030  1.00  0.00     0.000 HD 
ENDBRANCH   8  11
ENDBRANCH   4   8
TORSDOF 2
ENDMDL
MODEL      215
REMARK 921   NORMALIZED FREE ENERGY PREDICTED BY IDOCK:   -3.20 KCAL/MOL
REMARK 922        TOTAL FREE ENERGY PREDICTED BY IDOCK:   -3.85 KCAL/MOL
REMARK 923 INTER-LIGAND FREE ENERGY PREDICTED BY IDOCK:   -3.80 KCAL/MOL
REMARK 924 INTRA-LIGAND FREE ENERGY PREDICTED BY IDOCK:   -0.04 KCAL/MOL
REMARK 927      BINDING AFFINITY PREDICTED BY RF-SCORE:    0.00 PKD
ROOT
HETATM    1  N   UNL     1      -9.543  14.323  65.641  1.00  0.00    -0.535 NA 
HETATM    2  H1  UNL     1      -9.067  14.844  64.904  1.00  0.00     0.000 HD 
HETATM    3  H2  UNL     1     -10.368  14.805  65.997  1.00  0.00     0.000 HD 
HETATM    4  CA  UNL     1      -8.530  14.020  66.718  1.00  0.00     0.010 C  
HETATM    5  OXT UNL     1      -8.701  12.742  68.797  1.00  0.00     0.004 OA 
HETATM    6  C   UNL     1      -9.246  13.238  67.825  1.00  0.00    -0.209 C  
HETATM    7  O   UNL     1     -10.581  13.141  67.583  1.00  0.00    -0.224 OA 
ENDROOT
BRANCH   4   8
HETATM    8  C   UNL     1      -7.828  15.249  67.360  1.00  0.00    -0.194 C  
HETATM    9  O   UNL     1      -7.538  14.998  68.739  1.00  0.00    -0.120 OA 
HETATM   10  H   UNL     1      -7.109  15.749  69.132  1.00  0.00     0.000 HD 
BRANCH   8  11
HETATM   11  C   UNL     1      -8.684  16.503  67.266  1.00  0.00    -0.204 A  
HETATM   12  C   UNL     1      -8.286  17.595  66.469  1.00  0.00    -0.307 A  
HETATM   13  C   UNL     1      -9.050  18.754  66.445  1.00  0.00    -0.300 A  
HETATM   14  C   UNL     1     -10.218  18.840  67.196  1.00  0.00    -0.386 A  
HETATM   15  O   UNL     1      -8.684  19.844  65.706  1.00  0.00    -0.439 OA 
HETATM   16  H   UNL     1      -9.207  20.637  65.690  1.00  0.00     0.000 HD 
HETATM   17  O   UNL     1     -10.958  19.986  67.177  1.00  0.00    -0.283 OA 
HETATM   18  C   UNL     1     -10.641  17.771  67.972  1.00  0.00    -0.372 A  
HETATM   19  C   UNL     1      -9.872  16.604  68.011  1.00  0.00    -0.245 A  
HETATM   20  H   UNL     1     -11.755  20.044  67.689  1.00  0.00     0.000 HD 
ENDBRANCH   8  11
ENDBRANCH   4   8
TORSDOF 2
ENDMDL
MODEL      216
REMARK 921   NORMALIZED FREE ENERGY PREDICTED BY IDOCK:   -3.18 KCAL/MOL
REMARK 922        TOTAL FREE ENERGY PREDICTED BY IDOCK:   -3.83 KCAL/MOL
REMARK 923 INTER-LIGAND FREE ENERGY PREDICTED BY IDOCK:   -4.15 KCAL/MOL
REMARK 924 INTRA-LIGAND FREE ENERGY PREDICTED BY IDOCK:    0.33 KCAL/MOL
REMARK 927      BINDING AFFINITY PREDICTED BY RF-SCORE:    0.00 PKD
ROOT
HETATM    1  N   UNL     1     -10.681  15.983  67.757  1.00  0.00    -0.316 NA 
HETATM    2  H1  UNL     1     -11.048  15.031  67.762  1.00  0.00     0.000 HD 
HETATM    3  H2  UNL     1     -10.753  16.431  66.843  1.00  0.00     0.000 HD 
HETATM    4  CA  UNL     1      -9.265  15.932  68.276  1.00  0.00    -0.189 C  
HETATM    5  OXT UNL     1      -7.634  17.700  68.723  1.00  0.00    -0.262 OA 
HETATM    6  C   UNL     1      -8.714  17.363  68.268  1.00  0.00    -0.261 C  
HETATM    7  O   UNL     1      -9.595  18.233  67.703  1.00  0.00    -0.275 OA 
ENDROOT
BRANCH   4   8
HETATM    8  C   UNL     1      -8.282  15.023  67.488  1.00  0.00    -0.182 C  
HETATM    9  O   UNL     1      -7.361  15.816  66.731  1.00  0.00    -0.183 OA 
HETATM   10  H   UNL     1      -6.759  15.260  66.250  1.00  0.00     0.000 HD 
BRANCH   8  11
HETATM   11  C   UNL     1      -9.013  14.090  66.535  1.00  0.00    -0.119 A  
HETATM   12  C   UNL     1      -9.891  14.595  65.556  1.00  0.00    -0.327 A  
HETATM   13  C   UNL     1     -10.596  13.723  64.736  1.00  0.00    -0.428 A  
HETATM   14  C   UNL     1     -10.430  12.349  64.868  1.00  0.00    -0.298 A  
HETATM   15  O   UNL     1     -11.477  14.173  63.793  1.00  0.00    -0.566 OA 
HETATM   16  H   UNL     1     -11.959  13.576  63.233  1.00  0.00     0.000 HD 
HETATM   17  O   UNL     1     -11.135  11.497  64.068  1.00  0.00    -0.365 OA 
HETATM   18  C   UNL     1      -9.556  11.828  65.811  1.00  0.00    -0.253 A  
HETATM   19  C   UNL     1      -8.850  12.698  66.648  1.00  0.00    -0.129 A  
HETATM   20  H   UNL     1     -11.021  10.558  64.158  1.00  0.00     0.000 HD 
ENDBRANCH   8  11
ENDBRANCH   4   8
TORSDOF 2
ENDMDL
MODEL      217
REMARK 921   NORMALIZED FREE ENERGY PREDICTED BY IDOCK:   -3.17 KCAL/MOL
REMARK 922        TOTAL FREE ENERGY PREDICTED BY IDOCK:   -3.81 KCAL/MOL
REMARK 923 INTER-LIGAND FREE ENERGY PREDICTED BY IDOCK:   -3.71 KCAL/MOL
REMARK 924 INTRA-LIGAND FREE ENERGY PREDICTED BY IDOCK:   -0.10 KCAL/MOL
REMARK 927      BINDING AFFINITY PREDICTED BY RF-SCORE:    0.00 PKD
ROOT
HETATM    1  N   UNL     1     -11.314  19.328  68.155  1.00  0.00     0.177 NA 
HETATM    2  H1  UNL     1     -11.457  20.305  68.411  1.00  0.00     0.000 HD 
HETATM    3  H2  UNL     1     -10.736  18.823  68.827  1.00  0.00     0.000 HD 
HETATM    4  CA  UNL     1     -10.748  19.298  66.756  1.00  0.00    -0.431 C  
HETATM    5  OXT UNL     1     -10.186  17.437  65.270  1.00  0.00    -0.522 OA 
HETATM    6  C   UNL     1     -10.532  17.829  66.372  1.00  0.00    -0.297 C  
HETATM    7  O   UNL     1     -10.797  16.997  67.416  1.00  0.00    -0.281 OA 
ENDROOT
BRANCH   4   8
HETATM    8  C   UNL     1      -9.412  20.062  66.543  1.00  0.00    -0.404 C  
HETATM    9  O   UNL     1      -9.120  20.185  65.147  1.00  0.00    -0.120 OA 
HETATM   10  H   UNL     1      -8.304  20.653  65.017  1.00  0.00     0.000 HD 
BRANCH   8  11
HETATM   11  C   UNL     1      -8.244  19.361  67.221  1.00  0.00    -0.311 A  
HETATM   12  C   UNL     1      -7.247  18.714  66.464  1.00  0.00    -0.252 A  
HETATM   13  C   UNL     1      -6.223  18.028  67.104  1.00  0.00    -0.156 A  
HETATM   14  C   UNL     1      -6.168  17.985  68.492  1.00  0.00    -0.197 A  
HETATM   15  O   UNL     1      -5.252  17.366  66.405  1.00  0.00    -0.168 OA 
HETATM   16  H   UNL     1      -4.552  16.897  66.842  1.00  0.00     0.000 HD 
HETATM   17  O   UNL     1      -5.166  17.299  69.114  1.00  0.00    -0.147 OA 
HETATM   18  C   UNL     1      -7.126  18.630  69.260  1.00  0.00    -0.189 A  
HETATM   19  C   UNL     1      -8.168  19.315  68.625  1.00  0.00    -0.408 A  
HETATM   20  H   UNL     1      -5.129  17.269  70.062  1.00  0.00     0.000 HD 
ENDBRANCH   8  11
ENDBRANCH   4   8
TORSDOF 2
ENDMDL
MODEL      218
REMARK 921   NORMALIZED FREE ENERGY PREDICTED BY IDOCK:   -3.16 KCAL/MOL
REMARK 922        TOTAL FREE ENERGY PREDICTED BY IDOCK:   -3.80 KCAL/MOL
REMARK 923 INTER-LIGAND FREE ENERGY PREDICTED BY IDOCK:   -3.53 KCAL/MOL
REMARK 924 INTRA-LIGAND FREE ENERGY PREDICTED BY IDOCK:   -0.28 KCAL/MOL
REMARK 927      BINDING AFFINITY PREDICTED BY RF-SCORE:    0.00 PKD
ROOT
HETATM    1  N   UNL     1      -9.447   7.911  71.594  1.00  0.00    -0.147 NA 
HETATM    2  H1  UNL     1      -8.743   7.932  70.855  1.00  0.00     0.000 HD 
HETATM    3  H2  UNL     1      -9.417   7.053  72.145  1.00  0.00     0.000 HD 
HETATM    4  CA  UNL     1     -10.792   8.149  70.953  1.00  0.00    -0.230 C  
HETATM    5  OXT UNL     1     -13.032   8.377  71.912  1.00  0.00    -0.329 OA 
HETATM    6  C   UNL     1     -11.850   8.116  72.063  1.00  0.00    -0.338 C  
HETATM    7  O   UNL     1     -11.303   7.777  73.262  1.00  0.00    -0.321 OA 
ENDROOT
BRANCH   4   8
HETATM    8  C   UNL     1     -11.210   7.140  69.848  1.00  0.00    -0.208 C  
HETATM    9  O   UNL     1     -11.117   5.796  70.331  1.00  0.00    -0.298 OA 
HETATM   10  H   UNL     1     -11.373   5.179  69.656  1.00  0.00     0.000 HD 
BRANCH   8  11
HETATM   11  C   UNL     1     -10.341   7.269  68.606  1.00  0.00    -0.208 A  
HETATM   12  C   UNL     1     -10.517   8.337  67.704  1.00  0.00    -0.303 A  
HETATM   13  C   UNL     1      -9.754   8.402  66.545  1.00  0.00    -0.260 A  
HETATM   14  C   UNL     1      -8.806   7.423  66.274  1.00  0.00    -0.159 A  
HETATM   15  O   UNL     1      -9.914   9.408  65.633  1.00  0.00    -0.380 OA 
HETATM   16  H   UNL     1      -9.393   9.452  64.840  1.00  0.00     0.000 HD 
HETATM   17  O   UNL     1      -8.069   7.486  65.128  1.00  0.00    -0.122 OA 
HETATM   18  C   UNL     1      -8.599   6.372  67.156  1.00  0.00    -0.111 A  
HETATM   19  C   UNL     1      -9.370   6.292  68.320  1.00  0.00    -0.112 A  
HETATM   20  H   UNL     1      -7.420   6.817  64.943  1.00  0.00     0.000 HD 
ENDBRANCH   8  11
ENDBRANCH   4   8
TORSDOF 2
ENDMDL
MODEL      219
REMARK 921   NORMALIZED FREE ENERGY PREDICTED BY IDOCK:   -3.15 KCAL/MOL
REMARK 922        TOTAL FREE ENERGY PREDICTED BY IDOCK:   -3.79 KCAL/MOL
REMARK 923 INTER-LIGAND FREE ENERGY PREDICTED BY IDOCK:   -3.38 KCAL/MOL
REMARK 924 INTRA-LIGAND FREE ENERGY PREDICTED BY IDOCK:   -0.41 KCAL/MOL
REMARK 927      BINDING AFFINITY PREDICTED BY RF-SCORE:    0.00 PKD
ROOT
HETATM    1  N   UNL     1      -8.002   5.473  66.797  1.00  0.00    -0.101 NA 
HETATM    2  H1  UNL     1      -7.951   5.640  67.802  1.00  0.00     0.000 HD 
HETATM    3  H2  UNL     1      -8.103   6.332  66.257  1.00  0.00     0.000 HD 
HETATM    4  CA  UNL     1      -9.121   4.491  66.551  1.00  0.00    -0.119 C  
HETATM    5  OXT UNL     1      -9.920   3.418  64.502  1.00  0.00    -0.168 OA 
HETATM    6  C   UNL     1      -9.197   4.240  65.040  1.00  0.00    -0.155 C  
HETATM    7  O   UNL     1      -8.334   5.041  64.358  1.00  0.00    -0.124 OA 
ENDROOT
BRANCH   4   8
HETATM    8  C   UNL     1     -10.528   4.920  67.049  1.00  0.00    -0.102 C  
HETATM    9  O   UNL     1     -11.172   5.755  66.080  1.00  0.00    -0.735 OA 
HETATM   10  H   UNL     1     -12.033   6.017  66.384  1.00  0.00     0.000 HD 
BRANCH   8  11
HETATM   11  C   UNL     1     -10.457   5.675  68.367  1.00  0.00    -0.263 A  
HETATM   12  C   UNL     1     -10.275   4.992  69.586  1.00  0.00    -0.306 A  
HETATM   13  C   UNL     1     -10.274   5.695  70.784  1.00  0.00    -0.227 A  
HETATM   14  C   UNL     1     -10.439   7.075  70.787  1.00  0.00    -0.212 A  
HETATM   15  O   UNL     1     -10.127   5.065  71.989  1.00  0.00    -0.183 OA 
HETATM   16  H   UNL     1     -10.127   5.546  72.808  1.00  0.00     0.000 HD 
HETATM   17  O   UNL     1     -10.449   7.757  71.969  1.00  0.00    -0.207 OA 
HETATM   18  C   UNL     1     -10.599   7.773  69.599  1.00  0.00    -0.242 A  
HETATM   19  C   UNL     1     -10.612   7.072  68.389  1.00  0.00    -0.240 A  
HETATM   20  H   UNL     1     -10.561   8.701  71.971  1.00  0.00     0.000 HD 
ENDBRANCH   8  11
ENDBRANCH   4   8
TORSDOF 2
ENDMDL
MODEL      220
REMARK 921   NORMALIZED FREE ENERGY PREDICTED BY IDOCK:   -3.09 KCAL/MOL
REMARK 922        TOTAL FREE ENERGY PREDICTED BY IDOCK:   -3.72 KCAL/MOL
REMARK 923 INTER-LIGAND FREE ENERGY PREDICTED BY IDOCK:   -3.43 KCAL/MOL
REMARK 924 INTRA-LIGAND FREE ENERGY PREDICTED BY IDOCK:   -0.28 KCAL/MOL
REMARK 927      BINDING AFFINITY PREDICTED BY RF-SCORE:    0.00 PKD
ROOT
HETATM    1  N   UNL     1      -7.700   6.715  66.890  1.00  0.00    -0.104 NA 
HETATM    2  H1  UNL     1      -7.516   5.960  67.550  1.00  0.00     0.000 HD 
HETATM    3  H2  UNL     1      -6.872   7.276  66.689  1.00  0.00     0.000 HD 
HETATM    4  CA  UNL     1      -8.844   7.533  67.436  1.00  0.00    -0.127 C  
HETATM    5  OXT UNL     1     -10.050   9.456  66.520  1.00  0.00    -0.247 OA 
HETATM    6  C   UNL     1      -9.121   8.669  66.443  1.00  0.00    -0.174 C  
HETATM    7  O   UNL     1      -8.206   8.684  65.436  1.00  0.00    -0.119 OA 
ENDROOT
BRANCH   4   8
HETATM    8  C   UNL     1      -8.630   8.154  68.844  1.00  0.00    -0.130 C  
HETATM    9  O   UNL     1      -7.336   7.812  69.352  1.00  0.00    -0.081 OA 
HETATM   10  H   UNL     1      -7.204   8.192  70.213  1.00  0.00     0.000 HD 
BRANCH   8  11
HETATM   11  C   UNL     1      -9.680   7.680  69.838  1.00  0.00    -0.175 A  
HETATM   12  C   UNL     1      -9.507   7.871  71.223  1.00  0.00    -0.184 A  
HETATM   13  C   UNL     1     -10.448   7.377  72.117  1.00  0.00    -0.209 A  
HETATM   14  C   UNL     1     -11.571   6.704  71.650  1.00  0.00    -0.304 A  
HETATM   15  O   UNL     1     -10.303   7.519  73.468  1.00  0.00    -0.345 OA 
HETATM   16  H   UNL     1     -10.946   7.181  74.079  1.00  0.00     0.000 HD 
HETATM   17  O   UNL     1     -12.486   6.210  72.534  1.00  0.00    -0.552 OA 
HETATM   18  C   UNL     1     -11.775   6.521  70.291  1.00  0.00    -0.430 A  
HETATM   19  C   UNL     1     -10.827   7.005  69.383  1.00  0.00    -0.253 A  
HETATM   20  H   UNL     1     -13.254   5.750  72.216  1.00  0.00     0.000 HD 
ENDBRANCH   8  11
ENDBRANCH   4   8
TORSDOF 2
ENDMDL
MODEL      221
REMARK 921   NORMALIZED FREE ENERGY PREDICTED BY IDOCK:   -3.08 KCAL/MOL
REMARK 922        TOTAL FREE ENERGY PREDICTED BY IDOCK:   -3.71 KCAL/MOL
REMARK 923 INTER-LIGAND FREE ENERGY PREDICTED BY IDOCK:   -3.48 KCAL/MOL
REMARK 924 INTRA-LIGAND FREE ENERGY PREDICTED BY IDOCK:   -0.23 KCAL/MOL
REMARK 927      BINDING AFFINITY PREDICTED BY RF-SCORE:    0.00 PKD
ROOT
HETATM    1  N   UNL     1     -10.195   9.038  67.204  1.00  0.00    -0.243 NA 
HETATM    2  H1  UNL     1      -9.945   8.612  66.311  1.00  0.00     0.000 HD 
HETATM    3  H2  UNL     1      -9.478   9.672  67.555  1.00  0.00     0.000 HD 
HETATM    4  CA  UNL     1     -10.517   7.924  68.170  1.00  0.00    -0.173 C  
HETATM    5  OXT UNL     1     -11.310   7.958  70.484  1.00  0.00    -0.273 OA 
HETATM    6  C   UNL     1     -10.892   8.565  69.512  1.00  0.00    -0.125 C  
HETATM    7  O   UNL     1     -10.722   9.914  69.484  1.00  0.00    -0.216 OA 
ENDROOT
BRANCH   4   8
HETATM    8  C   UNL     1      -9.385   6.889  68.420  1.00  0.00    -0.129 C  
HETATM    9  O   UNL     1      -8.102   7.518  68.342  1.00  0.00    -0.121 OA 
HETATM   10  H   UNL     1      -7.410   6.885  68.495  1.00  0.00     0.000 HD 
BRANCH   8  11
HETATM   11  C   UNL     1      -9.427   5.750  67.412  1.00  0.00    -0.112 A  
HETATM   12  C   UNL     1     -10.523   5.592  66.541  1.00  0.00    -0.331 A  
HETATM   13  C   UNL     1     -10.571   4.510  65.671  1.00  0.00    -0.194 A  
HETATM   14  C   UNL     1      -9.532   3.585  65.645  1.00  0.00    -0.142 A  
HETATM   15  O   UNL     1     -11.628   4.307  64.829  1.00  0.00    -0.963 OA 
HETATM   16  H   UNL     1     -11.661   3.568  64.234  1.00  0.00     0.000 HD 
HETATM   17  O   UNL     1      -9.591   2.519  64.796  1.00  0.00    -0.250 OA 
HETATM   18  C   UNL     1      -8.433   3.731  66.478  1.00  0.00    -0.106 A  
HETATM   19  C   UNL     1      -8.382   4.810  67.366  1.00  0.00    -0.105 A  
HETATM   20  H   UNL     1      -8.882   1.887  64.779  1.00  0.00     0.000 HD 
ENDBRANCH   8  11
ENDBRANCH   4   8
TORSDOF 2
ENDMDL
MODEL      222
REMARK 921   NORMALIZED FREE ENERGY PREDICTED BY IDOCK:   -3.08 KCAL/MOL
REMARK 922        TOTAL FREE ENERGY PREDICTED BY IDOCK:   -3.71 KCAL/MOL
REMARK 923 INTER-LIGAND FREE ENERGY PREDICTED BY IDOCK:   -3.41 KCAL/MOL
REMARK 924 INTRA-LIGAND FREE ENERGY PREDICTED BY IDOCK:   -0.30 KCAL/MOL
REMARK 927      BINDING AFFINITY PREDICTED BY RF-SCORE:    0.00 PKD
ROOT
HETATM    1  N   UNL     1     -10.012   3.772  67.665  1.00  0.00    -0.096 NA 
HETATM    2  H1  UNL     1     -10.888   4.187  67.982  1.00  0.00     0.000 HD 
HETATM    3  H2  UNL     1      -9.549   3.225  68.391  1.00  0.00     0.000 HD 
HETATM    4  CA  UNL     1      -9.145   4.882  67.125  1.00  0.00    -0.119 C  
HETATM    5  OXT UNL     1      -6.942   4.852  66.061  1.00  0.00    -0.063 OA 
HETATM    6  C   UNL     1      -7.828   4.256  66.650  1.00  0.00    -0.098 C  
HETATM    7  O   UNL     1      -7.771   2.930  66.949  1.00  0.00    -0.074 OA 
ENDROOT
BRANCH   4   8
HETATM    8  C   UNL     1      -8.813   6.033  68.114  1.00  0.00    -0.111 C  
HETATM    9  O   UNL     1      -7.446   5.959  68.531  1.00  0.00    -0.082 OA 
HETATM   10  H   UNL     1      -7.242   6.663  69.135  1.00  0.00     0.000 HD 
BRANCH   8  11
HETATM   11  C   UNL     1      -9.699   5.990  69.350  1.00  0.00    -0.176 A  
HETATM   12  C   UNL     1     -10.952   6.634  69.368  1.00  0.00    -0.361 A  
HETATM   13  C   UNL     1     -11.717   6.636  70.527  1.00  0.00    -0.394 A  
HETATM   14  C   UNL     1     -11.259   5.991  71.670  1.00  0.00    -0.268 A  
HETATM   15  O   UNL     1     -12.926   7.271  70.592  1.00  0.00    -0.601 OA 
HETATM   16  H   UNL     1     -13.449   7.272  71.384  1.00  0.00     0.000 HD 
HETATM   17  O   UNL     1     -12.011   6.006  72.809  1.00  0.00    -0.520 OA 
HETATM   18  C   UNL     1     -10.038   5.332  71.672  1.00  0.00    -0.259 A  
HETATM   19  C   UNL     1      -9.255   5.335  70.513  1.00  0.00    -0.187 A  
HETATM   20  H   UNL     1     -11.698   5.566  73.590  1.00  0.00     0.000 HD 
ENDBRANCH   8  11
ENDBRANCH   4   8
TORSDOF 2
ENDMDL
MODEL      223
REMARK 921   NORMALIZED FREE ENERGY PREDICTED BY IDOCK:   -3.08 KCAL/MOL
REMARK 922        TOTAL FREE ENERGY PREDICTED BY IDOCK:   -3.70 KCAL/MOL
REMARK 923 INTER-LIGAND FREE ENERGY PREDICTED BY IDOCK:   -3.46 KCAL/MOL
REMARK 924 INTRA-LIGAND FREE ENERGY PREDICTED BY IDOCK:   -0.24 KCAL/MOL
REMARK 927      BINDING AFFINITY PREDICTED BY RF-SCORE:    0.00 PKD
ROOT
HETATM    1  N   UNL     1     -10.695  14.027  64.213  1.00  0.00    -0.576 NA 
HETATM    2  H1  UNL     1     -10.181  14.872  64.464  1.00  0.00     0.000 HD 
HETATM    3  H2  UNL     1     -11.706  14.143  64.285  1.00  0.00     0.000 HD 
HETATM    4  CA  UNL     1     -10.172  12.900  65.069  1.00  0.00    -0.269 C  
HETATM    5  OXT UNL     1     -10.706  10.512  65.114  1.00  0.00    -0.153 OA 
HETATM    6  C   UNL     1     -10.947  11.631  64.691  1.00  0.00    -0.301 C  
HETATM    7  O   UNL     1     -11.938  11.899  63.799  1.00  0.00    -0.441 OA 
ENDROOT
BRANCH   4   8
HETATM    8  C   UNL     1     -10.280  13.102  66.605  1.00  0.00    -0.259 C  
HETATM    9  O   UNL     1     -11.150  14.197  66.909  1.00  0.00    -0.296 OA 
HETATM   10  H   UNL     1     -11.216  14.321  67.849  1.00  0.00     0.000 HD 
BRANCH   8  11
HETATM   11  C   UNL     1      -8.923  13.372  67.237  1.00  0.00    -0.221 A  
HETATM   12  C   UNL     1      -8.314  12.423  68.082  1.00  0.00    -0.178 A  
HETATM   13  C   UNL     1      -7.103  12.714  68.698  1.00  0.00    -0.096 A  
HETATM   14  C   UNL     1      -6.480  13.937  68.475  1.00  0.00    -0.093 A  
HETATM   15  O   UNL     1      -6.494  11.831  69.544  1.00  0.00    -0.107 OA 
HETATM   16  H   UNL     1      -5.666  12.030  69.965  1.00  0.00     0.000 HD 
HETATM   17  O   UNL     1      -5.297  14.222  69.093  1.00  0.00    -0.078 OA 
HETATM   18  C   UNL     1      -7.050  14.880  67.632  1.00  0.00    -0.208 A  
HETATM   19  C   UNL     1      -8.274  14.600  67.016  1.00  0.00    -0.188 A  
HETATM   20  H   UNL     1      -4.872  15.057  68.941  1.00  0.00     0.000 HD 
ENDBRANCH   8  11
ENDBRANCH   4   8
TORSDOF 2
ENDMDL
MODEL      224
REMARK 921   NORMALIZED FREE ENERGY PREDICTED BY IDOCK:   -3.07 KCAL/MOL
REMARK 922        TOTAL FREE ENERGY PREDICTED BY IDOCK:   -3.70 KCAL/MOL
REMARK 923 INTER-LIGAND FREE ENERGY PREDICTED BY IDOCK:   -3.53 KCAL/MOL
REMARK 924 INTRA-LIGAND FREE ENERGY PREDICTED BY IDOCK:   -0.17 KCAL/MOL
REMARK 927      BINDING AFFINITY PREDICTED BY RF-SCORE:    0.00 PKD
ROOT
HETATM    1  N   UNL     1      -7.301  11.145  68.225  1.00  0.00    -0.085 NA 
HETATM    2  H1  UNL     1      -8.137  10.931  67.682  1.00  0.00     0.000 HD 
HETATM    3  H2  UNL     1      -6.440  10.872  67.750  1.00  0.00     0.000 HD 
HETATM    4  CA  UNL     1      -7.453  10.498  69.579  1.00  0.00    -0.146 C  
HETATM    5  OXT UNL     1      -6.032  10.541  71.571  1.00  0.00    -0.316 OA 
HETATM    6  C   UNL     1      -6.195  10.819  70.394  1.00  0.00    -0.127 C  
HETATM    7  O   UNL     1      -5.272  11.482  69.645  1.00  0.00    -0.055 OA 
ENDROOT
BRANCH   4   8
HETATM    8  C   UNL     1      -7.659   8.958  69.581  1.00  0.00    -0.072 C  
HETATM    9  O   UNL     1      -7.858   8.475  68.248  1.00  0.00    -0.103 OA 
HETATM   10  H   UNL     1      -7.983   7.533  68.249  1.00  0.00     0.000 HD 
BRANCH   8  11
HETATM   11  C   UNL     1      -8.854   8.547  70.428  1.00  0.00    -0.157 A  
HETATM   12  C   UNL     1      -9.993   7.960  69.840  1.00  0.00    -0.192 A  
HETATM   13  C   UNL     1     -11.098   7.650  70.622  1.00  0.00    -0.257 A  
HETATM   14  C   UNL     1     -11.083   7.903  71.989  1.00  0.00    -0.278 A  
HETATM   15  O   UNL     1     -12.230   7.104  70.085  1.00  0.00    -0.586 OA 
HETATM   16  H   UNL     1     -12.986   6.891  70.620  1.00  0.00     0.000 HD 
HETATM   17  O   UNL     1     -12.176   7.606  72.749  1.00  0.00    -0.573 OA 
HETATM   18  C   UNL     1      -9.966   8.461  72.594  1.00  0.00    -0.329 A  
HETATM   19  C   UNL     1      -8.853   8.788  71.813  1.00  0.00    -0.256 A  
HETATM   20  H   UNL     1     -12.166   7.779  73.683  1.00  0.00     0.000 HD 
ENDBRANCH   8  11
ENDBRANCH   4   8
TORSDOF 2
ENDMDL
MODEL      225
REMARK 921   NORMALIZED FREE ENERGY PREDICTED BY IDOCK:   -3.05 KCAL/MOL
REMARK 922        TOTAL FREE ENERGY PREDICTED BY IDOCK:   -3.67 KCAL/MOL
REMARK 923 INTER-LIGAND FREE ENERGY PREDICTED BY IDOCK:   -3.53 KCAL/MOL
REMARK 924 INTRA-LIGAND FREE ENERGY PREDICTED BY IDOCK:   -0.14 KCAL/MOL
REMARK 927      BINDING AFFINITY PREDICTED BY RF-SCORE:    0.00 PKD
ROOT
HETATM    1  N   UNL     1      -9.772   8.152  66.219  1.00  0.00    -0.409 NA 
HETATM    2  H1  UNL     1      -9.030   8.770  65.888  1.00  0.00     0.000 HD 
HETATM    3  H2  UNL     1     -10.601   8.659  66.529  1.00  0.00     0.000 HD 
HETATM    4  CA  UNL     1      -9.189   7.270  67.295  1.00  0.00    -0.131 C  
HETATM    5  OXT UNL     1     -10.153   5.428  68.587  1.00  0.00    -0.161 OA 
HETATM    6  C   UNL     1     -10.304   6.342  67.793  1.00  0.00    -0.193 C  
HETATM    7  O   UNL     1     -11.499   6.648  67.219  1.00  0.00    -0.206 OA 
ENDROOT
BRANCH   4   8
HETATM    8  C   UNL     1      -8.576   8.001  68.521  1.00  0.00    -0.128 C  
HETATM    9  O   UNL     1      -8.195   7.060  69.530  1.00  0.00    -0.128 OA 
HETATM   10  H   UNL     1      -7.820   7.507  70.280  1.00  0.00     0.000 HD 
BRANCH   8  11
HETATM   11  C   UNL     1      -9.550   8.997  69.131  1.00  0.00    -0.161 A  
HETATM   12  C   UNL     1     -10.302   8.668  70.277  1.00  0.00    -0.217 A  
HETATM   13  C   UNL     1     -11.231   9.569  70.782  1.00  0.00    -0.317 A  
HETATM   14  C   UNL     1     -11.416  10.803  70.169  1.00  0.00    -0.331 A  
HETATM   15  O   UNL     1     -11.998   9.276  71.875  1.00  0.00    -0.362 OA 
HETATM   16  H   UNL     1     -12.633   9.892  72.220  1.00  0.00     0.000 HD 
HETATM   17  O   UNL     1     -12.338  11.678  70.664  1.00  0.00    -0.359 OA 
HETATM   18  C   UNL     1     -10.674  11.158  69.053  1.00  0.00    -0.265 A  
HETATM   19  C   UNL     1      -9.744  10.254  68.530  1.00  0.00    -0.167 A  
HETATM   20  H   UNL     1     -12.465  12.522  70.245  1.00  0.00     0.000 HD 
ENDBRANCH   8  11
ENDBRANCH   4   8
TORSDOF 2
ENDMDL
MODEL      226
REMARK 921   NORMALIZED FREE ENERGY PREDICTED BY IDOCK:   -3.05 KCAL/MOL
REMARK 922        TOTAL FREE ENERGY PREDICTED BY IDOCK:   -3.67 KCAL/MOL
REMARK 923 INTER-LIGAND FREE ENERGY PREDICTED BY IDOCK:   -3.45 KCAL/MOL
REMARK 924 INTRA-LIGAND FREE ENERGY PREDICTED BY IDOCK:   -0.22 KCAL/MOL
REMARK 927      BINDING AFFINITY PREDICTED BY RF-SCORE:    0.00 PKD
ROOT
HETATM    1  N   UNL     1     -10.359  11.045  68.683  1.00  0.00    -0.185 NA 
HETATM    2  H1  UNL     1      -9.617  10.555  68.185  1.00  0.00     0.000 HD 
HETATM    3  H2  UNL     1     -11.291  10.710  68.436  1.00  0.00     0.000 HD 
HETATM    4  CA  UNL     1     -10.182  12.522  68.434  1.00  0.00    -0.228 C  
HETATM    5  OXT UNL     1     -11.393  14.471  69.286  1.00  0.00    -0.257 OA 
HETATM    6  C   UNL     1     -11.299  13.259  69.184  1.00  0.00    -0.282 C  
HETATM    7  O   UNL     1     -12.177  12.388  69.751  1.00  0.00    -0.232 OA 
ENDROOT
BRANCH   4   8
HETATM    8  C   UNL     1     -10.210  12.973  66.948  1.00  0.00    -0.244 C  
HETATM    9  O   UNL     1     -11.535  13.350  66.561  1.00  0.00    -0.317 OA 
HETATM   10  H   UNL     1     -11.552  13.625  65.652  1.00  0.00     0.000 HD 
BRANCH   8  11
HETATM   11  C   UNL     1      -9.727  11.873  66.014  1.00  0.00    -0.257 A  
HETATM   12  C   UNL     1      -8.462  11.277  66.187  1.00  0.00    -0.135 A  
HETATM   13  C   UNL     1      -8.016  10.318  65.286  1.00  0.00    -0.148 A  
HETATM   14  C   UNL     1      -8.819   9.931  64.219  1.00  0.00    -0.225 A  
HETATM   15  O   UNL     1      -6.785   9.736  65.405  1.00  0.00    -0.082 OA 
HETATM   16  H   UNL     1      -6.480   9.080  64.789  1.00  0.00     0.000 HD 
HETATM   17  O   UNL     1      -8.369   8.997  63.332  1.00  0.00    -0.178 OA 
HETATM   18  C   UNL     1     -10.076  10.488  64.039  1.00  0.00    -0.321 A  
HETATM   19  C   UNL     1     -10.529  11.463  64.934  1.00  0.00    -0.363 A  
HETATM   20  H   UNL     1      -8.917   8.733  62.602  1.00  0.00     0.000 HD 
ENDBRANCH   8  11
ENDBRANCH   4   8
TORSDOF 2
ENDMDL
MODEL      227
REMARK 921   NORMALIZED FREE ENERGY PREDICTED BY IDOCK:   -3.05 KCAL/MOL
REMARK 922        TOTAL FREE ENERGY PREDICTED BY IDOCK:   -3.67 KCAL/MOL
REMARK 923 INTER-LIGAND FREE ENERGY PREDICTED BY IDOCK:   -3.62 KCAL/MOL
REMARK 924 INTRA-LIGAND FREE ENERGY PREDICTED BY IDOCK:   -0.05 KCAL/MOL
REMARK 927      BINDING AFFINITY PREDICTED BY RF-SCORE:    0.00 PKD
ROOT
HETATM    1  N   UNL     1     -10.891  17.285  66.021  1.00  0.00    -0.088 NA 
HETATM    2  H1  UNL     1     -10.703  17.495  65.041  1.00  0.00     0.000 HD 
HETATM    3  H2  UNL     1     -10.318  17.837  66.660  1.00  0.00     0.000 HD 
HETATM    4  CA  UNL     1     -10.719  15.799  66.215  1.00  0.00    -0.282 C  
HETATM    5  OXT UNL     1     -11.056  14.365  68.169  1.00  0.00    -0.249 OA 
HETATM    6  C   UNL     1     -11.001  15.485  67.689  1.00  0.00    -0.315 C  
HETATM    7  O   UNL     1     -11.207  16.621  68.410  1.00  0.00    -0.357 OA 
ENDROOT
BRANCH   4   8
HETATM    8  C   UNL     1      -9.326  15.218  65.847  1.00  0.00    -0.273 C  
HETATM    9  O   UNL     1      -9.259  13.826  66.174  1.00  0.00    -0.478 OA 
HETATM   10  H   UNL     1      -8.407  13.471  65.949  1.00  0.00     0.000 HD 
BRANCH   8  11
HETATM   11  C   UNL     1      -8.202  15.941  66.574  1.00  0.00    -0.307 A  
HETATM   12  C   UNL     1      -7.412  15.276  67.533  1.00  0.00    -0.216 A  
HETATM   13  C   UNL     1      -6.431  15.970  68.229  1.00  0.00    -0.119 A  
HETATM   14  C   UNL     1      -6.214  17.319  67.976  1.00  0.00    -0.142 A  
HETATM   15  O   UNL     1      -5.663  15.367  69.185  1.00  0.00    -0.098 OA 
HETATM   16  H   UNL     1      -4.992  15.841  69.662  1.00  0.00     0.000 HD 
HETATM   17  O   UNL     1      -5.257  17.998  68.672  1.00  0.00    -0.152 OA 
HETATM   18  C   UNL     1      -6.964  17.991  67.022  1.00  0.00    -0.214 A  
HETATM   19  C   UNL     1      -7.962  17.303  66.324  1.00  0.00    -0.330 A  
HETATM   20  H   UNL     1      -5.108  18.920  68.499  1.00  0.00     0.000 HD 
ENDBRANCH   8  11
ENDBRANCH   4   8
TORSDOF 2
ENDMDL
MODEL      228
REMARK 921   NORMALIZED FREE ENERGY PREDICTED BY IDOCK:   -3.03 KCAL/MOL
REMARK 922        TOTAL FREE ENERGY PREDICTED BY IDOCK:   -3.65 KCAL/MOL
REMARK 923 INTER-LIGAND FREE ENERGY PREDICTED BY IDOCK:   -3.52 KCAL/MOL
REMARK 924 INTRA-LIGAND FREE ENERGY PREDICTED BY IDOCK:   -0.14 KCAL/MOL
REMARK 927      BINDING AFFINITY PREDICTED BY RF-SCORE:    0.00 PKD
ROOT
HETATM    1  N   UNL     1      -9.998   8.989  66.944  1.00  0.00    -0.222 NA 
HETATM    2  H1  UNL     1     -10.729   8.600  66.349  1.00  0.00     0.000 HD 
HETATM    3  H2  UNL     1     -10.365   9.600  67.674  1.00  0.00     0.000 HD 
HETATM    4  CA  UNL     1      -8.997   9.679  66.051  1.00  0.00    -0.162 C  
HETATM    5  OXT UNL     1      -6.877  10.797  66.544  1.00  0.00    -0.113 OA 
HETATM    6  C   UNL     1      -7.898  10.264  66.946  1.00  0.00    -0.112 C  
HETATM    7  O   UNL     1      -8.190  10.099  68.265  1.00  0.00    -0.107 OA 
ENDROOT
BRANCH   4   8
HETATM    8  C   UNL     1      -9.555  10.817  65.151  1.00  0.00    -0.245 C  
HETATM    9  O   UNL     1      -8.543  11.293  64.257  1.00  0.00    -0.364 OA 
HETATM   10  H   UNL     1      -8.884  11.988  63.707  1.00  0.00     0.000 HD 
BRANCH   8  11
HETATM   11  C   UNL     1     -10.064  11.991  65.974  1.00  0.00    -0.257 A  
HETATM   12  C   UNL     1      -9.310  13.174  66.095  1.00  0.00    -0.086 A  
HETATM   13  C   UNL     1      -9.765  14.210  66.900  1.00  0.00    -0.269 A  
HETATM   14  C   UNL     1     -10.971  14.092  67.581  1.00  0.00    -0.269 A  
HETATM   15  O   UNL     1      -9.049  15.364  67.064  1.00  0.00    -0.204 OA 
HETATM   16  H   UNL     1      -9.360  16.072  67.615  1.00  0.00     0.000 HD 
HETATM   17  O   UNL     1     -11.406  15.108  68.380  1.00  0.00    -0.285 OA 
HETATM   18  C   UNL     1     -11.742  12.945  67.462  1.00  0.00    -0.422 A  
HETATM   19  C   UNL     1     -11.287  11.891  66.662  1.00  0.00    -0.400 A  
HETATM   20  H   UNL     1     -12.230  15.027  68.845  1.00  0.00     0.000 HD 
ENDBRANCH   8  11
ENDBRANCH   4   8
TORSDOF 2
ENDMDL
MODEL      229
REMARK 921   NORMALIZED FREE ENERGY PREDICTED BY IDOCK:   -3.02 KCAL/MOL
REMARK 922        TOTAL FREE ENERGY PREDICTED BY IDOCK:   -3.64 KCAL/MOL
REMARK 923 INTER-LIGAND FREE ENERGY PREDICTED BY IDOCK:   -3.32 KCAL/MOL
REMARK 924 INTRA-LIGAND FREE ENERGY PREDICTED BY IDOCK:   -0.33 KCAL/MOL
REMARK 927      BINDING AFFINITY PREDICTED BY RF-SCORE:    0.00 PKD
ROOT
HETATM    1  N   UNL     1      -7.257  11.804  67.970  1.00  0.00    -0.079 NA 
HETATM    2  H1  UNL     1      -7.456  10.880  67.589  1.00  0.00     0.000 HD 
HETATM    3  H2  UNL     1      -7.400  11.856  68.979  1.00  0.00     0.000 HD 
HETATM    4  CA  UNL     1      -8.091  12.805  67.207  1.00  0.00    -0.172 C  
HETATM    5  OXT UNL     1      -8.214  15.246  67.328  1.00  0.00    -0.172 OA 
HETATM    6  C   UNL     1      -7.791  14.195  67.782  1.00  0.00    -0.170 C  
HETATM    7  O   UNL     1      -6.969  14.121  68.863  1.00  0.00    -0.099 OA 
ENDROOT
BRANCH   4   8
HETATM    8  C   UNL     1      -9.627  12.580  67.241  1.00  0.00    -0.205 C  
HETATM    9  O   UNL     1     -10.253  13.514  68.128  1.00  0.00    -0.235 OA 
HETATM   10  H   UNL     1     -11.193  13.377  68.149  1.00  0.00     0.000 HD 
BRANCH   8  11
HETATM   11  C   UNL     1      -9.984  11.172  67.692  1.00  0.00    -0.195 A  
HETATM   12  C   UNL     1      -9.988  10.097  66.781  1.00  0.00    -0.266 A  
HETATM   13  C   UNL     1     -10.376   8.831  67.199  1.00  0.00    -0.293 A  
HETATM   14  C   UNL     1     -10.750   8.613  68.520  1.00  0.00    -0.043 A  
HETATM   15  O   UNL     1     -10.418   7.769  66.340  1.00  0.00    -0.480 OA 
HETATM   16  H   UNL     1     -10.683   6.903  66.626  1.00  0.00     0.000 HD 
HETATM   17  O   UNL     1     -11.142   7.370  68.922  1.00  0.00    -0.433 OA 
HETATM   18  C   UNL     1     -10.736   9.651  69.441  1.00  0.00    -0.248 A  
HETATM   19  C   UNL     1     -10.357  10.932  69.026  1.00  0.00    -0.230 A  
HETATM   20  H   UNL     1     -11.398   7.221  69.824  1.00  0.00     0.000 HD 
ENDBRANCH   8  11
ENDBRANCH   4   8
TORSDOF 2
ENDMDL
MODEL      230
REMARK 921   NORMALIZED FREE ENERGY PREDICTED BY IDOCK:   -3.02 KCAL/MOL
REMARK 922        TOTAL FREE ENERGY PREDICTED BY IDOCK:   -3.64 KCAL/MOL
REMARK 923 INTER-LIGAND FREE ENERGY PREDICTED BY IDOCK:   -3.56 KCAL/MOL
REMARK 924 INTRA-LIGAND FREE ENERGY PREDICTED BY IDOCK:   -0.08 KCAL/MOL
REMARK 927      BINDING AFFINITY PREDICTED BY RF-SCORE:    0.00 PKD
ROOT
HETATM    1  N   UNL     1      -9.272   6.021  65.825  1.00  0.00    -0.333 NA 
HETATM    2  H1  UNL     1      -8.375   5.760  65.415  1.00  0.00     0.000 HD 
HETATM    3  H2  UNL     1      -9.820   6.634  65.221  1.00  0.00     0.000 HD 
HETATM    4  CA  UNL     1      -8.999   6.626  67.180  1.00  0.00    -0.118 C  
HETATM    5  OXT UNL     1     -10.504   7.439  68.930  1.00  0.00    -0.204 OA 
HETATM    6  C   UNL     1     -10.348   7.019  67.795  1.00  0.00    -0.202 C  
HETATM    7  O   UNL     1     -11.371   6.822  66.920  1.00  0.00    -0.318 OA 
ENDROOT
BRANCH   4   8
HETATM    8  C   UNL     1      -8.071   7.872  67.198  1.00  0.00    -0.117 C  
HETATM    9  O   UNL     1      -7.871   8.331  68.539  1.00  0.00    -0.116 OA 
HETATM   10  H   UNL     1      -7.303   9.093  68.550  1.00  0.00     0.000 HD 
BRANCH   8  11
HETATM   11  C   UNL     1      -8.642   9.016  66.374  1.00  0.00    -0.136 A  
HETATM   12  C   UNL     1      -8.929   8.852  65.005  1.00  0.00    -0.160 A  
HETATM   13  C   UNL     1      -9.392   9.927  64.257  1.00  0.00    -0.253 A  
HETATM   14  C   UNL     1      -9.588  11.166  64.857  1.00  0.00    -0.239 A  
HETATM   15  O   UNL     1      -9.656   9.815  62.920  1.00  0.00    -0.538 OA 
HETATM   16  H   UNL     1      -9.973  10.550  62.409  1.00  0.00     0.000 HD 
HETATM   17  O   UNL     1     -10.032  12.220  64.114  1.00  0.00    -0.459 OA 
HETATM   18  C   UNL     1      -9.333  11.347  66.208  1.00  0.00    -0.228 A  
HETATM   19  C   UNL     1      -8.856  10.273  66.967  1.00  0.00    -0.143 A  
HETATM   20  H   UNL     1     -10.167  13.067  64.524  1.00  0.00     0.000 HD 
ENDBRANCH   8  11
ENDBRANCH   4   8
TORSDOF 2
ENDMDL
MODEL      231
REMARK 921   NORMALIZED FREE ENERGY PREDICTED BY IDOCK:   -3.02 KCAL/MOL
REMARK 922        TOTAL FREE ENERGY PREDICTED BY IDOCK:   -3.64 KCAL/MOL
REMARK 923 INTER-LIGAND FREE ENERGY PREDICTED BY IDOCK:   -3.25 KCAL/MOL
REMARK 924 INTRA-LIGAND FREE ENERGY PREDICTED BY IDOCK:   -0.40 KCAL/MOL
REMARK 927      BINDING AFFINITY PREDICTED BY RF-SCORE:    0.00 PKD
ROOT
HETATM    1  N   UNL     1     -11.295   8.661  71.772  1.00  0.00    -0.299 NA 
HETATM    2  H1  UNL     1     -10.536   7.982  71.812  1.00  0.00     0.000 HD 
HETATM    3  H2  UNL     1     -12.154   8.272  71.381  1.00  0.00     0.000 HD 
HETATM    4  CA  UNL     1     -10.797   9.863  71.008  1.00  0.00    -0.230 C  
HETATM    5  OXT UNL     1     -11.847  12.013  70.495  1.00  0.00    -0.302 OA 
HETATM    6  C   UNL     1     -11.940  10.884  70.947  1.00  0.00    -0.311 C  
HETATM    7  O   UNL     1     -13.085  10.382  71.483  1.00  0.00    -0.390 OA 
ENDROOT
BRANCH   4   8
HETATM    8  C   UNL     1     -10.299   9.595  69.561  1.00  0.00    -0.221 C  
HETATM    9  O   UNL     1     -11.396   9.614  68.641  1.00  0.00    -0.480 OA 
HETATM   10  H   UNL     1     -11.092   9.451  67.756  1.00  0.00     0.000 HD 
BRANCH   8  11
HETATM   11  C   UNL     1      -9.593   8.253  69.444  1.00  0.00    -0.171 A  
HETATM   12  C   UNL     1     -10.169   7.191  68.720  1.00  0.00    -0.184 A  
HETATM   13  C   UNL     1      -9.538   5.954  68.677  1.00  0.00    -0.123 A  
HETATM   14  C   UNL     1      -8.329   5.761  69.336  1.00  0.00    -0.112 A  
HETATM   15  O   UNL     1     -10.077   4.892  68.007  1.00  0.00    -0.140 OA 
HETATM   16  H   UNL     1      -9.646   4.047  67.978  1.00  0.00     0.000 HD 
HETATM   17  O   UNL     1      -7.720   4.541  69.300  1.00  0.00    -0.055 OA 
HETATM   18  C   UNL     1      -7.732   6.797  70.039  1.00  0.00    -0.102 A  
HETATM   19  C   UNL     1      -8.366   8.043  70.097  1.00  0.00    -0.126 A  
HETATM   20  H   UNL     1      -6.894   4.409  69.751  1.00  0.00     0.000 HD 
ENDBRANCH   8  11
ENDBRANCH   4   8
TORSDOF 2
ENDMDL
MODEL      232
REMARK 921   NORMALIZED FREE ENERGY PREDICTED BY IDOCK:   -3.00 KCAL/MOL
REMARK 922        TOTAL FREE ENERGY PREDICTED BY IDOCK:   -3.62 KCAL/MOL
REMARK 923 INTER-LIGAND FREE ENERGY PREDICTED BY IDOCK:   -3.35 KCAL/MOL
REMARK 924 INTRA-LIGAND FREE ENERGY PREDICTED BY IDOCK:   -0.28 KCAL/MOL
REMARK 927      BINDING AFFINITY PREDICTED BY RF-SCORE:    0.00 PKD
ROOT
HETATM    1  N   UNL     1      -6.502  17.266  69.288  1.00  0.00    -0.234 NA 
HETATM    2  H1  UNL     1      -6.919  16.351  69.455  1.00  0.00     0.000 HD 
HETATM    3  H2  UNL     1      -6.906  17.999  69.872  1.00  0.00     0.000 HD 
HETATM    4  CA  UNL     1      -6.617  17.561  67.813  1.00  0.00    -0.162 C  
HETATM    5  OXT UNL     1      -5.818  19.440  66.464  1.00  0.00    -0.166 OA 
HETATM    6  C   UNL     1      -5.989  18.938  67.563  1.00  0.00    -0.182 C  
HETATM    7  O   UNL     1      -5.620  19.537  68.728  1.00  0.00    -0.198 OA 
ENDROOT
BRANCH   4   8
HETATM    8  C   UNL     1      -8.056  17.565  67.228  1.00  0.00    -0.203 C  
HETATM    9  O   UNL     1      -8.674  18.842  67.417  1.00  0.00    -0.271 OA 
HETATM   10  H   UNL     1      -9.553  18.844  67.059  1.00  0.00     0.000 HD 
BRANCH   8  11
HETATM   11  C   UNL     1      -8.933  16.503  67.875  1.00  0.00    -0.205 A  
HETATM   12  C   UNL     1      -9.029  15.208  67.327  1.00  0.00    -0.213 A  
HETATM   13  C   UNL     1      -9.883  14.273  67.898  1.00  0.00    -0.226 A  
HETATM   14  C   UNL     1     -10.636  14.603  69.018  1.00  0.00    -0.247 A  
HETATM   15  O   UNL     1     -10.023  13.015  67.380  1.00  0.00    -0.223 OA 
HETATM   16  H   UNL     1     -10.607  12.376  67.770  1.00  0.00     0.000 HD 
HETATM   17  O   UNL     1     -11.481  13.683  69.566  1.00  0.00    -0.272 OA 
HETATM   18  C   UNL     1     -10.544  15.864  69.588  1.00  0.00    -0.301 A  
HETATM   19  C   UNL     1      -9.696  16.817  69.014  1.00  0.00    -0.244 A  
HETATM   20  H   UNL     1     -11.997  13.909  70.332  1.00  0.00     0.000 HD 
ENDBRANCH   8  11
ENDBRANCH   4   8
TORSDOF 2
ENDMDL
MODEL      233
REMARK 921   NORMALIZED FREE ENERGY PREDICTED BY IDOCK:   -3.00 KCAL/MOL
REMARK 922        TOTAL FREE ENERGY PREDICTED BY IDOCK:   -3.62 KCAL/MOL
REMARK 923 INTER-LIGAND FREE ENERGY PREDICTED BY IDOCK:   -3.49 KCAL/MOL
REMARK 924 INTRA-LIGAND FREE ENERGY PREDICTED BY IDOCK:   -0.14 KCAL/MOL
REMARK 927      BINDING AFFINITY PREDICTED BY RF-SCORE:    0.00 PKD
ROOT
HETATM    1  N   UNL     1      -7.320  12.179  68.462  1.00  0.00    -0.101 NA 
HETATM    2  H1  UNL     1      -7.668  12.811  69.184  1.00  0.00     0.000 HD 
HETATM    3  H2  UNL     1      -7.358  12.586  67.527  1.00  0.00     0.000 HD 
HETATM    4  CA  UNL     1      -8.091  10.887  68.571  1.00  0.00    -0.137 C  
HETATM    5  OXT UNL     1      -7.897   8.771  67.358  1.00  0.00    -0.096 OA 
HETATM    6  C   UNL     1      -7.568   9.939  67.486  1.00  0.00    -0.091 C  
HETATM    7  O   UNL     1      -6.661  10.556  66.680  1.00  0.00    -0.086 OA 
ENDROOT
BRANCH   4   8
HETATM    8  C   UNL     1      -9.634  10.998  68.424  1.00  0.00    -0.181 C  
HETATM    9  O   UNL     1     -10.249   9.718  68.601  1.00  0.00    -0.176 OA 
HETATM   10  H   UNL     1     -11.192   9.785  68.512  1.00  0.00     0.000 HD 
BRANCH   8  11
HETATM   11  C   UNL     1     -10.035  11.542  67.061  1.00  0.00    -0.225 A  
HETATM   12  C   UNL     1     -10.137  12.929  66.835  1.00  0.00    -0.241 A  
HETATM   13  C   UNL     1     -10.564  13.404  65.602  1.00  0.00    -0.282 A  
HETATM   14  C   UNL     1     -10.881  12.516  64.580  1.00  0.00    -0.310 A  
HETATM   15  O   UNL     1     -10.701  14.741  65.352  1.00  0.00    -0.322 OA 
HETATM   16  H   UNL     1     -10.993  15.066  64.509  1.00  0.00     0.000 HD 
HETATM   17  O   UNL     1     -11.311  12.989  63.375  1.00  0.00    -0.615 OA 
HETATM   18  C   UNL     1     -10.769  11.147  64.772  1.00  0.00    -0.334 A  
HETATM   19  C   UNL     1     -10.350  10.659  66.014  1.00  0.00    -0.290 A  
HETATM   20  H   UNL     1     -11.528  12.382  62.677  1.00  0.00     0.000 HD 
ENDBRANCH   8  11
ENDBRANCH   4   8
TORSDOF 2
ENDMDL
MODEL      234
REMARK 921   NORMALIZED FREE ENERGY PREDICTED BY IDOCK:   -2.98 KCAL/MOL
REMARK 922        TOTAL FREE ENERGY PREDICTED BY IDOCK:   -3.60 KCAL/MOL
REMARK 923 INTER-LIGAND FREE ENERGY PREDICTED BY IDOCK:   -3.24 KCAL/MOL
REMARK 924 INTRA-LIGAND FREE ENERGY PREDICTED BY IDOCK:   -0.36 KCAL/MOL
REMARK 927      BINDING AFFINITY PREDICTED BY RF-SCORE:    0.00 PKD
ROOT
HETATM    1  N   UNL     1     -10.302   4.452  71.134  1.00  0.00    -0.048 NA 
HETATM    2  H1  UNL     1      -9.752   4.166  70.324  1.00  0.00     0.000 HD 
HETATM    3  H2  UNL     1     -11.281   4.174  71.067  1.00  0.00     0.000 HD 
HETATM    4  CA  UNL     1     -10.126   5.941  71.307  1.00  0.00    -0.196 C  
HETATM    5  OXT UNL     1     -10.954   7.489  73.012  1.00  0.00    -0.350 OA 
HETATM    6  C   UNL     1     -10.953   6.370  72.525  1.00  0.00    -0.251 C  
HETATM    7  O   UNL     1     -11.683   5.335  73.021  1.00  0.00    -0.294 OA 
ENDROOT
BRANCH   4   8
HETATM    8  C   UNL     1     -10.540   6.823  70.097  1.00  0.00    -0.218 C  
HETATM    9  O   UNL     1     -11.963   6.821  69.937  1.00  0.00    -0.651 OA 
HETATM   10  H   UNL     1     -12.217   7.360  69.197  1.00  0.00     0.000 HD 
BRANCH   8  11
HETATM   11  C   UNL     1      -9.907   6.339  68.800  1.00  0.00    -0.156 A  
HETATM   12  C   UNL     1      -8.522   6.466  68.578  1.00  0.00    -0.119 A  
HETATM   13  C   UNL     1      -7.973   6.075  67.364  1.00  0.00    -0.102 A  
HETATM   14  C   UNL     1      -8.784   5.545  66.366  1.00  0.00    -0.123 A  
HETATM   15  O   UNL     1      -6.638   6.206  67.100  1.00  0.00    -0.051 OA 
HETATM   16  H   UNL     1      -6.263   5.939  66.269  1.00  0.00     0.000 HD 
HETATM   17  O   UNL     1      -8.240   5.174  65.171  1.00  0.00    -0.119 OA 
HETATM   18  C   UNL     1     -10.148   5.391  66.569  1.00  0.00    -0.250 A  
HETATM   19  C   UNL     1     -10.711   5.793  67.784  1.00  0.00    -0.306 A  
HETATM   20  H   UNL     1      -8.794   4.812  64.490  1.00  0.00     0.000 HD 
ENDBRANCH   8  11
ENDBRANCH   4   8
TORSDOF 2
ENDMDL
MODEL      235
REMARK 921   NORMALIZED FREE ENERGY PREDICTED BY IDOCK:   -2.94 KCAL/MOL
REMARK 922        TOTAL FREE ENERGY PREDICTED BY IDOCK:   -3.55 KCAL/MOL
REMARK 923 INTER-LIGAND FREE ENERGY PREDICTED BY IDOCK:   -3.41 KCAL/MOL
REMARK 924 INTRA-LIGAND FREE ENERGY PREDICTED BY IDOCK:   -0.14 KCAL/MOL
REMARK 927      BINDING AFFINITY PREDICTED BY RF-SCORE:    0.00 PKD
ROOT
HETATM    1  N   UNL     1      -9.257   9.304  63.954  1.00  0.00    -0.395 NA 
HETATM    2  H1  UNL     1     -10.131   9.557  63.493  1.00  0.00     0.000 HD 
HETATM    3  H2  UNL     1      -9.355   8.499  64.574  1.00  0.00     0.000 HD 
HETATM    4  CA  UNL     1      -8.741  10.531  64.664  1.00  0.00    -0.183 C  
HETATM    5  OXT UNL     1      -6.689  10.931  65.936  1.00  0.00    -0.115 OA 
HETATM    6  C   UNL     1      -7.428  10.150  65.359  1.00  0.00    -0.144 C  
HETATM    7  O   UNL     1      -7.168   8.820  65.237  1.00  0.00    -0.082 OA 
ENDROOT
BRANCH   4   8
HETATM    8  C   UNL     1      -9.691  11.159  65.722  1.00  0.00    -0.225 C  
HETATM    9  O   UNL     1      -9.228  12.458  66.106  1.00  0.00    -0.354 OA 
HETATM   10  H   UNL     1      -9.809  12.842  66.752  1.00  0.00     0.000 HD 
BRANCH   8  11
HETATM   11  C   UNL     1      -9.799  10.295  66.970  1.00  0.00    -0.238 A  
HETATM   12  C   UNL     1     -10.448   9.046  66.933  1.00  0.00    -0.293 A  
HETATM   13  C   UNL     1     -10.590   8.301  68.097  1.00  0.00    -0.111 A  
HETATM   14  C   UNL     1     -10.081   8.777  69.300  1.00  0.00    -0.204 A  
HETATM   15  O   UNL     1     -11.237   7.097  68.108  1.00  0.00    -0.485 OA 
HETATM   16  H   UNL     1     -11.334   6.588  68.904  1.00  0.00     0.000 HD 
HETATM   17  O   UNL     1     -10.234   8.046  70.442  1.00  0.00    -0.197 OA 
HETATM   18  C   UNL     1      -9.420   9.995  69.358  1.00  0.00    -0.237 A  
HETATM   19  C   UNL     1      -9.282  10.757  68.193  1.00  0.00    -0.151 A  
HETATM   20  H   UNL     1      -9.887   8.371  71.264  1.00  0.00     0.000 HD 
ENDBRANCH   8  11
ENDBRANCH   4   8
TORSDOF 2
ENDMDL
MODEL      236
REMARK 921   NORMALIZED FREE ENERGY PREDICTED BY IDOCK:   -2.91 KCAL/MOL
REMARK 922        TOTAL FREE ENERGY PREDICTED BY IDOCK:   -3.52 KCAL/MOL
REMARK 923 INTER-LIGAND FREE ENERGY PREDICTED BY IDOCK:   -3.29 KCAL/MOL
REMARK 924 INTRA-LIGAND FREE ENERGY PREDICTED BY IDOCK:   -0.23 KCAL/MOL
REMARK 927      BINDING AFFINITY PREDICTED BY RF-SCORE:    0.00 PKD
ROOT
HETATM    1  N   UNL     1      -8.470   7.026  71.093  1.00  0.00    -0.119 NA 
HETATM    2  H1  UNL     1      -7.661   6.774  70.526  1.00  0.00     0.000 HD 
HETATM    3  H2  UNL     1      -8.521   6.501  71.966  1.00  0.00     0.000 HD 
HETATM    4  CA  UNL     1      -9.701   6.858  70.236  1.00  0.00    -0.172 C  
HETATM    5  OXT UNL     1     -12.064   7.317  70.678  1.00  0.00    -0.274 OA 
HETATM    6  C   UNL     1     -10.918   7.237  71.089  1.00  0.00    -0.247 C  
HETATM    7  O   UNL     1     -10.562   7.498  72.376  1.00  0.00    -0.219 OA 
ENDROOT
BRANCH   4   8
HETATM    8  C   UNL     1      -9.936   5.440  69.648  1.00  0.00    -0.227 C  
HETATM    9  O   UNL     1      -9.089   4.482  70.291  1.00  0.00    -0.089 OA 
HETATM   10  H   UNL     1      -9.233   3.614  69.931  1.00  0.00     0.000 HD 
BRANCH   8  11
HETATM   11  C   UNL     1      -9.667   5.396  68.151  1.00  0.00    -0.174 A  
HETATM   12  C   UNL     1     -10.630   4.891  67.255  1.00  0.00    -0.001 A  
HETATM   13  C   UNL     1     -10.341   4.803  65.899  1.00  0.00    -0.270 A  
HETATM   14  C   UNL     1      -9.106   5.223  65.417  1.00  0.00    -0.117 A  
HETATM   15  O   UNL     1     -11.238   4.295  65.002  1.00  0.00    -0.894 OA 
HETATM   16  H   UNL     1     -11.040   4.234  64.076  1.00  0.00     0.000 HD 
HETATM   17  O   UNL     1      -8.824   5.122  64.086  1.00  0.00    -0.278 OA 
HETATM   18  C   UNL     1      -8.149   5.742  66.276  1.00  0.00    -0.107 A  
HETATM   19  C   UNL     1      -8.427   5.825  67.645  1.00  0.00    -0.103 A  
HETATM   20  H   UNL     1      -7.981   5.409  63.757  1.00  0.00     0.000 HD 
ENDBRANCH   8  11
ENDBRANCH   4   8
TORSDOF 2
ENDMDL
MODEL      237
REMARK 921   NORMALIZED FREE ENERGY PREDICTED BY IDOCK:   -2.88 KCAL/MOL
REMARK 922        TOTAL FREE ENERGY PREDICTED BY IDOCK:   -3.49 KCAL/MOL
REMARK 923 INTER-LIGAND FREE ENERGY PREDICTED BY IDOCK:   -3.58 KCAL/MOL
REMARK 924 INTRA-LIGAND FREE ENERGY PREDICTED BY IDOCK:    0.09 KCAL/MOL
REMARK 927      BINDING AFFINITY PREDICTED BY RF-SCORE:    0.00 PKD
ROOT
HETATM    1  N   UNL     1      -7.539   9.904  69.926  1.00  0.00    -0.146 NA 
HETATM    2  H1  UNL     1      -7.502   9.056  70.491  1.00  0.00     0.000 HD 
HETATM    3  H2  UNL     1      -8.077  10.651  70.367  1.00  0.00     0.000 HD 
HETATM    4  CA  UNL     1      -8.067   9.527  68.564  1.00  0.00    -0.101 C  
HETATM    5  OXT UNL     1      -8.403  10.842  66.528  1.00  0.00    -0.143 OA 
HETATM    6  C   UNL     1      -8.123  10.802  67.715  1.00  0.00    -0.111 C  
HETATM    7  O   UNL     1      -7.798  11.902  68.447  1.00  0.00    -0.129 OA 
ENDROOT
BRANCH   4   8
HETATM    8  C   UNL     1      -9.469   8.858  68.537  1.00  0.00    -0.147 C  
HETATM    9  O   UNL     1      -9.918   8.684  67.189  1.00  0.00    -0.188 OA 
HETATM   10  H   UNL     1     -10.775   8.275  67.172  1.00  0.00     0.000 HD 
BRANCH   8  11
HETATM   11  C   UNL     1     -10.504   9.681  69.289  1.00  0.00    -0.232 A  
HETATM   12  C   UNL     1     -10.929  10.933  68.801  1.00  0.00    -0.285 A  
HETATM   13  C   UNL     1     -11.829  11.697  69.533  1.00  0.00    -0.348 A  
HETATM   14  C   UNL     1     -12.325  11.226  70.744  1.00  0.00    -0.398 A  
HETATM   15  O   UNL     1     -12.244  12.927  69.107  1.00  0.00    -0.209 OA 
HETATM   16  H   UNL     1     -12.859  13.450  69.608  1.00  0.00     0.000 HD 
HETATM   17  O   UNL     1     -13.199  11.987  71.464  1.00  0.00    -0.352 OA 
HETATM   18  C   UNL     1     -11.938   9.988  71.235  1.00  0.00    -0.483 A  
HETATM   19  C   UNL     1     -11.024   9.217  70.510  1.00  0.00    -0.307 A  
HETATM   20  H   UNL     1     -13.538  11.665  72.291  1.00  0.00     0.000 HD 
ENDBRANCH   8  11
ENDBRANCH   4   8
TORSDOF 2
ENDMDL
MODEL      238
REMARK 921   NORMALIZED FREE ENERGY PREDICTED BY IDOCK:   -2.88 KCAL/MOL
REMARK 922        TOTAL FREE ENERGY PREDICTED BY IDOCK:   -3.48 KCAL/MOL
REMARK 923 INTER-LIGAND FREE ENERGY PREDICTED BY IDOCK:   -3.14 KCAL/MOL
REMARK 924 INTRA-LIGAND FREE ENERGY PREDICTED BY IDOCK:   -0.34 KCAL/MOL
REMARK 927      BINDING AFFINITY PREDICTED BY RF-SCORE:    0.00 PKD
ROOT
HETATM    1  N   UNL     1      -6.959  11.259  70.025  1.00  0.00    -0.429 NA 
HETATM    2  H1  UNL     1      -7.239  10.288  70.159  1.00  0.00     0.000 HD 
HETATM    3  H2  UNL     1      -7.589  11.920  70.480  1.00  0.00     0.000 HD 
HETATM    4  CA  UNL     1      -6.830  11.500  68.541  1.00  0.00    -0.074 C  
HETATM    5  OXT UNL     1      -6.112  13.464  67.270  1.00  0.00    -0.330 OA 
HETATM    6  C   UNL     1      -6.409  12.961  68.341  1.00  0.00    -0.080 C  
HETATM    7  O   UNL     1      -6.384  13.639  69.520  1.00  0.00    -0.108 OA 
ENDROOT
BRANCH   4   8
HETATM    8  C   UNL     1      -8.104  11.236  67.693  1.00  0.00    -0.119 C  
HETATM    9  O   UNL     1      -8.800  12.460  67.435  1.00  0.00    -0.171 OA 
HETATM   10  H   UNL     1      -9.579  12.299  66.915  1.00  0.00     0.000 HD 
BRANCH   8  11
HETATM   11  C   UNL     1      -9.057  10.275  68.387  1.00  0.00    -0.136 A  
HETATM   12  C   UNL     1     -10.168  10.751  69.111  1.00  0.00    -0.229 A  
HETATM   13  C   UNL     1     -10.991   9.861  69.789  1.00  0.00    -0.268 A  
HETATM   14  C   UNL     1     -10.732   8.496  69.747  1.00  0.00    -0.213 A  
HETATM   15  O   UNL     1     -12.062  10.286  70.524  1.00  0.00    -0.279 OA 
HETATM   16  H   UNL     1     -12.625   9.678  70.988  1.00  0.00     0.000 HD 
HETATM   17  O   UNL     1     -11.537   7.628  70.425  1.00  0.00    -0.418 OA 
HETATM   18  C   UNL     1      -9.657   8.001  69.024  1.00  0.00    -0.156 A  
HETATM   19  C   UNL     1      -8.816   8.890  68.347  1.00  0.00    -0.134 A  
HETATM   20  H   UNL     1     -11.361   6.695  70.396  1.00  0.00     0.000 HD 
ENDBRANCH   8  11
ENDBRANCH   4   8
TORSDOF 2
ENDMDL
MODEL      239
REMARK 921   NORMALIZED FREE ENERGY PREDICTED BY IDOCK:   -2.88 KCAL/MOL
REMARK 922        TOTAL FREE ENERGY PREDICTED BY IDOCK:   -3.48 KCAL/MOL
REMARK 923 INTER-LIGAND FREE ENERGY PREDICTED BY IDOCK:   -3.21 KCAL/MOL
REMARK 924 INTRA-LIGAND FREE ENERGY PREDICTED BY IDOCK:   -0.28 KCAL/MOL
REMARK 927      BINDING AFFINITY PREDICTED BY RF-SCORE:    0.00 PKD
ROOT
HETATM    1  N   UNL     1      -6.178  12.489  69.563  1.00  0.00    -0.114 NA 
HETATM    2  H1  UNL     1      -5.690  13.379  69.665  1.00  0.00     0.000 HD 
HETATM    3  H2  UNL     1      -5.641  11.800  69.036  1.00  0.00     0.000 HD 
HETATM    4  CA  UNL     1      -7.528  12.772  68.952  1.00  0.00     0.022 C  
HETATM    5  OXT UNL     1      -9.418  11.306  68.435  1.00  0.00    -0.179 OA 
HETATM    6  C   UNL     1      -8.261  11.434  68.798  1.00  0.00    -0.107 C  
HETATM    7  O   UNL     1      -7.462  10.386  69.141  1.00  0.00    -0.090 OA 
ENDROOT
BRANCH   4   8
HETATM    8  C   UNL     1      -7.517  13.486  67.572  1.00  0.00    -0.167 C  
HETATM    9  O   UNL     1      -6.177  13.806  67.182  1.00  0.00    -0.407 OA 
HETATM   10  H   UNL     1      -6.170  14.242  66.338  1.00  0.00     0.000 HD 
BRANCH   8  11
HETATM   11  C   UNL     1      -8.334  14.769  67.591  1.00  0.00    -0.180 A  
HETATM   12  C   UNL     1      -9.344  14.971  68.553  1.00  0.00    -0.196 A  
HETATM   13  C   UNL     1     -10.120  16.122  68.515  1.00  0.00    -0.241 A  
HETATM   14  C   UNL     1      -9.898  17.086  67.538  1.00  0.00    -0.258 A  
HETATM   15  O   UNL     1     -11.126  16.343  69.414  1.00  0.00    -0.318 OA 
HETATM   16  H   UNL     1     -11.657  17.130  69.388  1.00  0.00     0.000 HD 
HETATM   17  O   UNL     1     -10.672  18.209  67.499  1.00  0.00    -0.412 OA 
HETATM   18  C   UNL     1      -8.897  16.919  66.593  1.00  0.00    -0.275 A  
HETATM   19  C   UNL     1      -8.117  15.758  66.616  1.00  0.00    -0.282 A  
HETATM   20  H   UNL     1     -10.520  18.867  66.832  1.00  0.00     0.000 HD 
ENDBRANCH   8  11
ENDBRANCH   4   8
TORSDOF 2
ENDMDL
MODEL      240
REMARK 921   NORMALIZED FREE ENERGY PREDICTED BY IDOCK:   -2.87 KCAL/MOL
REMARK 922        TOTAL FREE ENERGY PREDICTED BY IDOCK:   -3.47 KCAL/MOL
REMARK 923 INTER-LIGAND FREE ENERGY PREDICTED BY IDOCK:   -3.38 KCAL/MOL
REMARK 924 INTRA-LIGAND FREE ENERGY PREDICTED BY IDOCK:   -0.09 KCAL/MOL
REMARK 927      BINDING AFFINITY PREDICTED BY RF-SCORE:    0.00 PKD
ROOT
HETATM    1  N   UNL     1      -8.663   5.522  66.577  1.00  0.00    -0.117 NA 
HETATM    2  H1  UNL     1      -7.643   5.517  66.608  1.00  0.00     0.000 HD 
HETATM    3  H2  UNL     1      -9.032   6.041  65.780  1.00  0.00     0.000 HD 
HETATM    4  CA  UNL     1      -9.162   6.046  67.900  1.00  0.00    -0.111 C  
HETATM    5  OXT UNL     1     -11.424   6.318  68.793  1.00  0.00    -0.294 OA 
HETATM    6  C   UNL     1     -10.694   6.053  67.852  1.00  0.00    -0.284 C  
HETATM    7  O   UNL     1     -11.155   5.702  66.620  1.00  0.00    -0.202 OA 
ENDROOT
BRANCH   4   8
HETATM    8  C   UNL     1      -8.677   7.468  68.298  1.00  0.00    -0.123 C  
HETATM    9  O   UNL     1      -9.001   7.746  69.664  1.00  0.00    -0.142 OA 
HETATM   10  H   UNL     1      -8.705   8.615  69.908  1.00  0.00     0.000 HD 
BRANCH   8  11
HETATM   11  C   UNL     1      -9.303   8.544  67.424  1.00  0.00    -0.178 A  
HETATM   12  C   UNL     1     -10.195   9.491  67.966  1.00  0.00    -0.244 A  
HETATM   13  C   UNL     1     -10.803  10.427  67.139  1.00  0.00    -0.238 A  
HETATM   14  C   UNL     1     -10.526  10.444  65.777  1.00  0.00    -0.117 A  
HETATM   15  O   UNL     1     -11.694  11.345  67.622  1.00  0.00    -0.546 OA 
HETATM   16  H   UNL     1     -12.110  11.985  67.057  1.00  0.00     0.000 HD 
HETATM   17  O   UNL     1     -11.136  11.359  64.969  1.00  0.00    -0.241 OA 
HETATM   18  C   UNL     1      -9.636   9.536  65.223  1.00  0.00    -0.314 A  
HETATM   19  C   UNL     1      -9.027   8.582  66.046  1.00  0.00    -0.228 A  
HETATM   20  H   UNL     1     -10.946  11.371  64.038  1.00  0.00     0.000 HD 
ENDBRANCH   8  11
ENDBRANCH   4   8
TORSDOF 2
ENDMDL
MODEL      241
REMARK 921   NORMALIZED FREE ENERGY PREDICTED BY IDOCK:   -2.86 KCAL/MOL
REMARK 922        TOTAL FREE ENERGY PREDICTED BY IDOCK:   -3.47 KCAL/MOL
REMARK 923 INTER-LIGAND FREE ENERGY PREDICTED BY IDOCK:   -3.31 KCAL/MOL
REMARK 924 INTRA-LIGAND FREE ENERGY PREDICTED BY IDOCK:   -0.15 KCAL/MOL
REMARK 927      BINDING AFFINITY PREDICTED BY RF-SCORE:    0.00 PKD
ROOT
HETATM    1  N   UNL     1     -11.777   8.522  69.744  1.00  0.00    -0.199 NA 
HETATM    2  H1  UNL     1     -12.520   7.824  69.717  1.00  0.00     0.000 HD 
HETATM    3  H2  UNL     1     -11.388   8.722  68.823  1.00  0.00     0.000 HD 
HETATM    4  CA  UNL     1     -10.738   8.050  70.730  1.00  0.00    -0.223 C  
HETATM    5  OXT UNL     1      -8.675   9.087  71.539  1.00  0.00    -0.304 OA 
HETATM    6  C   UNL     1      -9.621   9.100  70.770  1.00  0.00    -0.275 C  
HETATM    7  O   UNL     1      -9.823  10.077  69.845  1.00  0.00    -0.235 OA 
ENDROOT
BRANCH   4   8
HETATM    8  C   UNL     1     -10.098   6.665  70.437  1.00  0.00    -0.183 C  
HETATM    9  O   UNL     1      -8.947   6.457  71.262  1.00  0.00    -0.142 OA 
HETATM   10  H   UNL     1      -8.555   5.610  71.083  1.00  0.00     0.000 HD 
BRANCH   8  11
HETATM   11  C   UNL     1      -9.679   6.531  68.980  1.00  0.00    -0.140 A  
HETATM   12  C   UNL     1     -10.599   6.121  67.995  1.00  0.00    -0.334 A  
HETATM   13  C   UNL     1     -10.181   5.946  66.682  1.00  0.00    -0.205 A  
HETATM   14  C   UNL     1      -8.858   6.188  66.330  1.00  0.00    -0.146 A  
HETATM   15  O   UNL     1     -11.036   5.524  65.703  1.00  0.00    -0.498 OA 
HETATM   16  H   UNL     1     -10.751   5.404  64.806  1.00  0.00     0.000 HD 
HETATM   17  O   UNL     1      -8.452   6.003  65.040  1.00  0.00    -0.192 OA 
HETATM   18  C   UNL     1      -7.938   6.612  67.277  1.00  0.00    -0.117 A  
HETATM   19  C   UNL     1      -8.347   6.780  68.604  1.00  0.00    -0.120 A  
HETATM   20  H   UNL     1      -7.547   6.168  64.799  1.00  0.00     0.000 HD 
ENDBRANCH   8  11
ENDBRANCH   4   8
TORSDOF 2
ENDMDL
MODEL      242
REMARK 921   NORMALIZED FREE ENERGY PREDICTED BY IDOCK:   -2.85 KCAL/MOL
REMARK 922        TOTAL FREE ENERGY PREDICTED BY IDOCK:   -3.45 KCAL/MOL
REMARK 923 INTER-LIGAND FREE ENERGY PREDICTED BY IDOCK:   -3.34 KCAL/MOL
REMARK 924 INTRA-LIGAND FREE ENERGY PREDICTED BY IDOCK:   -0.11 KCAL/MOL
REMARK 927      BINDING AFFINITY PREDICTED BY RF-SCORE:    0.00 PKD
ROOT
HETATM    1  N   UNL     1      -9.414   7.799  65.806  1.00  0.00    -0.405 NA 
HETATM    2  H1  UNL     1      -9.794   7.375  64.960  1.00  0.00     0.000 HD 
HETATM    3  H2  UNL     1      -8.577   7.325  66.145  1.00  0.00     0.000 HD 
HETATM    4  CA  UNL     1     -10.518   7.846  66.833  1.00  0.00    -0.318 C  
HETATM    5  OXT UNL     1     -10.594   8.771  69.097  1.00  0.00    -0.224 OA 
HETATM    6  C   UNL     1      -9.945   8.483  68.105  1.00  0.00    -0.181 C  
HETATM    7  O   UNL     1      -8.610   8.714  67.988  1.00  0.00    -0.135 OA 
ENDROOT
BRANCH   4   8
HETATM    8  C   UNL     1     -11.156   6.481  67.213  1.00  0.00    -0.350 C  
HETATM    9  O   UNL     1     -11.538   6.471  68.593  1.00  0.00    -0.560 OA 
HETATM   10  H   UNL     1     -11.929   5.637  68.825  1.00  0.00     0.000 HD 
BRANCH   8  11
HETATM   11  C   UNL     1     -10.201   5.322  66.968  1.00  0.00    -0.274 A  
HETATM   12  C   UNL     1      -9.191   5.005  67.897  1.00  0.00    -0.135 A  
HETATM   13  C   UNL     1      -8.291   3.982  67.625  1.00  0.00    -0.094 A  
HETATM   14  C   UNL     1      -8.390   3.258  66.443  1.00  0.00    -0.099 A  
HETATM   15  O   UNL     1      -7.281   3.662  68.489  1.00  0.00    -0.050 OA 
HETATM   16  H   UNL     1      -6.666   2.963  68.303  1.00  0.00     0.000 HD 
HETATM   17  O   UNL     1      -7.495   2.263  66.177  1.00  0.00    -0.064 OA 
HETATM   18  C   UNL     1      -9.388   3.538  65.521  1.00  0.00    -0.158 A  
HETATM   19  C   UNL     1     -10.291   4.573  65.781  1.00  0.00    -0.287 A  
HETATM   20  H   UNL     1      -7.562   1.768  65.368  1.00  0.00     0.000 HD 
ENDBRANCH   8  11
ENDBRANCH   4   8
TORSDOF 2
ENDMDL
MODEL      243
REMARK 921   NORMALIZED FREE ENERGY PREDICTED BY IDOCK:   -2.82 KCAL/MOL
REMARK 922        TOTAL FREE ENERGY PREDICTED BY IDOCK:   -3.41 KCAL/MOL
REMARK 923 INTER-LIGAND FREE ENERGY PREDICTED BY IDOCK:   -3.12 KCAL/MOL
REMARK 924 INTRA-LIGAND FREE ENERGY PREDICTED BY IDOCK:   -0.29 KCAL/MOL
REMARK 927      BINDING AFFINITY PREDICTED BY RF-SCORE:    0.00 PKD
ROOT
HETATM    1  N   UNL     1      -7.450   6.510  66.775  1.00  0.00    -0.078 NA 
HETATM    2  H1  UNL     1      -7.404   6.987  67.675  1.00  0.00     0.000 HD 
HETATM    3  H2  UNL     1      -7.292   7.137  65.986  1.00  0.00     0.000 HD 
HETATM    4  CA  UNL     1      -8.778   5.797  66.700  1.00  0.00    -0.119 C  
HETATM    5  OXT UNL     1      -9.738   4.322  65.000  1.00  0.00    -0.173 OA 
HETATM    6  C   UNL     1      -8.847   5.080  65.346  1.00  0.00    -0.152 C  
HETATM    7  O   UNL     1      -7.770   5.377  64.570  1.00  0.00    -0.084 OA 
ENDROOT
BRANCH   4   8
HETATM    8  C   UNL     1     -10.041   6.689  66.849  1.00  0.00    -0.195 C  
HETATM    9  O   UNL     1     -10.019   7.755  65.894  1.00  0.00    -0.396 OA 
HETATM   10  H   UNL     1     -10.792   8.301  65.985  1.00  0.00     0.000 HD 
BRANCH   8  11
HETATM   11  C   UNL     1     -10.150   7.289  68.242  1.00  0.00    -0.193 A  
HETATM   12  C   UNL     1     -10.337   8.673  68.424  1.00  0.00    -0.239 A  
HETATM   13  C   UNL     1     -10.372   9.209  69.705  1.00  0.00    -0.219 A  
HETATM   14  C   UNL     1     -10.237   8.382  70.814  1.00  0.00    -0.194 A  
HETATM   15  O   UNL     1     -10.525  10.550  69.921  1.00  0.00    -0.361 OA 
HETATM   16  H   UNL     1     -10.549  10.917  70.797  1.00  0.00     0.000 HD 
HETATM   17  O   UNL     1     -10.261   8.917  72.069  1.00  0.00    -0.334 OA 
HETATM   18  C   UNL     1     -10.073   7.014  70.662  1.00  0.00    -0.201 A  
HETATM   19  C   UNL     1     -10.025   6.466  69.376  1.00  0.00    -0.184 A  
HETATM   20  H   UNL     1     -10.169   8.352  72.828  1.00  0.00     0.000 HD 
ENDBRANCH   8  11
ENDBRANCH   4   8
TORSDOF 2
ENDMDL
MODEL      244
REMARK 921   NORMALIZED FREE ENERGY PREDICTED BY IDOCK:   -2.77 KCAL/MOL
REMARK 922        TOTAL FREE ENERGY PREDICTED BY IDOCK:   -3.37 KCAL/MOL
REMARK 923 INTER-LIGAND FREE ENERGY PREDICTED BY IDOCK:   -3.11 KCAL/MOL
REMARK 924 INTRA-LIGAND FREE ENERGY PREDICTED BY IDOCK:   -0.26 KCAL/MOL
REMARK 927      BINDING AFFINITY PREDICTED BY RF-SCORE:    0.00 PKD
ROOT
HETATM    1  N   UNL     1      -9.274  11.050  68.992  1.00  0.00    -0.345 NA 
HETATM    2  H1  UNL     1      -9.747  10.989  69.894  1.00  0.00     0.000 HD 
HETATM    3  H2  UNL     1      -9.796  11.596  68.307  1.00  0.00     0.000 HD 
HETATM    4  CA  UNL     1      -8.990   9.643  68.527  1.00  0.00    -0.124 C  
HETATM    5  OXT UNL     1      -7.811   8.788  66.560  1.00  0.00    -0.100 OA 
HETATM    6  C   UNL     1      -8.279   9.735  67.171  1.00  0.00    -0.121 C  
HETATM    7  O   UNL     1      -8.211  11.020  66.730  1.00  0.00    -0.137 OA 
ENDROOT
BRANCH   4   8
HETATM    8  C   UNL     1     -10.225   8.713  68.371  1.00  0.00    -0.200 C  
HETATM    9  O   UNL     1     -11.433   9.480  68.352  1.00  0.00    -0.446 OA 
HETATM   10  H   UNL     1     -12.188   8.911  68.257  1.00  0.00     0.000 HD 
BRANCH   8  11
HETATM   11  C   UNL     1     -10.315   7.697  69.501  1.00  0.00    -0.217 A  
HETATM   12  C   UNL     1      -9.236   6.839  69.792  1.00  0.00    -0.146 A  
HETATM   13  C   UNL     1      -9.361   5.877  70.787  1.00  0.00    -0.160 A  
HETATM   14  C   UNL     1     -10.544   5.765  71.508  1.00  0.00    -0.246 A  
HETATM   15  O   UNL     1      -8.347   5.009  71.081  1.00  0.00    -0.110 OA 
HETATM   16  H   UNL     1      -8.432   4.351  71.761  1.00  0.00     0.000 HD 
HETATM   17  O   UNL     1     -10.663   4.810  72.476  1.00  0.00    -0.209 OA 
HETATM   18  C   UNL     1     -11.612   6.612  71.254  1.00  0.00    -0.374 A  
HETATM   19  C   UNL     1     -11.500   7.575  70.247  1.00  0.00    -0.173 A  
HETATM   20  H   UNL     1     -11.472   4.733  72.969  1.00  0.00     0.000 HD 
ENDBRANCH   8  11
ENDBRANCH   4   8
TORSDOF 2
ENDMDL
MODEL      245
REMARK 921   NORMALIZED FREE ENERGY PREDICTED BY IDOCK:   -2.77 KCAL/MOL
REMARK 922        TOTAL FREE ENERGY PREDICTED BY IDOCK:   -3.36 KCAL/MOL
REMARK 923 INTER-LIGAND FREE ENERGY PREDICTED BY IDOCK:   -2.96 KCAL/MOL
REMARK 924 INTRA-LIGAND FREE ENERGY PREDICTED BY IDOCK:   -0.40 KCAL/MOL
REMARK 927      BINDING AFFINITY PREDICTED BY RF-SCORE:    0.00 PKD
ROOT
HETATM    1  N   UNL     1      -9.887   9.603  65.194  1.00  0.00    -0.435 NA 
HETATM    2  H1  UNL     1     -10.549  10.150  65.745  1.00  0.00     0.000 HD 
HETATM    3  H2  UNL     1     -10.064   8.600  65.244  1.00  0.00     0.000 HD 
HETATM    4  CA  UNL     1      -8.496   9.977  65.644  1.00  0.00    -0.148 C  
HETATM    5  OXT UNL     1      -6.289   9.284  64.847  1.00  0.00    -0.065 OA 
HETATM    6  C   UNL     1      -7.502   9.154  64.816  1.00  0.00    -0.106 C  
HETATM    7  O   UNL     1      -8.141   8.261  64.013  1.00  0.00    -0.149 OA 
ENDROOT
BRANCH   4   8
HETATM    8  C   UNL     1      -8.182   9.755  67.149  1.00  0.00    -0.121 C  
HETATM    9  O   UNL     1      -7.970   8.365  67.420  1.00  0.00    -0.104 OA 
HETATM   10  H   UNL     1      -7.778   8.230  68.340  1.00  0.00     0.000 HD 
BRANCH   8  11
HETATM   11  C   UNL     1      -9.308  10.255  68.042  1.00  0.00    -0.145 A  
HETATM   12  C   UNL     1      -9.533  11.634  68.223  1.00  0.00    -0.191 A  
HETATM   13  C   UNL     1     -10.527  12.070  69.090  1.00  0.00     0.033 A  
HETATM   14  C   UNL     1     -11.313  11.149  69.774  1.00  0.00    -0.278 A  
HETATM   15  O   UNL     1     -10.759  13.398  69.312  1.00  0.00    -0.428 OA 
HETATM   16  H   UNL     1     -11.438  13.696  69.905  1.00  0.00     0.000 HD 
HETATM   17  O   UNL     1     -12.279  11.584  70.633  1.00  0.00    -0.364 OA 
HETATM   18  C   UNL     1     -11.125   9.787  69.598  1.00  0.00    -0.251 A  
HETATM   19  C   UNL     1     -10.119   9.339  68.735  1.00  0.00    -0.210 A  
HETATM   20  H   UNL     1     -12.817  10.955  71.101  1.00  0.00     0.000 HD 
ENDBRANCH   8  11
ENDBRANCH   4   8
TORSDOF 2
ENDMDL
MODEL      246
REMARK 921   NORMALIZED FREE ENERGY PREDICTED BY IDOCK:   -2.75 KCAL/MOL
REMARK 922        TOTAL FREE ENERGY PREDICTED BY IDOCK:   -3.34 KCAL/MOL
REMARK 923 INTER-LIGAND FREE ENERGY PREDICTED BY IDOCK:   -4.35 KCAL/MOL
REMARK 924 INTRA-LIGAND FREE ENERGY PREDICTED BY IDOCK:    1.01 KCAL/MOL
REMARK 927      BINDING AFFINITY PREDICTED BY RF-SCORE:    0.00 PKD
ROOT
HETATM    1  N   UNL     1     -11.277   8.977  71.696  1.00  0.00    -0.337 NA 
HETATM    2  H1  UNL     1     -10.415   8.507  71.421  1.00  0.00     0.000 HD 
HETATM    3  H2  UNL     1     -12.111   8.426  71.491  1.00  0.00     0.000 HD 
HETATM    4  CA  UNL     1     -11.292  10.332  71.033  1.00  0.00    -0.226 C  
HETATM    5  OXT UNL     1     -12.875  12.193  71.174  1.00  0.00    -0.326 OA 
HETATM    6  C   UNL     1     -12.590  11.038  71.445  1.00  0.00    -0.393 C  
HETATM    7  O   UNL     1     -13.391  10.220  72.179  1.00  0.00    -0.443 OA 
ENDROOT
BRANCH   4   8
HETATM    8  C   UNL     1     -11.205  10.335  69.482  1.00  0.00    -0.261 C  
HETATM    9  O   UNL     1     -12.447  10.754  68.908  1.00  0.00    -0.782 OA 
HETATM   10  H   UNL     1     -12.394  10.756  67.959  1.00  0.00     0.000 HD 
BRANCH   8  11
HETATM   11  C   UNL     1     -10.858   8.959  68.932  1.00  0.00    -0.052 A  
HETATM   12  C   UNL     1     -10.174   8.818  67.708  1.00  0.00    -0.285 A  
HETATM   13  C   UNL     1      -9.922   7.552  67.194  1.00  0.00    -0.220 A  
HETATM   14  C   UNL     1     -10.330   6.419  67.888  1.00  0.00    -0.190 A  
HETATM   15  O   UNL     1      -9.284   7.374  65.998  1.00  0.00    -0.322 OA 
HETATM   16  H   UNL     1      -9.112   6.509  65.646  1.00  0.00     0.000 HD 
HETATM   17  O   UNL     1     -10.089   5.180  67.372  1.00  0.00    -0.170 OA 
HETATM   18  C   UNL     1     -10.986   6.532  69.105  1.00  0.00    -0.380 A  
HETATM   19  C   UNL     1     -11.255   7.802  69.625  1.00  0.00     0.041 A  
HETATM   20  H   UNL     1     -10.368   4.405  67.846  1.00  0.00     0.000 HD 
ENDBRANCH   8  11
ENDBRANCH   4   8
TORSDOF 2
ENDMDL
MODEL      247
REMARK 921   NORMALIZED FREE ENERGY PREDICTED BY IDOCK:   -2.72 KCAL/MOL
REMARK 922        TOTAL FREE ENERGY PREDICTED BY IDOCK:   -3.31 KCAL/MOL
REMARK 923 INTER-LIGAND FREE ENERGY PREDICTED BY IDOCK:   -3.05 KCAL/MOL
REMARK 924 INTRA-LIGAND FREE ENERGY PREDICTED BY IDOCK:   -0.26 KCAL/MOL
REMARK 927      BINDING AFFINITY PREDICTED BY RF-SCORE:    0.00 PKD
ROOT
HETATM    1  N   UNL     1      -9.224   7.292  71.810  1.00  0.00    -0.142 NA 
HETATM    2  H1  UNL     1      -8.495   6.943  71.188  1.00  0.00     0.000 HD 
HETATM    3  H2  UNL     1      -9.134   6.938  72.763  1.00  0.00     0.000 HD 
HETATM    4  CA  UNL     1     -10.557   6.964  71.186  1.00  0.00    -0.222 C  
HETATM    5  OXT UNL     1     -12.847   7.486  71.874  1.00  0.00    -0.316 OA 
HETATM    6  C   UNL     1     -11.653   7.488  72.123  1.00  0.00    -0.298 C  
HETATM    7  O   UNL     1     -11.126   7.985  73.275  1.00  0.00    -0.251 OA 
ENDROOT
BRANCH   4   8
HETATM    8  C   UNL     1     -10.829   5.460  70.907  1.00  0.00    -0.120 C  
HETATM    9  O   UNL     1     -10.046   4.637  71.778  1.00  0.00    -0.185 OA 
HETATM   10  H   UNL     1     -10.212   3.717  71.609  1.00  0.00     0.000 HD 
BRANCH   8  11
HETATM   11  C   UNL     1     -10.508   5.083  69.469  1.00  0.00    -0.129 A  
HETATM   12  C   UNL     1      -9.760   3.927  69.171  1.00  0.00    -0.143 A  
HETATM   13  C   UNL     1      -9.426   3.635  67.855  1.00  0.00    -0.169 A  
HETATM   14  C   UNL     1      -9.837   4.472  66.824  1.00  0.00    -0.221 A  
HETATM   15  O   UNL     1      -8.679   2.538  67.527  1.00  0.00    -0.096 OA 
HETATM   16  H   UNL     1      -8.450   2.338  66.628  1.00  0.00     0.000 HD 
HETATM   17  O   UNL     1      -9.495   4.186  65.535  1.00  0.00    -0.152 OA 
HETATM   18  C   UNL     1     -10.592   5.605  67.090  1.00  0.00    -0.344 A  
HETATM   19  C   UNL     1     -10.924   5.914  68.413  1.00  0.00    -0.264 A  
HETATM   20  H   UNL     1      -9.776   4.758  64.831  1.00  0.00     0.000 HD 
ENDBRANCH   8  11
ENDBRANCH   4   8
TORSDOF 2
ENDMDL
MODEL      248
REMARK 921   NORMALIZED FREE ENERGY PREDICTED BY IDOCK:   -2.71 KCAL/MOL
REMARK 922        TOTAL FREE ENERGY PREDICTED BY IDOCK:   -3.30 KCAL/MOL
REMARK 923 INTER-LIGAND FREE ENERGY PREDICTED BY IDOCK:   -3.02 KCAL/MOL
REMARK 924 INTRA-LIGAND FREE ENERGY PREDICTED BY IDOCK:   -0.27 KCAL/MOL
REMARK 927      BINDING AFFINITY PREDICTED BY RF-SCORE:    0.00 PKD
ROOT
HETATM    1  N   UNL     1      -9.477   7.848  73.365  1.00  0.00    -0.284 NA 
HETATM    2  H1  UNL     1      -9.693   8.845  73.336  1.00  0.00     0.000 HD 
HETATM    3  H2  UNL     1      -8.796   7.570  72.657  1.00  0.00     0.000 HD 
HETATM    4  CA  UNL     1     -10.778   7.093  73.257  1.00  0.00    -0.361 C  
HETATM    5  OXT UNL     1     -11.279   4.699  73.342  1.00  0.00    -0.309 OA 
HETATM    6  C   UNL     1     -10.452   5.595  73.300  1.00  0.00    -0.231 C  
HETATM    7  O   UNL     1      -9.109   5.377  73.307  1.00  0.00    -0.127 OA 
ENDROOT
BRANCH   4   8
HETATM    8  C   UNL     1     -11.628   7.374  71.987  1.00  0.00    -0.284 C  
HETATM    9  O   UNL     1     -10.827   7.247  70.807  1.00  0.00    -0.232 OA 
HETATM   10  H   UNL     1     -11.346   7.418  70.031  1.00  0.00     0.000 HD 
BRANCH   8  11
HETATM   11  C   UNL     1     -12.237   8.767  72.010  1.00  0.00    -0.447 A  
HETATM   12  C   UNL     1     -11.704   9.805  71.220  1.00  0.00    -0.472 A  
HETATM   13  C   UNL     1     -12.236  11.086  71.303  1.00  0.00    -0.259 A  
HETATM   14  C   UNL     1     -13.304  11.348  72.153  1.00  0.00    -0.166 A  
HETATM   15  O   UNL     1     -11.730  12.125  70.573  1.00  0.00    -0.513 OA 
HETATM   16  H   UNL     1     -12.094  13.000  70.629  1.00  0.00     0.000 HD 
HETATM   17  O   UNL     1     -13.814  12.610  72.238  1.00  0.00    -0.446 OA 
HETATM   18  C   UNL     1     -13.859  10.338  72.925  1.00  0.00     1.155 A  
HETATM   19  C   UNL     1     -13.323   9.048  72.858  1.00  0.00    -0.048 A  
HETATM   20  H   UNL     1     -14.544  12.789  72.819  1.00  0.00     0.000 HD 
ENDBRANCH   8  11
ENDBRANCH   4   8
TORSDOF 2
ENDMDL
MODEL      249
REMARK 921   NORMALIZED FREE ENERGY PREDICTED BY IDOCK:   -2.69 KCAL/MOL
REMARK 922        TOTAL FREE ENERGY PREDICTED BY IDOCK:   -3.27 KCAL/MOL
REMARK 923 INTER-LIGAND FREE ENERGY PREDICTED BY IDOCK:   -3.08 KCAL/MOL
REMARK 924 INTRA-LIGAND FREE ENERGY PREDICTED BY IDOCK:   -0.19 KCAL/MOL
REMARK 927      BINDING AFFINITY PREDICTED BY RF-SCORE:    0.00 PKD
ROOT
HETATM    1  N   UNL     1      -9.712   7.846  73.291  1.00  0.00    -0.295 NA 
HETATM    2  H1  UNL     1      -9.496   8.797  72.991  1.00  0.00     0.000 HD 
HETATM    3  H2  UNL     1      -8.948   7.193  73.117  1.00  0.00     0.000 HD 
HETATM    4  CA  UNL     1     -11.000   7.435  72.622  1.00  0.00    -0.317 C  
HETATM    5  OXT UNL     1     -12.351   5.403  72.806  1.00  0.00    -0.066 OA 
HETATM    6  C   UNL     1     -11.324   6.006  73.073  1.00  0.00    -0.141 C  
HETATM    7  O   UNL     1     -10.326   5.486  73.837  1.00  0.00    -0.218 OA 
ENDROOT
BRANCH   4   8
HETATM    8  C   UNL     1     -11.005   7.472  71.069  1.00  0.00    -0.251 C  
HETATM    9  O   UNL     1     -12.300   7.131  70.562  1.00  0.00    -0.582 OA 
HETATM   10  H   UNL     1     -12.303   7.154  69.612  1.00  0.00     0.000 HD 
BRANCH   8  11
HETATM   11  C   UNL     1      -9.985   6.512  70.476  1.00  0.00    -0.206 A  
HETATM   12  C   UNL     1      -8.603   6.757  70.597  1.00  0.00    -0.142 A  
HETATM   13  C   UNL     1      -7.690   5.900  69.995  1.00  0.00    -0.088 A  
HETATM   14  C   UNL     1      -8.132   4.791  69.283  1.00  0.00    -0.074 A  
HETATM   15  O   UNL     1      -6.342   6.118  70.068  1.00  0.00    -0.032 OA 
HETATM   16  H   UNL     1      -5.717   5.532  69.656  1.00  0.00     0.000 HD 
HETATM   17  O   UNL     1      -7.230   3.961  68.685  1.00  0.00    -0.053 OA 
HETATM   18  C   UNL     1      -9.487   4.518  69.167  1.00  0.00    -0.233 A  
HETATM   19  C   UNL     1     -10.415   5.381  69.760  1.00  0.00    -0.378 A  
HETATM   20  H   UNL     1      -7.532   3.203  68.198  1.00  0.00     0.000 HD 
ENDBRANCH   8  11
ENDBRANCH   4   8
TORSDOF 2
ENDMDL
MODEL      250
REMARK 921   NORMALIZED FREE ENERGY PREDICTED BY IDOCK:   -2.66 KCAL/MOL
REMARK 922        TOTAL FREE ENERGY PREDICTED BY IDOCK:   -3.24 KCAL/MOL
REMARK 923 INTER-LIGAND FREE ENERGY PREDICTED BY IDOCK:   -3.09 KCAL/MOL
REMARK 924 INTRA-LIGAND FREE ENERGY PREDICTED BY IDOCK:   -0.15 KCAL/MOL
REMARK 927      BINDING AFFINITY PREDICTED BY RF-SCORE:    0.00 PKD
ROOT
HETATM    1  N   UNL     1     -10.384  10.348  63.732  1.00  0.00    -0.450 NA 
HETATM    2  H1  UNL     1     -11.105  10.924  64.169  1.00  0.00     0.000 HD 
HETATM    3  H2  UNL     1     -10.519   9.351  63.900  1.00  0.00     0.000 HD 
HETATM    4  CA  UNL     1      -9.044  10.848  64.212  1.00  0.00    -0.152 C  
HETATM    5  OXT UNL     1      -6.761  10.177  63.642  1.00  0.00    -0.131 OA 
HETATM    6  C   UNL     1      -7.962   9.981  63.556  1.00  0.00    -0.157 C  
HETATM    7  O   UNL     1      -8.507   8.962  62.839  1.00  0.00    -0.196 OA 
ENDROOT
BRANCH   4   8
HETATM    8  C   UNL     1      -8.819  10.833  65.749  1.00  0.00    -0.188 C  
HETATM    9  O   UNL     1      -7.506  11.303  66.070  1.00  0.00    -0.349 OA 
HETATM   10  H   UNL     1      -7.369  11.295  67.010  1.00  0.00     0.000 HD 
BRANCH   8  11
HETATM   11  C   UNL     1      -8.991   9.439  66.333  1.00  0.00    -0.182 A  
HETATM   12  C   UNL     1      -7.875   8.618  66.591  1.00  0.00    -0.097 A  
HETATM   13  C   UNL     1      -8.056   7.326  67.066  1.00  0.00    -0.117 A  
HETATM   14  C   UNL     1      -9.337   6.840  67.303  1.00  0.00    -0.134 A  
HETATM   15  O   UNL     1      -7.001   6.490  67.303  1.00  0.00    -0.070 OA 
HETATM   16  H   UNL     1      -7.125   5.607  67.628  1.00  0.00     0.000 HD 
HETATM   17  O   UNL     1      -9.509   5.565  67.759  1.00  0.00    -0.111 OA 
HETATM   18  C   UNL     1     -10.450   7.635  67.077  1.00  0.00    -0.419 A  
HETATM   19  C   UNL     1     -10.278   8.934  66.588  1.00  0.00    -0.338 A  
HETATM   20  H   UNL     1     -10.384   5.233  67.921  1.00  0.00     0.000 HD 
ENDBRANCH   8  11
ENDBRANCH   4   8
TORSDOF 2
ENDMDL
MODEL      251
REMARK 921   NORMALIZED FREE ENERGY PREDICTED BY IDOCK:   -2.65 KCAL/MOL
REMARK 922        TOTAL FREE ENERGY PREDICTED BY IDOCK:   -3.23 KCAL/MOL
REMARK 923 INTER-LIGAND FREE ENERGY PREDICTED BY IDOCK:   -3.16 KCAL/MOL
REMARK 924 INTRA-LIGAND FREE ENERGY PREDICTED BY IDOCK:   -0.07 KCAL/MOL
REMARK 927      BINDING AFFINITY PREDICTED BY RF-SCORE:    0.00 PKD
ROOT
HETATM    1  N   UNL     1      -6.995   5.834  67.225  1.00  0.00    -0.064 NA 
HETATM    2  H1  UNL     1      -6.222   5.556  67.830  1.00  0.00     0.000 HD 
HETATM    3  H2  UNL     1      -7.293   6.797  67.381  1.00  0.00     0.000 HD 
HETATM    4  CA  UNL     1      -8.111   4.837  67.419  1.00  0.00    -0.102 C  
HETATM    5  OXT UNL     1     -10.295   4.612  66.338  1.00  0.00    -0.262 OA 
HETATM    6  C   UNL     1      -9.273   5.256  66.510  1.00  0.00    -0.139 C  
HETATM    7  O   UNL     1      -9.019   6.440  65.891  1.00  0.00    -0.154 OA 
ENDROOT
BRANCH   4   8
HETATM    8  C   UNL     1      -8.650   4.688  68.868  1.00  0.00    -0.084 C  
HETATM    9  O   UNL     1      -9.581   3.604  68.950  1.00  0.00    -0.163 OA 
HETATM   10  H   UNL     1      -9.910   3.512  69.836  1.00  0.00     0.000 HD 
BRANCH   8  11
HETATM   11  C   UNL     1      -9.342   5.956  69.348  1.00  0.00    -0.150 A  
HETATM   12  C   UNL     1     -10.703   5.947  69.712  1.00  0.00    -0.411 A  
HETATM   13  C   UNL     1     -11.330   7.127  70.089  1.00  0.00    -0.241 A  
HETATM   14  C   UNL     1     -10.618   8.320  70.121  1.00  0.00    -0.233 A  
HETATM   15  O   UNL     1     -12.655   7.164  70.423  1.00  0.00    -0.612 OA 
HETATM   16  H   UNL     1     -13.084   7.971  70.681  1.00  0.00     0.000 HD 
HETATM   17  O   UNL     1     -11.244   9.478  70.481  1.00  0.00    -0.252 OA 
HETATM   18  C   UNL     1      -9.272   8.352  69.787  1.00  0.00    -0.157 A  
HETATM   19  C   UNL     1      -8.634   7.170  69.396  1.00  0.00    -0.134 A  
HETATM   20  H   UNL     1     -10.757  10.294  70.503  1.00  0.00     0.000 HD 
ENDBRANCH   8  11
ENDBRANCH   4   8
TORSDOF 2
ENDMDL
MODEL      252
REMARK 921   NORMALIZED FREE ENERGY PREDICTED BY IDOCK:   -2.64 KCAL/MOL
REMARK 922        TOTAL FREE ENERGY PREDICTED BY IDOCK:   -3.21 KCAL/MOL
REMARK 923 INTER-LIGAND FREE ENERGY PREDICTED BY IDOCK:   -3.13 KCAL/MOL
REMARK 924 INTRA-LIGAND FREE ENERGY PREDICTED BY IDOCK:   -0.08 KCAL/MOL
REMARK 927      BINDING AFFINITY PREDICTED BY RF-SCORE:    0.00 PKD
ROOT
HETATM    1  N   UNL     1      -9.824   3.492  67.435  1.00  0.00    -0.254 NA 
HETATM    2  H1  UNL     1     -10.659   3.405  68.015  1.00  0.00     0.000 HD 
HETATM    3  H2  UNL     1      -8.989   3.721  67.975  1.00  0.00     0.000 HD 
HETATM    4  CA  UNL     1     -10.118   4.504  66.355  1.00  0.00    -0.244 C  
HETATM    5  OXT UNL     1      -8.788   5.289  64.457  1.00  0.00    -0.118 OA 
HETATM    6  C   UNL     1      -8.863   4.635  65.485  1.00  0.00    -0.134 C  
HETATM    7  O   UNL     1      -7.829   3.908  65.989  1.00  0.00    -0.089 OA 
ENDROOT
BRANCH   4   8
HETATM    8  C   UNL     1     -10.530   5.921  66.840  1.00  0.00    -0.286 C  
HETATM    9  O   UNL     1      -9.845   6.929  66.088  1.00  0.00    -0.407 OA 
HETATM   10  H   UNL     1     -10.096   7.795  66.384  1.00  0.00     0.000 HD 
BRANCH   8  11
HETATM   11  C   UNL     1     -10.222   6.126  68.316  1.00  0.00    -0.207 A  
HETATM   12  C   UNL     1      -8.903   6.345  68.758  1.00  0.00    -0.124 A  
HETATM   13  C   UNL     1      -8.635   6.468  70.116  1.00  0.00    -0.140 A  
HETATM   14  C   UNL     1      -9.668   6.390  71.044  1.00  0.00    -0.176 A  
HETATM   15  O   UNL     1      -7.366   6.655  70.586  1.00  0.00    -0.072 OA 
HETATM   16  H   UNL     1      -7.183   6.739  71.514  1.00  0.00     0.000 HD 
HETATM   17  O   UNL     1      -9.396   6.500  72.376  1.00  0.00    -0.138 OA 
HETATM   18  C   UNL     1     -10.978   6.195  70.631  1.00  0.00    -0.376 A  
HETATM   19  C   UNL     1     -11.255   6.059  69.267  1.00  0.00    -0.367 A  
HETATM   20  H   UNL     1     -10.102   6.446  73.010  1.00  0.00     0.000 HD 
ENDBRANCH   8  11
ENDBRANCH   4   8
TORSDOF 2
ENDMDL
MODEL      253
REMARK 921   NORMALIZED FREE ENERGY PREDICTED BY IDOCK:   -2.62 KCAL/MOL
REMARK 922        TOTAL FREE ENERGY PREDICTED BY IDOCK:   -3.20 KCAL/MOL
REMARK 923 INTER-LIGAND FREE ENERGY PREDICTED BY IDOCK:   -2.97 KCAL/MOL
REMARK 924 INTRA-LIGAND FREE ENERGY PREDICTED BY IDOCK:   -0.23 KCAL/MOL
REMARK 927      BINDING AFFINITY PREDICTED BY RF-SCORE:    0.00 PKD
ROOT
HETATM    1  N   UNL     1      -6.851  12.086  68.878  1.00  0.00    -0.098 NA 
HETATM    2  H1  UNL     1      -6.848  13.094  69.029  1.00  0.00     0.000 HD 
HETATM    3  H2  UNL     1      -6.227  11.796  68.124  1.00  0.00     0.000 HD 
HETATM    4  CA  UNL     1      -8.281  11.659  68.652  1.00  0.00    -0.110 C  
HETATM    5  OXT UNL     1      -9.285   9.453  68.315  1.00  0.00    -0.131 OA 
HETATM    6  C   UNL     1      -8.285  10.142  68.424  1.00  0.00    -0.112 C  
HETATM    7  O   UNL     1      -7.020   9.643  68.377  1.00  0.00    -0.064 OA 
ENDROOT
BRANCH   4   8
HETATM    8  C   UNL     1      -9.015  12.336  67.461  1.00  0.00    -0.180 C  
HETATM    9  O   UNL     1      -8.118  12.534  66.364  1.00  0.00    -0.379 OA 
HETATM   10  H   UNL     1      -8.567  12.948  65.636  1.00  0.00     0.000 HD 
BRANCH   8  11
HETATM   11  C   UNL     1      -9.607  13.682  67.852  1.00  0.00    -0.223 A  
HETATM   12  C   UNL     1      -8.844  14.863  67.765  1.00  0.00    -0.173 A  
HETATM   13  C   UNL     1      -9.382  16.072  68.185  1.00  0.00    -0.200 A  
HETATM   14  C   UNL     1     -10.680  16.127  68.681  1.00  0.00    -0.295 A  
HETATM   15  O   UNL     1      -8.665  17.235  68.140  1.00  0.00    -0.228 OA 
HETATM   16  H   UNL     1      -9.033  18.062  68.428  1.00  0.00     0.000 HD 
HETATM   17  O   UNL     1     -11.198  17.316  69.103  1.00  0.00    -0.164 OA 
HETATM   18  C   UNL     1     -11.458  14.982  68.758  1.00  0.00    -0.337 A  
HETATM   19  C   UNL     1     -10.920  13.757  68.348  1.00  0.00    -0.275 A  
HETATM   20  H   UNL     1     -12.085  17.354  69.442  1.00  0.00     0.000 HD 
ENDBRANCH   8  11
ENDBRANCH   4   8
TORSDOF 2
ENDMDL
MODEL      254
REMARK 921   NORMALIZED FREE ENERGY PREDICTED BY IDOCK:   -2.62 KCAL/MOL
REMARK 922        TOTAL FREE ENERGY PREDICTED BY IDOCK:   -3.19 KCAL/MOL
REMARK 923 INTER-LIGAND FREE ENERGY PREDICTED BY IDOCK:   -2.82 KCAL/MOL
REMARK 924 INTRA-LIGAND FREE ENERGY PREDICTED BY IDOCK:   -0.38 KCAL/MOL
REMARK 927      BINDING AFFINITY PREDICTED BY RF-SCORE:    0.00 PKD
ROOT
HETATM    1  N   UNL     1      -9.490   3.443  69.048  1.00  0.00    -0.165 NA 
HETATM    2  H1  UNL     1     -10.124   3.497  69.846  1.00  0.00     0.000 HD 
HETATM    3  H2  UNL     1      -8.528   3.243  69.319  1.00  0.00     0.000 HD 
HETATM    4  CA  UNL     1      -9.624   4.727  68.267  1.00  0.00    -0.149 C  
HETATM    5  OXT UNL     1      -8.603   5.468  66.171  1.00  0.00    -0.121 OA 
HETATM    6  C   UNL     1      -8.671   4.645  67.068  1.00  0.00    -0.104 C  
HETATM    7  O   UNL     1      -7.912   3.517  67.112  1.00  0.00    -0.082 OA 
ENDROOT
BRANCH   4   8
HETATM    8  C   UNL     1      -9.320   6.036  69.047  1.00  0.00    -0.124 C  
HETATM    9  O   UNL     1      -7.920   6.333  69.004  1.00  0.00    -0.106 OA 
HETATM   10  H   UNL     1      -7.733   7.133  69.481  1.00  0.00     0.000 HD 
BRANCH   8  11
HETATM   11  C   UNL     1      -9.749   5.940  70.504  1.00  0.00    -0.217 A  
HETATM   12  C   UNL     1      -8.816   5.645  71.517  1.00  0.00    -0.141 A  
HETATM   13  C   UNL     1      -9.239   5.501  72.833  1.00  0.00    -0.134 A  
HETATM   14  C   UNL     1     -10.581   5.660  73.158  1.00  0.00    -0.247 A  
HETATM   15  O   UNL     1      -8.369   5.189  73.840  1.00  0.00    -0.110 OA 
HETATM   16  H   UNL     1      -8.658   5.091  74.739  1.00  0.00     0.000 HD 
HETATM   17  O   UNL     1     -10.992   5.505  74.450  1.00  0.00    -0.391 OA 
HETATM   18  C   UNL     1     -11.516   5.970  72.182  1.00  0.00    -0.356 A  
HETATM   19  C   UNL     1     -11.101   6.106  70.853  1.00  0.00    -0.371 A  
HETATM   20  H   UNL     1     -11.909   5.614  74.673  1.00  0.00     0.000 HD 
ENDBRANCH   8  11
ENDBRANCH   4   8
TORSDOF 2
ENDMDL
MODEL      255
REMARK 921   NORMALIZED FREE ENERGY PREDICTED BY IDOCK:   -2.56 KCAL/MOL
REMARK 922        TOTAL FREE ENERGY PREDICTED BY IDOCK:   -3.13 KCAL/MOL
REMARK 923 INTER-LIGAND FREE ENERGY PREDICTED BY IDOCK:   -2.97 KCAL/MOL
REMARK 924 INTRA-LIGAND FREE ENERGY PREDICTED BY IDOCK:   -0.15 KCAL/MOL
REMARK 927      BINDING AFFINITY PREDICTED BY RF-SCORE:    0.00 PKD
ROOT
HETATM    1  N   UNL     1      -7.258  10.714  70.263  1.00  0.00    -0.466 NA 
HETATM    2  H1  UNL     1      -7.623   9.781  70.452  1.00  0.00     0.000 HD 
HETATM    3  H2  UNL     1      -7.984  11.432  70.269  1.00  0.00     0.000 HD 
HETATM    4  CA  UNL     1      -6.503  10.656  68.958  1.00  0.00    -0.052 C  
HETATM    5  OXT UNL     1      -5.208  12.347  67.753  1.00  0.00    -0.071 OA 
HETATM    6  C   UNL     1      -5.956  12.060  68.673  1.00  0.00    -0.054 C  
HETATM    7  O   UNL     1      -6.392  12.961  69.594  1.00  0.00    -0.121 OA 
ENDROOT
BRANCH   4   8
HETATM    8  C   UNL     1      -7.314  10.185  67.719  1.00  0.00    -0.088 C  
HETATM    9  O   UNL     1      -6.509  10.246  66.538  1.00  0.00    -0.071 OA 
HETATM   10  H   UNL     1      -7.004   9.958  65.780  1.00  0.00     0.000 HD 
BRANCH   8  11
HETATM   11  C   UNL     1      -8.558  11.034  67.501  1.00  0.00    -0.128 A  
HETATM   12  C   UNL     1      -8.552  12.110  66.592  1.00  0.00    -0.122 A  
HETATM   13  C   UNL     1      -9.679  12.910  66.453  1.00  0.00    -0.263 A  
HETATM   14  C   UNL     1     -10.822  12.646  67.199  1.00  0.00    -0.253 A  
HETATM   15  O   UNL     1      -9.704  13.978  65.601  1.00  0.00    -0.474 OA 
HETATM   16  H   UNL     1     -10.474  14.525  65.506  1.00  0.00     0.000 HD 
HETATM   17  O   UNL     1     -11.921  13.443  67.066  1.00  0.00    -0.382 OA 
HETATM   18  C   UNL     1     -10.859  11.580  68.086  1.00  0.00    -0.259 A  
HETATM   19  C   UNL     1      -9.726  10.776  68.241  1.00  0.00    -0.172 A  
HETATM   20  H   UNL     1     -12.703  13.263  67.576  1.00  0.00     0.000 HD 
ENDBRANCH   8  11
ENDBRANCH   4   8
TORSDOF 2
ENDMDL
MODEL      256
REMARK 921   NORMALIZED FREE ENERGY PREDICTED BY IDOCK:   -2.56 KCAL/MOL
REMARK 922        TOTAL FREE ENERGY PREDICTED BY IDOCK:   -3.13 KCAL/MOL
REMARK 923 INTER-LIGAND FREE ENERGY PREDICTED BY IDOCK:   -2.86 KCAL/MOL
REMARK 924 INTRA-LIGAND FREE ENERGY PREDICTED BY IDOCK:   -0.27 KCAL/MOL
REMARK 927      BINDING AFFINITY PREDICTED BY RF-SCORE:    0.00 PKD
ROOT
HETATM    1  N   UNL     1      -8.175  10.100  68.490  1.00  0.00    -0.107 NA 
HETATM    2  H1  UNL     1      -8.899  10.282  69.186  1.00  0.00     0.000 HD 
HETATM    3  H2  UNL     1      -8.523  10.158  67.533  1.00  0.00     0.000 HD 
HETATM    4  CA  UNL     1      -7.557   8.762  68.810  1.00  0.00    -0.095 C  
HETATM    5  OXT UNL     1      -5.699   7.543  67.784  1.00  0.00    -0.032 OA 
HETATM    6  C   UNL     1      -6.470   8.489  67.763  1.00  0.00    -0.061 C  
HETATM    7  O   UNL     1      -6.451   9.451  66.802  1.00  0.00    -0.065 OA 
ENDROOT
BRANCH   4   8
HETATM    8  C   UNL     1      -8.528   7.549  68.836  1.00  0.00    -0.129 C  
HETATM    9  O   UNL     1      -9.444   7.614  67.739  1.00  0.00    -0.141 OA 
HETATM   10  H   UNL     1     -10.038   6.873  67.755  1.00  0.00     0.000 HD 
BRANCH   8  11
HETATM   11  C   UNL     1      -9.326   7.491  70.130  1.00  0.00    -0.157 A  
HETATM   12  C   UNL     1     -10.734   7.442  70.113  1.00  0.00    -0.254 A  
HETATM   13  C   UNL     1     -11.445   7.452  71.305  1.00  0.00    -0.272 A  
HETATM   14  C   UNL     1     -10.774   7.497  72.522  1.00  0.00    -0.285 A  
HETATM   15  O   UNL     1     -12.812   7.432  71.330  1.00  0.00    -0.412 OA 
HETATM   16  H   UNL     1     -13.299   7.439  72.145  1.00  0.00     0.000 HD 
HETATM   17  O   UNL     1     -11.480   7.519  73.689  1.00  0.00    -0.515 OA 
HETATM   18  C   UNL     1      -9.388   7.526  72.566  1.00  0.00    -0.200 A  
HETATM   19  C   UNL     1      -8.663   7.527  71.370  1.00  0.00    -0.129 A  
HETATM   20  H   UNL     1     -11.021   7.550  74.521  1.00  0.00     0.000 HD 
ENDBRANCH   8  11
ENDBRANCH   4   8
TORSDOF 2
ENDMDL
MODEL      257
REMARK 921   NORMALIZED FREE ENERGY PREDICTED BY IDOCK:   -2.51 KCAL/MOL
REMARK 922        TOTAL FREE ENERGY PREDICTED BY IDOCK:   -3.07 KCAL/MOL
REMARK 923 INTER-LIGAND FREE ENERGY PREDICTED BY IDOCK:   -2.91 KCAL/MOL
REMARK 924 INTRA-LIGAND FREE ENERGY PREDICTED BY IDOCK:   -0.15 KCAL/MOL
REMARK 927      BINDING AFFINITY PREDICTED BY RF-SCORE:    0.00 PKD
ROOT
HETATM    1  N   UNL     1     -11.625   8.731  71.287  1.00  0.00    -0.277 NA 
HETATM    2  H1  UNL     1     -11.792   8.379  72.230  1.00  0.00     0.000 HD 
HETATM    3  H2  UNL     1     -11.804   8.033  70.565  1.00  0.00     0.000 HD 
HETATM    4  CA  UNL     1     -10.217   9.273  71.242  1.00  0.00    -0.313 C  
HETATM    5  OXT UNL     1      -8.967  10.404  69.469  1.00  0.00    -0.182 OA 
HETATM    6  C   UNL     1      -9.966   9.802  69.825  1.00  0.00    -0.236 C  
HETATM    7  O   UNL     1     -11.015   9.535  69.001  1.00  0.00    -0.194 OA 
ENDROOT
BRANCH   4   8
HETATM    8  C   UNL     1      -9.087   8.268  71.598  1.00  0.00    -0.185 C  
HETATM    9  O   UNL     1      -7.802   8.873  71.422  1.00  0.00    -0.186 OA 
HETATM   10  H   UNL     1      -7.111   8.259  71.640  1.00  0.00     0.000 HD 
BRANCH   8  11
HETATM   11  C   UNL     1      -9.153   7.014  70.739  1.00  0.00    -0.154 A  
HETATM   12  C   UNL     1      -8.424   6.919  69.537  1.00  0.00    -0.133 A  
HETATM   13  C   UNL     1      -8.546   5.791  68.736  1.00  0.00    -0.109 A  
HETATM   14  C   UNL     1      -9.376   4.744  69.122  1.00  0.00    -0.135 A  
HETATM   15  O   UNL     1      -7.875   5.672  67.551  1.00  0.00    -0.099 OA 
HETATM   16  H   UNL     1      -7.959   4.901  67.003  1.00  0.00     0.000 HD 
HETATM   17  O   UNL     1      -9.500   3.644  68.324  1.00  0.00    -0.173 OA 
HETATM   18  C   UNL     1     -10.088   4.805  70.310  1.00  0.00    -0.304 A  
HETATM   19  C   UNL     1      -9.981   5.942  71.117  1.00  0.00    -0.236 A  
HETATM   20  H   UNL     1     -10.068   2.929  68.587  1.00  0.00     0.000 HD 
ENDBRANCH   8  11
ENDBRANCH   4   8
TORSDOF 2
ENDMDL
MODEL      258
REMARK 921   NORMALIZED FREE ENERGY PREDICTED BY IDOCK:   -2.48 KCAL/MOL
REMARK 922        TOTAL FREE ENERGY PREDICTED BY IDOCK:   -3.04 KCAL/MOL
REMARK 923 INTER-LIGAND FREE ENERGY PREDICTED BY IDOCK:   -2.65 KCAL/MOL
REMARK 924 INTRA-LIGAND FREE ENERGY PREDICTED BY IDOCK:   -0.39 KCAL/MOL
REMARK 927      BINDING AFFINITY PREDICTED BY RF-SCORE:    0.00 PKD
ROOT
HETATM    1  N   UNL     1     -10.208   7.247  66.547  1.00  0.00    -0.472 NA 
HETATM    2  H1  UNL     1     -10.118   6.895  65.594  1.00  0.00     0.000 HD 
HETATM    3  H2  UNL     1      -9.308   7.476  66.971  1.00  0.00     0.000 HD 
HETATM    4  CA  UNL     1     -10.987   6.228  67.342  1.00  0.00    -0.356 C  
HETATM    5  OXT UNL     1     -11.783   6.235  69.655  1.00  0.00    -0.382 OA 
HETATM    6  C   UNL     1     -11.121   6.757  68.775  1.00  0.00    -0.168 C  
HETATM    7  O   UNL     1     -10.418   7.910  68.947  1.00  0.00    -0.214 OA 
ENDROOT
BRANCH   4   8
HETATM    8  C   UNL     1     -10.381   4.799  67.401  1.00  0.00    -0.019 C  
HETATM    9  O   UNL     1      -9.492   4.675  68.516  1.00  0.00    -0.130 OA 
HETATM   10  H   UNL     1      -9.122   3.801  68.553  1.00  0.00     0.000 HD 
BRANCH   8  11
HETATM   11  C   UNL     1      -9.615   4.456  66.132  1.00  0.00    -0.194 A  
HETATM   12  C   UNL     1      -8.208   4.511  66.097  1.00  0.00    -0.106 A  
HETATM   13  C   UNL     1      -7.530   4.254  64.912  1.00  0.00    -0.073 A  
HETATM   14  C   UNL     1      -8.235   3.928  63.758  1.00  0.00    -0.091 A  
HETATM   15  O   UNL     1      -6.168   4.323  64.830  1.00  0.00    -0.028 OA 
HETATM   16  H   UNL     1      -5.705   4.147  64.020  1.00  0.00     0.000 HD 
HETATM   17  O   UNL     1      -7.564   3.688  62.595  1.00  0.00    -0.055 OA 
HETATM   18  C   UNL     1      -9.620   3.847  63.773  1.00  0.00    -0.157 A  
HETATM   19  C   UNL     1     -10.311   4.115  64.959  1.00  0.00    -0.209 A  
HETATM   20  H   UNL     1      -8.045   3.465  61.807  1.00  0.00     0.000 HD 
ENDBRANCH   8  11
ENDBRANCH   4   8
TORSDOF 2
ENDMDL
MODEL      259
REMARK 921   NORMALIZED FREE ENERGY PREDICTED BY IDOCK:   -2.46 KCAL/MOL
REMARK 922        TOTAL FREE ENERGY PREDICTED BY IDOCK:   -3.01 KCAL/MOL
REMARK 923 INTER-LIGAND FREE ENERGY PREDICTED BY IDOCK:   -2.90 KCAL/MOL
REMARK 924 INTRA-LIGAND FREE ENERGY PREDICTED BY IDOCK:   -0.11 KCAL/MOL
REMARK 927      BINDING AFFINITY PREDICTED BY RF-SCORE:    0.00 PKD
ROOT
HETATM    1  N   UNL     1     -10.209   7.617  67.278  1.00  0.00    -0.243 NA 
HETATM    2  H1  UNL     1     -10.801   7.224  68.010  1.00  0.00     0.000 HD 
HETATM    3  H2  UNL     1      -9.220   7.624  67.530  1.00  0.00     0.000 HD 
HETATM    4  CA  UNL     1     -10.740   8.990  66.946  1.00  0.00    -0.080 C  
HETATM    5  OXT UNL     1     -10.056  10.634  65.268  1.00  0.00    -0.267 OA 
HETATM    6  C   UNL     1      -9.849   9.580  65.846  1.00  0.00    -0.290 C  
HETATM    7  O   UNL     1      -8.793   8.768  65.571  1.00  0.00    -0.178 OA 
ENDROOT
BRANCH   4   8
HETATM    8  C   UNL     1     -10.801  10.002  68.124  1.00  0.00    -0.255 C  
HETATM    9  O   UNL     1     -10.799  11.346  67.632  1.00  0.00    -0.209 OA 
HETATM   10  H   UNL     1     -10.837  11.965  68.352  1.00  0.00     0.000 HD 
BRANCH   8  11
HETATM   11  C   UNL     1      -9.627   9.833  69.077  1.00  0.00    -0.177 A  
HETATM   12  C   UNL     1      -9.808   9.281  70.360  1.00  0.00    -0.290 A  
HETATM   13  C   UNL     1      -8.735   9.193  71.238  1.00  0.00    -0.086 A  
HETATM   14  C   UNL     1      -7.475   9.636  70.851  1.00  0.00     0.074 A  
HETATM   15  O   UNL     1      -8.875   8.687  72.500  1.00  0.00    -0.356 OA 
HETATM   16  H   UNL     1      -8.142   8.627  73.100  1.00  0.00     0.000 HD 
HETATM   17  O   UNL     1      -6.428   9.558  71.722  1.00  0.00    -0.296 OA 
HETATM   18  C   UNL     1      -7.267  10.165  69.586  1.00  0.00    -0.127 A  
HETATM   19  C   UNL     1      -8.344  10.268  68.699  1.00  0.00    -0.122 A  
HETATM   20  H   UNL     1      -5.567   9.861  71.458  1.00  0.00     0.000 HD 
ENDBRANCH   8  11
ENDBRANCH   4   8
TORSDOF 2
ENDMDL
MODEL      260
REMARK 921   NORMALIZED FREE ENERGY PREDICTED BY IDOCK:   -2.42 KCAL/MOL
REMARK 922        TOTAL FREE ENERGY PREDICTED BY IDOCK:   -2.97 KCAL/MOL
REMARK 923 INTER-LIGAND FREE ENERGY PREDICTED BY IDOCK:   -2.70 KCAL/MOL
REMARK 924 INTRA-LIGAND FREE ENERGY PREDICTED BY IDOCK:   -0.27 KCAL/MOL
REMARK 927      BINDING AFFINITY PREDICTED BY RF-SCORE:    0.00 PKD
ROOT
HETATM    1  N   UNL     1      -9.428  11.041  67.642  1.00  0.00    -0.163 NA 
HETATM    2  H1  UNL     1     -10.371  10.670  67.756  1.00  0.00     0.000 HD 
HETATM    3  H2  UNL     1      -9.373  11.771  66.931  1.00  0.00     0.000 HD 
HETATM    4  CA  UNL     1      -8.507   9.880  67.360  1.00  0.00    -0.118 C  
HETATM    5  OXT UNL     1      -6.082   9.765  67.055  1.00  0.00    -0.061 OA 
HETATM    6  C   UNL     1      -7.090  10.439  67.188  1.00  0.00    -0.090 C  
HETATM    7  O   UNL     1      -7.083  11.799  67.222  1.00  0.00    -0.119 OA 
ENDROOT
BRANCH   4   8
HETATM    8  C   UNL     1      -8.851   9.022  66.111  1.00  0.00    -0.164 C  
HETATM    9  O   UNL     1     -10.043   9.505  65.482  1.00  0.00    -0.366 OA 
HETATM   10  H   UNL     1     -10.254   8.981  64.718  1.00  0.00     0.000 HD 
BRANCH   8  11
HETATM   11  C   UNL     1      -9.052   7.557  66.468  1.00  0.00    -0.201 A  
HETATM   12  C   UNL     1      -7.983   6.641  66.404  1.00  0.00    -0.106 A  
HETATM   13  C   UNL     1      -8.202   5.296  66.674  1.00  0.00    -0.108 A  
HETATM   14  C   UNL     1      -9.471   4.849  67.022  1.00  0.00    -0.148 A  
HETATM   15  O   UNL     1      -7.197   4.373  66.597  1.00  0.00    -0.076 OA 
HETATM   16  H   UNL     1      -7.346   3.454  66.781  1.00  0.00     0.000 HD 
HETATM   17  O   UNL     1      -9.681   3.524  67.274  1.00  0.00    -0.302 OA 
HETATM   18  C   UNL     1     -10.535   5.734  67.112  1.00  0.00    -0.337 A  
HETATM   19  C   UNL     1     -10.327   7.088  66.830  1.00  0.00    -0.338 A  
HETATM   20  H   UNL     1     -10.549   3.218  67.512  1.00  0.00     0.000 HD 
ENDBRANCH   8  11
ENDBRANCH   4   8
TORSDOF 2
ENDMDL
MODEL      261
REMARK 921   NORMALIZED FREE ENERGY PREDICTED BY IDOCK:   -2.41 KCAL/MOL
REMARK 922        TOTAL FREE ENERGY PREDICTED BY IDOCK:   -2.96 KCAL/MOL
REMARK 923 INTER-LIGAND FREE ENERGY PREDICTED BY IDOCK:   -2.88 KCAL/MOL
REMARK 924 INTRA-LIGAND FREE ENERGY PREDICTED BY IDOCK:   -0.08 KCAL/MOL
REMARK 927      BINDING AFFINITY PREDICTED BY RF-SCORE:    0.00 PKD
ROOT
HETATM    1  N   UNL     1      -8.150   9.598  71.111  1.00  0.00    -0.307 NA 
HETATM    2  H1  UNL     1      -8.200   8.916  71.867  1.00  0.00     0.000 HD 
HETATM    3  H2  UNL     1      -8.991   9.612  70.534  1.00  0.00     0.000 HD 
HETATM    4  CA  UNL     1      -6.899   9.312  70.317  1.00  0.00    -0.071 C  
HETATM    5  OXT UNL     1      -5.887  10.463  68.409  1.00  0.00    -0.041 OA 
HETATM    6  C   UNL     1      -6.825  10.338  69.179  1.00  0.00    -0.062 C  
HETATM    7  O   UNL     1      -7.937  11.121  69.141  1.00  0.00    -0.125 OA 
ENDROOT
BRANCH   4   8
HETATM    8  C   UNL     1      -6.791   7.889  69.702  1.00  0.00    -0.042 C  
HETATM    9  O   UNL     1      -5.690   7.818  68.790  1.00  0.00    -0.026 OA 
HETATM   10  H   UNL     1      -5.623   6.948  68.415  1.00  0.00     0.000 HD 
BRANCH   8  11
HETATM   11  C   UNL     1      -8.059   7.494  68.961  1.00  0.00    -0.127 A  
HETATM   12  C   UNL     1      -8.361   8.039  67.698  1.00  0.00    -0.128 A  
HETATM   13  C   UNL     1      -9.554   7.712  67.066  1.00  0.00    -0.175 A  
HETATM   14  C   UNL     1     -10.450   6.836  67.669  1.00  0.00    -0.229 A  
HETATM   15  O   UNL     1      -9.896   8.241  65.852  1.00  0.00    -0.466 OA 
HETATM   16  H   UNL     1     -10.711   8.018  65.420  1.00  0.00     0.000 HD 
HETATM   17  O   UNL     1     -11.625   6.529  67.048  1.00  0.00    -0.729 OA 
HETATM   18  C   UNL     1     -10.166   6.270  68.903  1.00  0.00    -0.219 A  
HETATM   19  C   UNL     1      -8.972   6.602  69.552  1.00  0.00    -0.138 A  
HETATM   20  H   UNL     1     -12.237   5.930  67.460  1.00  0.00     0.000 HD 
ENDBRANCH   8  11
ENDBRANCH   4   8
TORSDOF 2
ENDMDL
MODEL      262
REMARK 921   NORMALIZED FREE ENERGY PREDICTED BY IDOCK:   -2.31 KCAL/MOL
REMARK 922        TOTAL FREE ENERGY PREDICTED BY IDOCK:   -2.85 KCAL/MOL
REMARK 923 INTER-LIGAND FREE ENERGY PREDICTED BY IDOCK:   -2.60 KCAL/MOL
REMARK 924 INTRA-LIGAND FREE ENERGY PREDICTED BY IDOCK:   -0.25 KCAL/MOL
REMARK 927      BINDING AFFINITY PREDICTED BY RF-SCORE:    0.00 PKD
ROOT
HETATM    1  N   UNL     1      -7.531  10.090  66.587  1.00  0.00    -0.102 NA 
HETATM    2  H1  UNL     1      -6.940   9.289  66.810  1.00  0.00     0.000 HD 
HETATM    3  H2  UNL     1      -7.816  10.615  67.414  1.00  0.00     0.000 HD 
HETATM    4  CA  UNL     1      -8.703   9.586  65.781  1.00  0.00    -0.147 C  
HETATM    5  OXT UNL     1     -10.568  10.758  64.715  1.00  0.00    -0.310 OA 
HETATM    6  C   UNL     1      -9.591  10.790  65.446  1.00  0.00    -0.223 C  
HETATM    7  O   UNL     1      -9.144  11.923  66.052  1.00  0.00    -0.199 OA 
ENDROOT
BRANCH   4   8
HETATM    8  C   UNL     1      -9.583   8.500  66.460  1.00  0.00    -0.236 C  
HETATM    9  O   UNL     1      -9.439   8.554  67.883  1.00  0.00    -0.138 OA 
HETATM   10  H   UNL     1      -9.977   7.891  68.299  1.00  0.00     0.000 HD 
BRANCH   8  11
HETATM   11  C   UNL     1      -9.219   7.100  65.989  1.00  0.00    -0.069 A  
HETATM   12  C   UNL     1      -9.836   5.963  66.549  1.00  0.00    -0.189 A  
HETATM   13  C   UNL     1      -9.445   4.692  66.149  1.00  0.00    -0.169 A  
HETATM   14  C   UNL     1      -8.454   4.533  65.187  1.00  0.00    -0.126 A  
HETATM   15  O   UNL     1     -10.000   3.565  66.686  1.00  0.00    -0.397 OA 
HETATM   16  H   UNL     1      -9.733   2.695  66.413  1.00  0.00     0.000 HD 
HETATM   17  O   UNL     1      -8.067   3.281  64.807  1.00  0.00    -0.088 OA 
HETATM   18  C   UNL     1      -7.846   5.637  64.607  1.00  0.00    -0.113 A  
HETATM   19  C   UNL     1      -8.225   6.921  65.011  1.00  0.00    -0.096 A  
HETATM   20  H   UNL     1      -7.389   3.173  64.150  1.00  0.00     0.000 HD 
ENDBRANCH   8  11
ENDBRANCH   4   8
TORSDOF 2
ENDMDL
MODEL      263
REMARK 921   NORMALIZED FREE ENERGY PREDICTED BY IDOCK:   -2.16 KCAL/MOL
REMARK 922        TOTAL FREE ENERGY PREDICTED BY IDOCK:   -2.68 KCAL/MOL
REMARK 923 INTER-LIGAND FREE ENERGY PREDICTED BY IDOCK:   -2.43 KCAL/MOL
REMARK 924 INTRA-LIGAND FREE ENERGY PREDICTED BY IDOCK:   -0.25 KCAL/MOL
REMARK 927      BINDING AFFINITY PREDICTED BY RF-SCORE:    0.00 PKD
ROOT
HETATM    1  N   UNL     1      -7.533   9.114  70.525  1.00  0.00    -0.100 NA 
HETATM    2  H1  UNL     1      -6.582   8.846  70.271  1.00  0.00     0.000 HD 
HETATM    3  H2  UNL     1      -7.770   8.868  71.486  1.00  0.00     0.000 HD 
HETATM    4  CA  UNL     1      -8.469   8.499  69.514  1.00  0.00    -0.127 C  
HETATM    5  OXT UNL     1     -10.894   8.665  69.233  1.00  0.00    -0.180 OA 
HETATM    6  C   UNL     1      -9.898   8.902  69.897  1.00  0.00    -0.182 C  
HETATM    7  O   UNL     1      -9.925   9.585  71.073  1.00  0.00    -0.278 OA 
ENDROOT
BRANCH   4   8
HETATM    8  C   UNL     1      -8.413   6.952  69.384  1.00  0.00    -0.133 C  
HETATM    9  O   UNL     1      -7.205   6.442  69.958  1.00  0.00    -0.075 OA 
HETATM   10  H   UNL     1      -7.171   5.496  69.878  1.00  0.00     0.000 HD 
BRANCH   8  11
HETATM   11  C   UNL     1      -8.487   6.503  67.933  1.00  0.00    -0.118 A  
HETATM   12  C   UNL     1      -8.443   7.438  66.880  1.00  0.00    -0.123 A  
HETATM   13  C   UNL     1      -8.574   7.013  65.564  1.00  0.00    -0.081 A  
HETATM   14  C   UNL     1      -8.735   5.662  65.277  1.00  0.00    -0.118 A  
HETATM   15  O   UNL     1      -8.563   7.892  64.518  1.00  0.00    -0.377 OA 
HETATM   16  H   UNL     1      -8.653   7.601  63.618  1.00  0.00     0.000 HD 
HETATM   17  O   UNL     1      -8.874   5.253  63.984  1.00  0.00    -0.317 OA 
HETATM   18  C   UNL     1      -8.760   4.720  66.294  1.00  0.00    -0.114 A  
HETATM   19  C   UNL     1      -8.641   5.140  67.623  1.00  0.00    -0.104 A  
HETATM   20  H   UNL     1      -8.984   4.330  63.787  1.00  0.00     0.000 HD 
ENDBRANCH   8  11
ENDBRANCH   4   8
TORSDOF 2
ENDMDL
MODEL      264
REMARK 921   NORMALIZED FREE ENERGY PREDICTED BY IDOCK:   -2.07 KCAL/MOL
REMARK 922        TOTAL FREE ENERGY PREDICTED BY IDOCK:   -2.58 KCAL/MOL
REMARK 923 INTER-LIGAND FREE ENERGY PREDICTED BY IDOCK:   -2.31 KCAL/MOL
REMARK 924 INTRA-LIGAND FREE ENERGY PREDICTED BY IDOCK:   -0.27 KCAL/MOL
REMARK 927      BINDING AFFINITY PREDICTED BY RF-SCORE:    0.00 PKD
ROOT
HETATM    1  N   UNL     1      -7.634   9.927  69.943  1.00  0.00    -0.146 NA 
HETATM    2  H1  UNL     1      -6.699  10.320  69.828  1.00  0.00     0.000 HD 
HETATM    3  H2  UNL     1      -7.733   9.009  69.509  1.00  0.00     0.000 HD 
HETATM    4  CA  UNL     1      -8.624  10.935  69.415  1.00  0.00     0.110 C  
HETATM    5  OXT UNL     1     -11.071  10.936  69.362  1.00  0.00    -0.223 OA 
HETATM    6  C   UNL     1     -10.028  10.343  69.587  1.00  0.00    -0.174 C  
HETATM    7  O   UNL     1      -9.977   9.064  70.048  1.00  0.00    -0.174 OA 
ENDROOT
BRANCH   4   8
HETATM    8  C   UNL     1      -8.447  11.354  67.929  1.00  0.00    -0.139 C  
HETATM    9  O   UNL     1      -7.372  10.625  67.326  1.00  0.00    -0.088 OA 
HETATM   10  H   UNL     1      -7.264  10.880  66.417  1.00  0.00     0.000 HD 
BRANCH   8  11
HETATM   11  C   UNL     1      -8.161  12.841  67.790  1.00  0.00    -0.168 A  
HETATM   12  C   UNL     1      -9.209  13.772  67.644  1.00  0.00    -0.207 A  
HETATM   13  C   UNL     1      -8.923  15.118  67.457  1.00  0.00    -0.180 A  
HETATM   14  C   UNL     1      -7.604  15.557  67.425  1.00  0.00    -0.201 A  
HETATM   15  O   UNL     1      -9.911  16.047  67.286  1.00  0.00    -0.235 OA 
HETATM   16  H   UNL     1      -9.716  16.968  67.158  1.00  0.00     0.000 HD 
HETATM   17  O   UNL     1      -7.331  16.879  67.229  1.00  0.00    -0.149 OA 
HETATM   18  C   UNL     1      -6.556  14.664  67.587  1.00  0.00    -0.177 A  
HETATM   19  C   UNL     1      -6.833  13.304  67.765  1.00  0.00    -0.154 A  
HETATM   20  H   UNL     1      -6.430  17.180  67.207  1.00  0.00     0.000 HD 
ENDBRANCH   8  11
ENDBRANCH   4   8
TORSDOF 2
ENDMDL
MODEL      265
REMARK 921   NORMALIZED FREE ENERGY PREDICTED BY IDOCK:   -2.06 KCAL/MOL
REMARK 922        TOTAL FREE ENERGY PREDICTED BY IDOCK:   -2.57 KCAL/MOL
REMARK 923 INTER-LIGAND FREE ENERGY PREDICTED BY IDOCK:   -2.93 KCAL/MOL
REMARK 924 INTRA-LIGAND FREE ENERGY PREDICTED BY IDOCK:    0.35 KCAL/MOL
REMARK 927      BINDING AFFINITY PREDICTED BY RF-SCORE:    0.00 PKD
ROOT
HETATM    1  N   UNL     1      -7.523   9.990  67.914  1.00  0.00    -0.088 NA 
HETATM    2  H1  UNL     1      -6.880   9.207  68.030  1.00  0.00     0.000 HD 
HETATM    3  H2  UNL     1      -8.200  10.062  68.674  1.00  0.00     0.000 HD 
HETATM    4  CA  UNL     1      -8.174   9.854  66.560  1.00  0.00    -0.121 C  
HETATM    5  OXT UNL     1      -9.755  11.289  65.364  1.00  0.00    -0.214 OA 
HETATM    6  C   UNL     1      -9.142  11.031  66.386  1.00  0.00    -0.178 C  
HETATM    7  O   UNL     1      -9.222  11.780  67.519  1.00  0.00    -0.168 OA 
ENDROOT
BRANCH   4   8
HETATM    8  C   UNL     1      -8.955   8.535  66.307  1.00  0.00    -0.168 C  
HETATM    9  O   UNL     1      -9.979   8.737  65.327  1.00  0.00    -0.216 OA 
HETATM   10  H   UNL     1     -10.457   7.930  65.172  1.00  0.00     0.000 HD 
BRANCH   8  11
HETATM   11  C   UNL     1      -9.601   8.006  67.579  1.00  0.00    -0.191 A  
HETATM   12  C   UNL     1     -10.369   8.849  68.407  1.00  0.00    -0.237 A  
HETATM   13  C   UNL     1     -10.898   8.363  69.596  1.00  0.00    -0.148 A  
HETATM   14  C   UNL     1     -10.685   7.040  69.968  1.00  0.00    -0.242 A  
HETATM   15  O   UNL     1     -11.626   9.155  70.439  1.00  0.00    -0.381 OA 
HETATM   16  H   UNL     1     -11.987   8.823  71.251  1.00  0.00     0.000 HD 
HETATM   17  O   UNL     1     -11.198   6.572  71.143  1.00  0.00    -0.272 OA 
HETATM   18  C   UNL     1      -9.950   6.186  69.160  1.00  0.00    -0.190 A  
HETATM   19  C   UNL     1      -9.404   6.669  67.967  1.00  0.00    -0.113 A  
HETATM   20  H   UNL     1     -11.053   5.669  71.397  1.00  0.00     0.000 HD 
ENDBRANCH   8  11
ENDBRANCH   4   8
TORSDOF 2
ENDMDL
MODEL      266
REMARK 921   NORMALIZED FREE ENERGY PREDICTED BY IDOCK:   -1.95 KCAL/MOL
REMARK 922        TOTAL FREE ENERGY PREDICTED BY IDOCK:   -2.45 KCAL/MOL
REMARK 923 INTER-LIGAND FREE ENERGY PREDICTED BY IDOCK:   -2.39 KCAL/MOL
REMARK 924 INTRA-LIGAND FREE ENERGY PREDICTED BY IDOCK:   -0.05 KCAL/MOL
REMARK 927      BINDING AFFINITY PREDICTED BY RF-SCORE:    0.00 PKD
ROOT
HETATM    1  N   UNL     1     -10.963   8.506  72.214  1.00  0.00    -0.359 NA 
HETATM    2  H1  UNL     1     -10.756   8.301  73.191  1.00  0.00     0.000 HD 
HETATM    3  H2  UNL     1     -11.242   7.678  71.686  1.00  0.00     0.000 HD 
HETATM    4  CA  UNL     1      -9.760   9.199  71.624  1.00  0.00    -0.193 C  
HETATM    5  OXT UNL     1      -9.360  10.157  69.408  1.00  0.00    -0.201 OA 
HETATM    6  C   UNL     1     -10.073   9.507  70.155  1.00  0.00    -0.249 C  
HETATM    7  O   UNL     1     -11.269   8.978  69.779  1.00  0.00    -0.163 OA 
ENDROOT
BRANCH   4   8
HETATM    8  C   UNL     1      -8.421   8.415  71.687  1.00  0.00    -0.163 C  
HETATM    9  O   UNL     1      -7.894   8.212  70.371  1.00  0.00    -0.085 OA 
HETATM   10  H   UNL     1      -7.075   7.732  70.410  1.00  0.00     0.000 HD 
BRANCH   8  11
HETATM   11  C   UNL     1      -8.589   7.059  72.355  1.00  0.00    -0.130 A  
HETATM   12  C   UNL     1      -8.643   5.875  71.592  1.00  0.00    -0.132 A  
HETATM   13  C   UNL     1      -8.859   4.654  72.217  1.00  0.00    -0.122 A  
HETATM   14  C   UNL     1      -9.011   4.589  73.597  1.00  0.00    -0.103 A  
HETATM   15  O   UNL     1      -8.943   3.487  71.509  1.00  0.00    -0.094 OA 
HETATM   16  H   UNL     1      -9.091   2.652  71.936  1.00  0.00     0.000 HD 
HETATM   17  O   UNL     1      -9.235   3.387  74.202  1.00  0.00    -0.089 OA 
HETATM   18  C   UNL     1      -8.942   5.737  74.372  1.00  0.00    -0.123 A  
HETATM   19  C   UNL     1      -8.736   6.974  73.751  1.00  0.00    -0.187 A  
HETATM   20  H   UNL     1      -9.339   3.343  75.146  1.00  0.00     0.000 HD 
ENDBRANCH   8  11
ENDBRANCH   4   8
TORSDOF 2
ENDMDL
MODEL      267
REMARK 921   NORMALIZED FREE ENERGY PREDICTED BY IDOCK:   -1.93 KCAL/MOL
REMARK 922        TOTAL FREE ENERGY PREDICTED BY IDOCK:   -2.42 KCAL/MOL
REMARK 923 INTER-LIGAND FREE ENERGY PREDICTED BY IDOCK:   -2.30 KCAL/MOL
REMARK 924 INTRA-LIGAND FREE ENERGY PREDICTED BY IDOCK:   -0.12 KCAL/MOL
REMARK 927      BINDING AFFINITY PREDICTED BY RF-SCORE:    0.00 PKD
ROOT
HETATM    1  N   UNL     1      -7.617  10.293  67.901  1.00  0.00    -0.088 NA 
HETATM    2  H1  UNL     1      -7.591  10.337  68.920  1.00  0.00     0.000 HD 
HETATM    3  H2  UNL     1      -8.546  10.077  67.538  1.00  0.00     0.000 HD 
HETATM    4  CA  UNL     1      -6.570   9.301  67.458  1.00  0.00    -0.064 C  
HETATM    5  OXT UNL     1      -5.824   8.611  65.232  1.00  0.00    -0.047 OA 
HETATM    6  C   UNL     1      -6.609   9.235  65.926  1.00  0.00    -0.076 C  
HETATM    7  O   UNL     1      -7.628   9.982  65.422  1.00  0.00    -0.126 OA 
ENDROOT
BRANCH   4   8
HETATM    8  C   UNL     1      -6.715   7.859  68.016  1.00  0.00    -0.067 C  
HETATM    9  O   UNL     1      -5.554   7.080  67.706  1.00  0.00    -0.015 OA 
HETATM   10  H   UNL     1      -5.642   6.198  68.047  1.00  0.00     0.000 HD 
BRANCH   8  11
HETATM   11  C   UNL     1      -7.937   7.152  67.448  1.00  0.00    -0.112 A  
HETATM   12  C   UNL     1      -7.800   6.076  66.549  1.00  0.00    -0.104 A  
HETATM   13  C   UNL     1      -8.928   5.485  65.994  1.00  0.00    -0.152 A  
HETATM   14  C   UNL     1     -10.197   5.942  66.332  1.00  0.00    -0.107 A  
HETATM   15  O   UNL     1      -8.836   4.457  65.098  1.00  0.00    -0.127 OA 
HETATM   16  H   UNL     1      -9.608   4.053  64.719  1.00  0.00     0.000 HD 
HETATM   17  O   UNL     1     -11.300   5.364  65.775  1.00  0.00    -0.743 OA 
HETATM   18  C   UNL     1     -10.358   6.986  67.231  1.00  0.00    -0.331 A  
HETATM   19  C   UNL     1      -9.228   7.595  67.786  1.00  0.00    -0.141 A  
HETATM   20  H   UNL     1     -12.167   5.677  66.006  1.00  0.00     0.000 HD 
ENDBRANCH   8  11
ENDBRANCH   4   8
TORSDOF 2
ENDMDL
MODEL      268
REMARK 921   NORMALIZED FREE ENERGY PREDICTED BY IDOCK:   -1.78 KCAL/MOL
REMARK 922        TOTAL FREE ENERGY PREDICTED BY IDOCK:   -2.26 KCAL/MOL
REMARK 923 INTER-LIGAND FREE ENERGY PREDICTED BY IDOCK:   -2.27 KCAL/MOL
REMARK 924 INTRA-LIGAND FREE ENERGY PREDICTED BY IDOCK:    0.01 KCAL/MOL
REMARK 927      BINDING AFFINITY PREDICTED BY RF-SCORE:    0.00 PKD
ROOT
HETATM    1  N   UNL     1      -7.175   9.811  67.640  1.00  0.00    -0.088 NA 
HETATM    2  H1  UNL     1      -6.929  10.109  68.584  1.00  0.00     0.000 HD 
HETATM    3  H2  UNL     1      -8.181   9.709  67.507  1.00  0.00     0.000 HD 
HETATM    4  CA  UNL     1      -6.413   8.543  67.344  1.00  0.00    -0.058 C  
HETATM    5  OXT UNL     1      -6.270   7.166  65.327  1.00  0.00    -0.036 OA 
HETATM    6  C   UNL     1      -6.784   8.096  65.925  1.00  0.00    -0.049 C  
HETATM    7  O   UNL     1      -7.757   8.884  65.393  1.00  0.00    -0.088 OA 
ENDROOT
BRANCH   4   8
HETATM    8  C   UNL     1      -6.661   7.355  68.314  1.00  0.00    -0.050 C  
HETATM    9  O   UNL     1      -6.326   6.114  67.685  1.00  0.00    -0.037 OA 
HETATM   10  H   UNL     1      -6.477   5.387  68.278  1.00  0.00     0.000 HD 
BRANCH   8  11
HETATM   11  C   UNL     1      -8.111   7.290  68.770  1.00  0.00    -0.124 A  
HETATM   12  C   UNL     1      -8.598   8.157  69.768  1.00  0.00    -0.133 A  
HETATM   13  C   UNL     1      -9.908   8.040  70.214  1.00  0.00    -0.184 A  
HETATM   14  C   UNL     1     -10.750   7.077  69.669  1.00  0.00    -0.241 A  
HETATM   15  O   UNL     1     -10.409   8.845  71.198  1.00  0.00    -0.222 OA 
HETATM   16  H   UNL     1     -11.305   8.765  71.503  1.00  0.00     0.000 HD 
HETATM   17  O   UNL     1     -12.032   6.959  70.120  1.00  0.00    -0.600 OA 
HETATM   18  C   UNL     1     -10.300   6.225  68.672  1.00  0.00    -0.243 A  
HETATM   19  C   UNL     1      -8.979   6.328  68.225  1.00  0.00    -0.115 A  
HETATM   20  H   UNL     1     -12.607   6.301  69.749  1.00  0.00     0.000 HD 
ENDBRANCH   8  11
ENDBRANCH   4   8
TORSDOF 2
ENDMDL
MODEL      269
REMARK 921   NORMALIZED FREE ENERGY PREDICTED BY IDOCK:   -1.74 KCAL/MOL
REMARK 922        TOTAL FREE ENERGY PREDICTED BY IDOCK:   -2.22 KCAL/MOL
REMARK 923 INTER-LIGAND FREE ENERGY PREDICTED BY IDOCK:   -1.95 KCAL/MOL
REMARK 924 INTRA-LIGAND FREE ENERGY PREDICTED BY IDOCK:   -0.27 KCAL/MOL
REMARK 927      BINDING AFFINITY PREDICTED BY RF-SCORE:    0.00 PKD
ROOT
HETATM    1  N   UNL     1      -8.210   8.937  68.485  1.00  0.00    -0.115 NA 
HETATM    2  H1  UNL     1      -8.755   8.225  67.998  1.00  0.00     0.000 HD 
HETATM    3  H2  UNL     1      -7.362   9.200  67.982  1.00  0.00     0.000 HD 
HETATM    4  CA  UNL     1      -7.933   8.430  69.879  1.00  0.00    -0.107 C  
HETATM    5  OXT UNL     1      -6.808   9.464  71.790  1.00  0.00    -0.309 OA 
HETATM    6  C   UNL     1      -7.114   9.501  70.610  1.00  0.00    -0.123 C  
HETATM    7  O   UNL     1      -6.781  10.526  69.780  1.00  0.00    -0.092 OA 
ENDROOT
BRANCH   4   8
HETATM    8  C   UNL     1      -7.171   7.079  69.975  1.00  0.00    -0.079 C  
HETATM    9  O   UNL     1      -6.653   6.701  68.695  1.00  0.00    -0.047 OA 
HETATM   10  H   UNL     1      -6.187   5.876  68.754  1.00  0.00     0.000 HD 
BRANCH   8  11
HETATM   11  C   UNL     1      -8.066   5.960  70.485  1.00  0.00    -0.111 A  
HETATM   12  C   UNL     1      -8.996   6.187  71.518  1.00  0.00    -0.143 A  
HETATM   13  C   UNL     1      -9.760   5.137  72.011  1.00  0.00    -0.159 A  
HETATM   14  C   UNL     1      -9.622   3.860  71.479  1.00  0.00    -0.166 A  
HETATM   15  O   UNL     1     -10.654   5.312  73.030  1.00  0.00    -0.200 OA 
HETATM   16  H   UNL     1     -11.176   4.594  73.367  1.00  0.00     0.000 HD 
HETATM   17  O   UNL     1     -10.367   2.831  71.976  1.00  0.00    -0.106 OA 
HETATM   18  C   UNL     1      -8.728   3.615  70.447  1.00  0.00    -0.125 A  
HETATM   19  C   UNL     1      -7.946   4.664  69.952  1.00  0.00    -0.068 A  
HETATM   20  H   UNL     1     -10.273   1.958  71.612  1.00  0.00     0.000 HD 
ENDBRANCH   8  11
ENDBRANCH   4   8
TORSDOF 2
ENDMDL
MODEL      270
REMARK 921   NORMALIZED FREE ENERGY PREDICTED BY IDOCK:   -1.45 KCAL/MOL
REMARK 922        TOTAL FREE ENERGY PREDICTED BY IDOCK:   -1.88 KCAL/MOL
REMARK 923 INTER-LIGAND FREE ENERGY PREDICTED BY IDOCK:   -2.02 KCAL/MOL
REMARK 924 INTRA-LIGAND FREE ENERGY PREDICTED BY IDOCK:    0.14 KCAL/MOL
REMARK 927      BINDING AFFINITY PREDICTED BY RF-SCORE:    0.00 PKD
ROOT
HETATM    1  N   UNL     1      -5.187  11.070  66.699  1.00  0.00    -0.074 NA 
HETATM    2  H1  UNL     1      -4.818  11.140  67.647  1.00  0.00     0.000 HD 
HETATM    3  H2  UNL     1      -5.265  11.976  66.237  1.00  0.00     0.000 HD 
HETATM    4  CA  UNL     1      -6.501  10.332  66.770  1.00  0.00    -0.073 C  
HETATM    5  OXT UNL     1      -8.050   9.600  65.023  1.00  0.00    -0.116 OA 
HETATM    6  C   UNL     1      -7.055  10.228  65.343  1.00  0.00    -0.139 C  
HETATM    7  O   UNL     1      -6.282  10.913  64.458  1.00  0.00     0.118 OA 
ENDROOT
BRANCH   4   8
HETATM    8  C   UNL     1      -7.593  10.967  67.675  1.00  0.00    -0.096 C  
HETATM    9  O   UNL     1      -8.868  10.369  67.419  1.00  0.00    -0.132 OA 
HETATM   10  H   UNL     1      -9.536  10.757  67.972  1.00  0.00     0.000 HD 
BRANCH   8  11
HETATM   11  C   UNL     1      -7.709  12.468  67.454  1.00  0.00    -0.167 A  
HETATM   12  C   UNL     1      -8.887  13.035  66.930  1.00  0.00    -0.184 A  
HETATM   13  C   UNL     1      -8.950  14.400  66.679  1.00  0.00    -0.205 A  
HETATM   14  C   UNL     1      -7.858  15.215  66.955  1.00  0.00    -0.162 A  
HETATM   15  O   UNL     1     -10.065  14.984  66.146  1.00  0.00    -0.263 OA 
HETATM   16  H   UNL     1     -10.109  15.917  65.975  1.00  0.00     0.000 HD 
HETATM   17  O   UNL     1      -7.923  16.552  66.695  1.00  0.00    -0.223 OA 
HETATM   18  C   UNL     1      -6.694  14.683  67.490  1.00  0.00    -0.148 A  
HETATM   19  C   UNL     1      -6.617  13.308  67.736  1.00  0.00    -0.156 A  
HETATM   20  H   UNL     1      -7.177  17.109  66.883  1.00  0.00     0.000 HD 
ENDBRANCH   8  11
ENDBRANCH   4   8
TORSDOF 2
ENDMDL
MODEL      271
REMARK 921   NORMALIZED FREE ENERGY PREDICTED BY IDOCK:   -1.35 KCAL/MOL
REMARK 922        TOTAL FREE ENERGY PREDICTED BY IDOCK:   -1.78 KCAL/MOL
REMARK 923 INTER-LIGAND FREE ENERGY PREDICTED BY IDOCK:   -2.11 KCAL/MOL
REMARK 924 INTRA-LIGAND FREE ENERGY PREDICTED BY IDOCK:    0.34 KCAL/MOL
REMARK 927      BINDING AFFINITY PREDICTED BY RF-SCORE:    0.00 PKD
ROOT
HETATM    1  N   UNL     1     -10.265   7.139  67.615  1.00  0.00    -0.181 NA 
HETATM    2  H1  UNL     1     -10.837   6.652  68.305  1.00  0.00     0.000 HD 
HETATM    3  H2  UNL     1      -9.281   6.871  67.656  1.00  0.00     0.000 HD 
HETATM    4  CA  UNL     1     -10.477   8.620  67.805  1.00  0.00    -0.224 C  
HETATM    5  OXT UNL     1      -9.627  10.556  66.572  1.00  0.00    -0.166 OA 
HETATM    6  C   UNL     1      -9.615   9.352  66.769  1.00  0.00    -0.179 C  
HETATM    7  O   UNL     1      -8.837   8.484  66.067  1.00  0.00    -0.153 OA 
ENDROOT
BRANCH   4   8
HETATM    8  C   UNL     1     -10.136   9.184  69.212  1.00  0.00    -0.194 C  
HETATM    9  O   UNL     1      -9.648  10.526  69.112  1.00  0.00    -0.198 OA 
HETATM   10  H   UNL     1      -9.440  10.871  69.972  1.00  0.00     0.000 HD 
BRANCH   8  11
HETATM   11  C   UNL     1      -9.087   8.340  69.921  1.00  0.00    -0.147 A  
HETATM   12  C   UNL     1      -9.362   7.013  70.306  1.00  0.00    -0.159 A  
HETATM   13  C   UNL     1      -8.412   6.280  71.006  1.00  0.00    -0.128 A  
HETATM   14  C   UNL     1      -7.182   6.847  71.321  1.00  0.00    -0.076 A  
HETATM   15  O   UNL     1      -8.651   4.999  71.419  1.00  0.00    -0.122 OA 
HETATM   16  H   UNL     1      -8.002   4.499  71.899  1.00  0.00     0.000 HD 
HETATM   17  O   UNL     1      -6.259   6.125  72.020  1.00  0.00    -0.040 OA 
HETATM   18  C   UNL     1      -6.880   8.145  70.936  1.00  0.00    -0.042 A  
HETATM   19  C   UNL     1      -7.834   8.894  70.240  1.00  0.00    -0.104 A  
HETATM   20  H   UNL     1      -5.418   6.512  72.235  1.00  0.00     0.000 HD 
ENDBRANCH   8  11
ENDBRANCH   4   8
TORSDOF 2
ENDMDL
MODEL      272
REMARK 921   NORMALIZED FREE ENERGY PREDICTED BY IDOCK:   -1.33 KCAL/MOL
REMARK 922        TOTAL FREE ENERGY PREDICTED BY IDOCK:   -1.75 KCAL/MOL
REMARK 923 INTER-LIGAND FREE ENERGY PREDICTED BY IDOCK:   -1.47 KCAL/MOL
REMARK 924 INTRA-LIGAND FREE ENERGY PREDICTED BY IDOCK:   -0.28 KCAL/MOL
REMARK 927      BINDING AFFINITY PREDICTED BY RF-SCORE:    0.00 PKD
ROOT
HETATM    1  N   UNL     1      -7.686  10.331  67.918  1.00  0.00    -0.089 NA 
HETATM    2  H1  UNL     1      -7.768  10.513  68.919  1.00  0.00     0.000 HD 
HETATM    3  H2  UNL     1      -8.592  10.254  67.455  1.00  0.00     0.000 HD 
HETATM    4  CA  UNL     1      -6.832   9.099  67.744  1.00  0.00    -0.076 C  
HETATM    5  OXT UNL     1      -6.002   7.966  65.740  1.00  0.00    -0.037 OA 
HETATM    6  C   UNL     1      -6.710   8.825  66.241  1.00  0.00    -0.073 C  
HETATM    7  O   UNL     1      -7.481   9.679  65.514  1.00  0.00    -0.099 OA 
ENDROOT
BRANCH   4   8
HETATM    8  C   UNL     1      -7.345   7.808  68.439  1.00  0.00    -0.095 C  
HETATM    9  O   UNL     1      -8.715   7.565  68.101  1.00  0.00    -0.123 OA 
HETATM   10  H   UNL     1      -9.029   6.775  68.525  1.00  0.00     0.000 HD 
BRANCH   8  11
HETATM   11  C   UNL     1      -7.229   7.895  69.953  1.00  0.00    -0.066 A  
HETATM   12  C   UNL     1      -8.371   8.069  70.760  1.00  0.00    -0.115 A  
HETATM   13  C   UNL     1      -8.237   8.208  72.135  1.00  0.00    -0.149 A  
HETATM   14  C   UNL     1      -6.979   8.162  72.725  1.00  0.00    -0.096 A  
HETATM   15  O   UNL     1      -9.318   8.406  72.948  1.00  0.00    -0.260 OA 
HETATM   16  H   UNL     1      -9.227   8.501  73.889  1.00  0.00     0.000 HD 
HETATM   17  O   UNL     1      -6.854   8.311  74.076  1.00  0.00    -0.126 OA 
HETATM   18  C   UNL     1      -5.842   7.971  71.955  1.00  0.00    -0.037 A  
HETATM   19  C   UNL     1      -5.966   7.842  70.568  1.00  0.00    -0.030 A  
HETATM   20  H   UNL     1      -5.995   8.280  74.479  1.00  0.00     0.000 HD 
ENDBRANCH   8  11
ENDBRANCH   4   8
TORSDOF 2
ENDMDL
MODEL      273
REMARK 921   NORMALIZED FREE ENERGY PREDICTED BY IDOCK:   -1.07 KCAL/MOL
REMARK 922        TOTAL FREE ENERGY PREDICTED BY IDOCK:   -1.46 KCAL/MOL
REMARK 923 INTER-LIGAND FREE ENERGY PREDICTED BY IDOCK:   -1.86 KCAL/MOL
REMARK 924 INTRA-LIGAND FREE ENERGY PREDICTED BY IDOCK:    0.39 KCAL/MOL
REMARK 927      BINDING AFFINITY PREDICTED BY RF-SCORE:    0.00 PKD
ROOT
HETATM    1  N   UNL     1     -10.721   6.519  67.779  1.00  0.00    -0.260 NA 
HETATM    2  H1  UNL     1     -11.173   5.618  67.941  1.00  0.00     0.000 HD 
HETATM    3  H2  UNL     1      -9.723   6.433  67.587  1.00  0.00     0.000 HD 
HETATM    4  CA  UNL     1     -11.016   7.401  68.966  1.00  0.00    -0.005 C  
HETATM    5  OXT UNL     1     -10.459   9.738  69.433  1.00  0.00    -0.199 OA 
HETATM    6  C   UNL     1     -10.337   8.754  68.722  1.00  0.00    -0.213 C  
HETATM    7  O   UNL     1      -9.585   8.737  67.588  1.00  0.00    -0.139 OA 
ENDROOT
BRANCH   4   8
HETATM    8  C   UNL     1     -10.555   6.863  70.349  1.00  0.00    -0.219 C  
HETATM    9  O   UNL     1     -10.393   7.939  71.279  1.00  0.00    -0.191 OA 
HETATM   10  H   UNL     1     -10.111   7.611  72.124  1.00  0.00     0.000 HD 
BRANCH   8  11
HETATM   11  C   UNL     1      -9.239   6.106  70.251  1.00  0.00    -0.165 A  
HETATM   12  C   UNL     1      -8.100   6.537  70.959  1.00  0.00    -0.120 A  
HETATM   13  C   UNL     1      -6.892   5.868  70.808  1.00  0.00    -0.058 A  
HETATM   14  C   UNL     1      -6.803   4.762  69.969  1.00  0.00    -0.044 A  
HETATM   15  O   UNL     1      -5.759   6.271  71.457  1.00  0.00    -0.026 OA 
HETATM   16  H   UNL     1      -4.933   5.813  71.354  1.00  0.00     0.000 HD 
HETATM   17  O   UNL     1      -5.611   4.117  69.817  1.00  0.00    -0.014 OA 
HETATM   18  C   UNL     1      -7.916   4.307  69.278  1.00  0.00    -0.060 A  
HETATM   19  C   UNL     1      -9.133   4.981  69.414  1.00  0.00    -0.143 A  
HETATM   20  H   UNL     1      -5.550   3.362  69.244  1.00  0.00     0.000 HD 
ENDBRANCH   8  11
ENDBRANCH   4   8
TORSDOF 2
ENDMDL
MODEL      274
REMARK 921   NORMALIZED FREE ENERGY PREDICTED BY IDOCK:   -0.94 KCAL/MOL
REMARK 922        TOTAL FREE ENERGY PREDICTED BY IDOCK:   -1.32 KCAL/MOL
REMARK 923 INTER-LIGAND FREE ENERGY PREDICTED BY IDOCK:   -1.04 KCAL/MOL
REMARK 924 INTRA-LIGAND FREE ENERGY PREDICTED BY IDOCK:   -0.28 KCAL/MOL
REMARK 927      BINDING AFFINITY PREDICTED BY RF-SCORE:    0.00 PKD
ROOT
HETATM    1  N   UNL     1      -8.541   8.382  68.228  1.00  0.00    -0.138 NA 
HETATM    2  H1  UNL     1      -8.877   7.571  67.708  1.00  0.00     0.000 HD 
HETATM    3  H2  UNL     1      -8.011   9.033  67.648  1.00  0.00     0.000 HD 
HETATM    4  CA  UNL     1      -7.754   7.876  69.412  1.00  0.00    -0.105 C  
HETATM    5  OXT UNL     1      -6.669   9.051  71.264  1.00  0.00    -0.081 OA 
HETATM    6  C   UNL     1      -7.250   9.096  70.192  1.00  0.00    -0.070 C  
HETATM    7  O   UNL     1      -7.550  10.257  69.550  1.00  0.00    -0.119 OA 
ENDROOT
BRANCH   4   8
HETATM    8  C   UNL     1      -6.538   6.966  69.085  1.00  0.00    -0.048 C  
HETATM    9  O   UNL     1      -5.724   7.560  68.068  1.00  0.00    -0.025 OA 
HETATM   10  H   UNL     1      -4.981   7.004  67.868  1.00  0.00     0.000 HD 
BRANCH   8  11
HETATM   11  C   UNL     1      -6.974   5.587  68.612  1.00  0.00    -0.060 A  
HETATM   12  C   UNL     1      -7.574   4.672  69.499  1.00  0.00    -0.055 A  
HETATM   13  C   UNL     1      -7.908   3.396  69.062  1.00  0.00    -0.050 A  
HETATM   14  C   UNL     1      -7.665   3.020  67.746  1.00  0.00    -0.064 A  
HETATM   15  O   UNL     1      -8.467   2.471  69.899  1.00  0.00    -0.044 OA 
HETATM   16  H   UNL     1      -8.695   1.599  69.600  1.00  0.00     0.000 HD 
HETATM   17  O   UNL     1      -7.985   1.762  67.327  1.00  0.00    -0.063 OA 
HETATM   18  C   UNL     1      -7.095   3.910  66.848  1.00  0.00    -0.063 A  
HETATM   19  C   UNL     1      -6.744   5.193  67.282  1.00  0.00    -0.055 A  
HETATM   20  H   UNL     1      -7.819   1.505  66.427  1.00  0.00     0.000 HD 
ENDBRANCH   8  11
ENDBRANCH   4   8
TORSDOF 2
ENDMDL
MODEL      275
REMARK 921   NORMALIZED FREE ENERGY PREDICTED BY IDOCK:   -0.89 KCAL/MOL
REMARK 922        TOTAL FREE ENERGY PREDICTED BY IDOCK:   -1.26 KCAL/MOL
REMARK 923 INTER-LIGAND FREE ENERGY PREDICTED BY IDOCK:   -1.19 KCAL/MOL
REMARK 924 INTRA-LIGAND FREE ENERGY PREDICTED BY IDOCK:   -0.08 KCAL/MOL
REMARK 927      BINDING AFFINITY PREDICTED BY RF-SCORE:    0.00 PKD
ROOT
HETATM    1  N   UNL     1      -7.348  15.421  67.531  1.00  0.00    -0.177 NA 
HETATM    2  H1  UNL     1      -8.016  16.173  67.699  1.00  0.00     0.000 HD 
HETATM    3  H2  UNL     1      -7.690  14.729  66.864  1.00  0.00     0.000 HD 
HETATM    4  CA  UNL     1      -6.988  14.820  68.867  1.00  0.00    -0.110 C  
HETATM    5  OXT UNL     1      -5.404  13.060  69.484  1.00  0.00    -0.075 OA 
HETATM    6  C   UNL     1      -5.984  13.689  68.614  1.00  0.00    -0.086 C  
HETATM    7  O   UNL     1      -5.795  13.479  67.283  1.00  0.00    -0.345 OA 
ENDROOT
BRANCH   4   8
HETATM    8  C   UNL     1      -8.169  14.250  69.700  1.00  0.00     0.556 C  
HETATM    9  O   UNL     1      -7.856  12.941  70.187  1.00  0.00     1.291 OA 
HETATM   10  H   UNL     1      -8.578  12.593  70.697  1.00  0.00     0.000 HD 
BRANCH   8  11
HETATM   11  C   UNL     1      -9.450  14.169  68.884  1.00  0.00    -0.029 A  
HETATM   12  C   UNL     1      -9.770  13.011  68.148  1.00  0.00    -0.228 A  
HETATM   13  C   UNL     1     -10.914  12.980  67.361  1.00  0.00    -0.260 A  
HETATM   14  C   UNL     1     -11.756  14.085  67.304  1.00  0.00    -0.389 A  
HETATM   15  O   UNL     1     -11.244  11.886  66.612  1.00  0.00    -0.298 OA 
HETATM   16  H   UNL     1     -12.026  11.865  66.074  1.00  0.00     0.000 HD 
HETATM   17  O   UNL     1     -12.871  14.053  66.520  1.00  0.00    -0.456 OA 
HETATM   18  C   UNL     1     -11.474  15.230  68.036  1.00  0.00    -0.351 A  
HETATM   19  C   UNL     1     -10.318  15.274  68.823  1.00  0.00    -0.232 A  
HETATM   20  H   UNL     1     -13.447  14.807  66.481  1.00  0.00     0.000 HD 
ENDBRANCH   8  11
ENDBRANCH   4   8
TORSDOF 2
ENDMDL
MODEL      276
REMARK 921   NORMALIZED FREE ENERGY PREDICTED BY IDOCK:   -0.84 KCAL/MOL
REMARK 922        TOTAL FREE ENERGY PREDICTED BY IDOCK:   -1.21 KCAL/MOL
REMARK 923 INTER-LIGAND FREE ENERGY PREDICTED BY IDOCK:   -2.46 KCAL/MOL
REMARK 924 INTRA-LIGAND FREE ENERGY PREDICTED BY IDOCK:    1.26 KCAL/MOL
REMARK 927      BINDING AFFINITY PREDICTED BY RF-SCORE:    0.00 PKD
ROOT
HETATM    1  N   UNL     1      -5.640  17.182  71.355  1.00  0.00     0.324 NA 
HETATM    2  H1  UNL     1      -5.842  17.892  72.058  1.00  0.00     0.000 HD 
HETATM    3  H2  UNL     1      -4.640  17.022  71.230  1.00  0.00     0.000 HD 
HETATM    4  CA  UNL     1      -6.333  17.590  70.078  1.00  0.00     0.081 C  
HETATM    5  OXT UNL     1      -6.516  16.483  67.903  1.00  0.00    -0.122 OA 
HETATM    6  C   UNL     1      -6.027  16.522  69.020  1.00  0.00    -0.150 C  
HETATM    7  O   UNL     1      -5.148  15.595  69.488  1.00  0.00    -0.098 OA 
ENDROOT
BRANCH   4   8
HETATM    8  C   UNL     1      -5.940  18.978  69.501  1.00  0.00    -0.257 C  
HETATM    9  O   UNL     1      -6.161  20.007  70.472  1.00  0.00    -0.331 OA 
HETATM   10  H   UNL     1      -5.921  20.856  70.119  1.00  0.00     0.000 HD 
BRANCH   8  11
HETATM   11  C   UNL     1      -6.735  19.316  68.249  1.00  0.00    -0.283 A  
HETATM   12  C   UNL     1      -6.264  18.956  66.971  1.00  0.00    -0.192 A  
HETATM   13  C   UNL     1      -6.974  19.328  65.837  1.00  0.00    -0.275 A  
HETATM   14  C   UNL     1      -8.159  20.046  65.955  1.00  0.00    -0.255 A  
HETATM   15  O   UNL     1      -6.536  19.020  64.579  1.00  0.00    -0.409 OA 
HETATM   16  H   UNL     1      -7.022  19.274  63.803  1.00  0.00     0.000 HD 
HETATM   17  O   UNL     1      -8.845  20.418  64.837  1.00  0.00     0.081 OA 
HETATM   18  C   UNL     1      -8.654  20.395  67.203  1.00  0.00    -0.402 A  
HETATM   19  C   UNL     1      -7.940  20.034  68.351  1.00  0.00    -0.174 A  
HETATM   20  H   UNL     1      -9.654  20.909  64.918  1.00  0.00     0.000 HD 
ENDBRANCH   8  11
ENDBRANCH   4   8
TORSDOF 2
ENDMDL
MODEL      277
REMARK 921   NORMALIZED FREE ENERGY PREDICTED BY IDOCK:    0.23 KCAL/MOL
REMARK 922        TOTAL FREE ENERGY PREDICTED BY IDOCK:   -0.01 KCAL/MOL
REMARK 923 INTER-LIGAND FREE ENERGY PREDICTED BY IDOCK:   -1.41 KCAL/MOL
REMARK 924 INTRA-LIGAND FREE ENERGY PREDICTED BY IDOCK:    1.40 KCAL/MOL
REMARK 927      BINDING AFFINITY PREDICTED BY RF-SCORE:    0.00 PKD
ROOT
HETATM    1  N   UNL     1     -12.299   7.821  69.868  1.00  0.00     0.328 NA 
HETATM    2  H1  UNL     1     -12.737   8.161  70.724  1.00  0.00     0.000 HD 
HETATM    3  H2  UNL     1     -12.181   6.808  69.859  1.00  0.00     0.000 HD 
HETATM    4  CA  UNL     1     -10.999   8.565  69.690  1.00  0.00    -0.086 C  
HETATM    5  OXT UNL     1      -9.328   8.515  67.903  1.00  0.00    -0.135 OA 
HETATM    6  C   UNL     1     -10.340   8.053  68.403  1.00  0.00    -0.199 C  
HETATM    7  O   UNL     1     -11.041   7.020  67.863  1.00  0.00    -0.160 OA 
ENDROOT
BRANCH   4   8
HETATM    8  C   UNL     1      -9.974   8.436  70.851  1.00  0.00    -0.191 C  
HETATM    9  O   UNL     1     -10.543   8.903  72.079  1.00  0.00    -0.341 OA 
HETATM   10  H   UNL     1      -9.916   8.824  72.788  1.00  0.00     0.000 HD 
BRANCH   8  11
HETATM   11  C   UNL     1      -8.703   9.226  70.575  1.00  0.00    -0.276 A  
HETATM   12  C   UNL     1      -7.485   8.879  71.192  1.00  0.00    -0.125 A  
HETATM   13  C   UNL     1      -6.351   9.650  70.975  1.00  0.00    -0.063 A  
HETATM   14  C   UNL     1      -6.407  10.759  70.138  1.00  0.00    -0.147 A  
HETATM   15  O   UNL     1      -5.157   9.362  71.575  1.00  0.00    -0.042 OA 
HETATM   16  H   UNL     1      -4.381   9.889  71.427  1.00  0.00     0.000 HD 
HETATM   17  O   UNL     1      -5.291  11.519  69.938  1.00  0.00    -0.059 OA 
HETATM   18  C   UNL     1      -7.589  11.109  69.503  1.00  0.00     0.058 A  
HETATM   19  C   UNL     1      -8.740  10.345  69.725  1.00  0.00     0.027 A  
HETATM   20  H   UNL     1      -5.330  12.277  69.367  1.00  0.00     0.000 HD 
ENDBRANCH   8  11
ENDBRANCH   4   8
TORSDOF 2
ENDMDL
