MODEL        1
REMARK 921   NORMALIZED FREE ENERGY PREDICTED BY IDOCK:   -6.54 KCAL/MOL
REMARK 922        TOTAL FREE ENERGY PREDICTED BY IDOCK:   -9.74 KCAL/MOL
REMARK 923 INTER-LIGAND FREE ENERGY PREDICTED BY IDOCK:   -8.84 KCAL/MOL
REMARK 924 INTRA-LIGAND FREE ENERGY PREDICTED BY IDOCK:   -0.90 KCAL/MOL
REMARK 927      BINDING AFFINITY PREDICTED BY RF-SCORE:    0.00 PKD
ROOT
HETATM    1  C   UNL     1     -12.278  12.660  63.606  1.00  0.00    -0.536 C  
HETATM    2  N   UNL     1     -12.307  14.119  63.682  1.00  0.00    -1.092 NA 
HETATM    3  H   UNL     1     -13.108  14.507  63.183  1.00  0.00     0.000 HD 
ENDROOT
BRANCH   2   4
HETATM    4  C   UNL     1     -12.266  14.573  65.076  1.00  0.00    -0.373 C  
BRANCH   4   5
HETATM    5  C   UNL     1     -10.848  14.894  65.578  1.00  0.00    -0.365 C  
BRANCH   5   6
HETATM    6  C   UNL     1     -10.628  14.867  67.100  1.00  0.00    -0.285 C  
BRANCH   6   7
HETATM    7  C   UNL     1      -9.992  16.146  67.615  1.00  0.00    -0.241 A  
HETATM    8  C   UNL     1      -8.370  17.803  68.485  1.00  0.00    -0.297 A  
HETATM    9  S   UNL     1      -8.326  16.153  68.049  1.00  0.00    -0.166 SA 
HETATM   10  C   UNL     1     -10.562  17.388  67.833  1.00  0.00    -0.383 A  
HETATM   11  C   UNL     1      -9.626  18.344  68.330  1.00  0.00    -0.355 A  
ENDBRANCH   6   7
BRANCH   6  12
HETATM   12  O   UNL     1     -11.910  14.748  67.774  1.00  0.00    -0.351 OA 
BRANCH  12  13
HETATM   13  C   UNL     1     -12.035  13.747  68.718  1.00  0.00    -0.365 A  
HETATM   14  C   UNL     1     -11.860  11.421  69.390  1.00  0.00    -0.419 A  
HETATM   15  C   UNL     1     -11.676  12.422  68.443  1.00  0.00    -0.386 A  
HETATM   16  C   UNL     1     -12.389  11.735  70.637  1.00  0.00    -0.421 A  
HETATM   17  C   UNL     1     -12.693  13.058  70.972  1.00  0.00    -0.347 A  
HETATM   18  C   UNL     1     -13.190  13.348  72.252  1.00  0.00    -0.570 A  
HETATM   19  C   UNL     1     -13.456  14.658  72.640  1.00  0.00    -0.580 A  
HETATM   20  C   UNL     1     -13.223  15.695  71.746  1.00  0.00    -0.548 A  
HETATM   21  C   UNL     1     -12.755  15.420  70.452  1.00  0.00    -0.407 A  
HETATM   22  C   UNL     1     -12.492  14.096  70.023  1.00  0.00    -0.352 A  
ENDBRANCH  12  13
ENDBRANCH   6  12
ENDBRANCH   5   6
ENDBRANCH   4   5
ENDBRANCH   2   4
TORSDOF 6
ENDMDL
MODEL        2
REMARK 921   NORMALIZED FREE ENERGY PREDICTED BY IDOCK:   -6.47 KCAL/MOL
REMARK 922        TOTAL FREE ENERGY PREDICTED BY IDOCK:   -9.64 KCAL/MOL
REMARK 923 INTER-LIGAND FREE ENERGY PREDICTED BY IDOCK:   -8.76 KCAL/MOL
REMARK 924 INTRA-LIGAND FREE ENERGY PREDICTED BY IDOCK:   -0.89 KCAL/MOL
REMARK 927      BINDING AFFINITY PREDICTED BY RF-SCORE:    0.00 PKD
ROOT
HETATM    1  C   UNL     1     -10.394  19.880  65.747  1.00  0.00    -0.410 C  
HETATM    2  N   UNL     1     -10.128  18.457  65.949  1.00  0.00    -0.569 NA 
HETATM    3  H   UNL     1      -9.155  18.223  65.751  1.00  0.00     0.000 HD 
ENDROOT
BRANCH   2   4
HETATM    4  C   UNL     1     -10.520  18.037  67.299  1.00  0.00    -0.380 C  
BRANCH   4   5
HETATM    5  C   UNL     1     -10.096  16.599  67.644  1.00  0.00    -0.272 C  
BRANCH   5   6
HETATM    6  C   UNL     1     -11.224  15.575  67.853  1.00  0.00    -0.325 C  
BRANCH   6   7
HETATM    7  C   UNL     1     -11.452  14.707  66.628  1.00  0.00    -0.357 A  
HETATM    8  C   UNL     1     -11.186  13.579  64.439  1.00  0.00    -0.379 A  
HETATM    9  S   UNL     1     -10.286  14.701  65.360  1.00  0.00    -0.404 SA 
HETATM   10  C   UNL     1     -12.517  13.879  66.320  1.00  0.00    -0.454 A  
HETATM   11  C   UNL     1     -12.361  13.226  65.061  1.00  0.00    -0.499 A  
ENDBRANCH   6   7
BRANCH   6  12
HETATM   12  O   UNL     1     -10.867  14.671  68.933  1.00  0.00    -0.234 OA 
BRANCH  12  13
HETATM   13  C   UNL     1     -11.775  14.531  69.964  1.00  0.00    -0.301 A  
HETATM   14  C   UNL     1     -13.259  15.477  71.637  1.00  0.00    -0.575 A  
HETATM   15  C   UNL     1     -12.389  15.637  70.564  1.00  0.00    -0.443 A  
HETATM   16  C   UNL     1     -13.545  14.202  72.112  1.00  0.00    -0.568 A  
HETATM   17  C   UNL     1     -13.006  13.070  71.494  1.00  0.00    -0.398 A  
HETATM   18  C   UNL     1     -13.343  11.796  71.974  1.00  0.00    -0.417 A  
HETATM   19  C   UNL     1     -12.869  10.644  71.353  1.00  0.00    -0.556 A  
HETATM   20  C   UNL     1     -12.048  10.760  70.237  1.00  0.00    -0.433 A  
HETATM   21  C   UNL     1     -11.677  12.026  69.762  1.00  0.00    -0.390 A  
HETATM   22  C   UNL     1     -12.131  13.215  70.384  1.00  0.00    -0.392 A  
ENDBRANCH  12  13
ENDBRANCH   6  12
ENDBRANCH   5   6
ENDBRANCH   4   5
ENDBRANCH   2   4
TORSDOF 6
ENDMDL
MODEL        3
REMARK 921   NORMALIZED FREE ENERGY PREDICTED BY IDOCK:   -6.40 KCAL/MOL
REMARK 922        TOTAL FREE ENERGY PREDICTED BY IDOCK:   -9.54 KCAL/MOL
REMARK 923 INTER-LIGAND FREE ENERGY PREDICTED BY IDOCK:   -8.88 KCAL/MOL
REMARK 924 INTRA-LIGAND FREE ENERGY PREDICTED BY IDOCK:   -0.66 KCAL/MOL
REMARK 927      BINDING AFFINITY PREDICTED BY RF-SCORE:    0.00 PKD
ROOT
HETATM    1  C   UNL     1     -11.976  12.716  63.536  1.00  0.00    -0.548 C  
HETATM    2  N   UNL     1     -12.403  14.104  63.702  1.00  0.00    -1.092 NA 
HETATM    3  H   UNL     1     -13.407  14.210  63.558  1.00  0.00     0.000 HD 
ENDROOT
BRANCH   2   4
HETATM    4  C   UNL     1     -11.986  14.628  65.008  1.00  0.00    -0.364 C  
BRANCH   4   5
HETATM    5  C   UNL     1     -11.040  13.688  65.774  1.00  0.00    -0.292 C  
BRANCH   5   6
HETATM    6  C   UNL     1     -10.553  14.167  67.152  1.00  0.00    -0.278 C  
BRANCH   6   7
HETATM    7  C   UNL     1      -9.775  15.469  67.071  1.00  0.00    -0.224 A  
HETATM    8  C   UNL     1      -8.961  17.773  67.474  1.00  0.00    -0.244 A  
HETATM    9  S   UNL     1     -10.179  16.769  68.125  1.00  0.00    -0.318 SA 
HETATM   10  C   UNL     1      -8.741  15.826  66.224  1.00  0.00    -0.358 A  
HETATM   11  C   UNL     1      -8.269  17.152  66.459  1.00  0.00    -0.308 A  
ENDBRANCH   6   7
BRANCH   6  12
HETATM   12  O   UNL     1     -11.697  14.428  68.009  1.00  0.00    -0.311 OA 
BRANCH  12  13
HETATM   13  C   UNL     1     -11.968  13.501  68.996  1.00  0.00    -0.335 A  
HETATM   14  C   UNL     1     -11.994  11.219  69.825  1.00  0.00    -0.431 A  
HETATM   15  C   UNL     1     -11.663  12.143  68.841  1.00  0.00    -0.381 A  
HETATM   16  C   UNL     1     -12.618  11.644  70.993  1.00  0.00    -0.431 A  
HETATM   17  C   UNL     1     -12.875  13.001  71.215  1.00  0.00    -0.370 A  
HETATM   18  C   UNL     1     -13.471  13.402  72.419  1.00  0.00    -0.685 A  
HETATM   19  C   UNL     1     -13.695  14.748  72.697  1.00  0.00    -0.547 A  
HETATM   20  C   UNL     1     -13.319  15.709  71.767  1.00  0.00    -0.541 A  
HETATM   21  C   UNL     1     -12.748  15.323  70.545  1.00  0.00    -0.440 A  
HETATM   22  C   UNL     1     -12.524  13.961  70.227  1.00  0.00    -0.380 A  
ENDBRANCH  12  13
ENDBRANCH   6  12
ENDBRANCH   5   6
ENDBRANCH   4   5
ENDBRANCH   2   4
TORSDOF 6
ENDMDL
MODEL        4
REMARK 921   NORMALIZED FREE ENERGY PREDICTED BY IDOCK:   -6.27 KCAL/MOL
REMARK 922        TOTAL FREE ENERGY PREDICTED BY IDOCK:   -9.37 KCAL/MOL
REMARK 923 INTER-LIGAND FREE ENERGY PREDICTED BY IDOCK:   -8.47 KCAL/MOL
REMARK 924 INTRA-LIGAND FREE ENERGY PREDICTED BY IDOCK:   -0.89 KCAL/MOL
REMARK 927      BINDING AFFINITY PREDICTED BY RF-SCORE:    0.00 PKD
ROOT
HETATM    1  C   UNL     1      -9.226  18.918  67.034  1.00  0.00    -0.303 C  
HETATM    2  N   UNL     1      -9.629  18.889  68.439  1.00  0.00    -0.348 NA 
HETATM    3  H   UNL     1     -10.296  19.629  68.655  1.00  0.00     0.000 HD 
ENDROOT
BRANCH   2   4
HETATM    4  C   UNL     1     -10.149  17.567  68.808  1.00  0.00    -0.363 C  
BRANCH   4   5
HETATM    5  C   UNL     1     -10.465  16.671  67.598  1.00  0.00    -0.320 C  
BRANCH   5   6
HETATM    6  C   UNL     1     -11.432  15.499  67.839  1.00  0.00    -0.272 C  
BRANCH   6   7
HETATM    7  C   UNL     1     -11.458  14.523  66.676  1.00  0.00    -0.366 A  
HETATM    8  C   UNL     1     -11.006  13.394  64.518  1.00  0.00    -0.390 A  
HETATM    9  S   UNL     1     -10.452  14.804  65.306  1.00  0.00    -0.422 SA 
HETATM   10  C   UNL     1     -12.217  13.379  66.502  1.00  0.00    -0.414 A  
HETATM   11  C   UNL     1     -11.953  12.726  65.261  1.00  0.00    -0.473 A  
ENDBRANCH   6   7
BRANCH   6  12
HETATM   12  O   UNL     1     -10.996  14.740  68.999  1.00  0.00    -0.230 OA 
BRANCH  12  13
HETATM   13  C   UNL     1     -11.926  14.530  69.999  1.00  0.00    -0.330 A  
HETATM   14  C   UNL     1     -13.517  15.359  71.635  1.00  0.00    -0.593 A  
HETATM   15  C   UNL     1     -12.626  15.588  70.593  1.00  0.00    -0.493 A  
HETATM   16  C   UNL     1     -13.739  14.062  72.085  1.00  0.00    -0.603 A  
HETATM   17  C   UNL     1     -13.112  12.974  71.470  1.00  0.00    -0.400 A  
HETATM   18  C   UNL     1     -13.385  11.675  71.923  1.00  0.00    -0.403 A  
HETATM   19  C   UNL     1     -12.820  10.563  71.302  1.00  0.00    -0.532 A  
HETATM   20  C   UNL     1     -11.974  10.745  70.215  1.00  0.00    -0.438 A  
HETATM   21  C   UNL     1     -11.668  12.039  69.768  1.00  0.00    -0.390 A  
HETATM   22  C   UNL     1     -12.213  13.189  70.390  1.00  0.00    -0.389 A  
ENDBRANCH  12  13
ENDBRANCH   6  12
ENDBRANCH   5   6
ENDBRANCH   4   5
ENDBRANCH   2   4
TORSDOF 6
ENDMDL
MODEL        5
REMARK 921   NORMALIZED FREE ENERGY PREDICTED BY IDOCK:   -6.24 KCAL/MOL
REMARK 922        TOTAL FREE ENERGY PREDICTED BY IDOCK:   -9.33 KCAL/MOL
REMARK 923 INTER-LIGAND FREE ENERGY PREDICTED BY IDOCK:   -8.55 KCAL/MOL
REMARK 924 INTRA-LIGAND FREE ENERGY PREDICTED BY IDOCK:   -0.78 KCAL/MOL
REMARK 927      BINDING AFFINITY PREDICTED BY RF-SCORE:    0.00 PKD
ROOT
HETATM    1  C   UNL     1     -10.406  17.762  66.106  1.00  0.00    -0.340 C  
HETATM    2  N   UNL     1     -10.252  16.346  65.781  1.00  0.00    -0.435 NA 
HETATM    3  H   UNL     1      -9.317  16.139  65.429  1.00  0.00     0.000 HD 
ENDROOT
BRANCH   2   4
HETATM    4  C   UNL     1     -10.596  15.503  66.932  1.00  0.00    -0.307 C  
BRANCH   4   5
HETATM    5  C   UNL     1     -11.899  14.707  66.744  1.00  0.00    -0.334 C  
BRANCH   5   6
HETATM    6  C   UNL     1     -11.869  13.223  67.149  1.00  0.00    -0.374 C  
BRANCH   6   7
HETATM    7  C   UNL     1     -11.239  12.345  66.082  1.00  0.00    -0.322 A  
HETATM    8  C   UNL     1     -10.643  11.308  63.913  1.00  0.00    -0.391 A  
HETATM    9  S   UNL     1     -11.700  12.544  64.435  1.00  0.00    -0.396 SA 
HETATM   10  C   UNL     1     -10.312  11.326  66.213  1.00  0.00    -0.294 A  
HETATM   11  C   UNL     1      -9.965  10.732  64.963  1.00  0.00    -0.361 A  
ENDBRANCH   6   7
BRANCH   6  12
HETATM   12  O   UNL     1     -11.056  13.062  68.343  1.00  0.00    -0.236 OA 
BRANCH  12  13
HETATM   13  C   UNL     1     -11.663  12.493  69.445  1.00  0.00    -0.322 A  
HETATM   14  C   UNL     1     -12.245  10.560  70.795  1.00  0.00    -0.468 A  
HETATM   15  C   UNL     1     -11.580  11.120  69.710  1.00  0.00    -0.409 A  
HETATM   16  C   UNL     1     -12.987  11.370  71.647  1.00  0.00    -0.523 A  
HETATM   17  C   UNL     1     -13.036  12.755  71.455  1.00  0.00    -0.388 A  
HETATM   18  C   UNL     1     -13.763  13.550  72.353  1.00  0.00    -0.704 A  
HETATM   19  C   UNL     1     -13.792  14.936  72.226  1.00  0.00    -0.588 A  
HETATM   20  C   UNL     1     -13.088  15.541  71.193  1.00  0.00    -0.573 A  
HETATM   21  C   UNL     1     -12.380  14.759  70.268  1.00  0.00    -0.400 A  
HETATM   22  C   UNL     1     -12.346  13.346  70.362  1.00  0.00    -0.382 A  
ENDBRANCH  12  13
ENDBRANCH   6  12
ENDBRANCH   5   6
ENDBRANCH   4   5
ENDBRANCH   2   4
TORSDOF 6
ENDMDL
MODEL        6
REMARK 921   NORMALIZED FREE ENERGY PREDICTED BY IDOCK:   -6.22 KCAL/MOL
REMARK 922        TOTAL FREE ENERGY PREDICTED BY IDOCK:   -9.30 KCAL/MOL
REMARK 923 INTER-LIGAND FREE ENERGY PREDICTED BY IDOCK:   -8.49 KCAL/MOL
REMARK 924 INTRA-LIGAND FREE ENERGY PREDICTED BY IDOCK:   -0.81 KCAL/MOL
REMARK 927      BINDING AFFINITY PREDICTED BY RF-SCORE:    0.00 PKD
ROOT
HETATM    1  C   UNL     1     -12.481  12.164  63.424  1.00  0.00    -0.512 C  
HETATM    2  N   UNL     1     -12.279  13.483  64.020  1.00  0.00    -0.612 NA 
HETATM    3  H   UNL     1     -12.716  14.218  63.465  1.00  0.00     0.000 HD 
ENDROOT
BRANCH   2   4
HETATM    4  C   UNL     1     -12.744  13.506  65.411  1.00  0.00    -0.442 C  
BRANCH   4   5
HETATM    5  C   UNL     1     -11.606  13.423  66.442  1.00  0.00    -0.381 C  
BRANCH   5   6
HETATM    6  C   UNL     1     -11.589  12.188  67.358  1.00  0.00    -0.340 C  
BRANCH   6   7
HETATM    7  C   UNL     1     -10.746  11.059  66.792  1.00  0.00    -0.266 A  
HETATM    8  C   UNL     1      -9.081   9.767  65.491  1.00  0.00    -0.196 A  
HETATM    9  S   UNL     1      -9.552  11.405  65.599  1.00  0.00    -0.235 SA 
HETATM   10  C   UNL     1     -10.785   9.704  67.070  1.00  0.00    -0.225 A  
HETATM   11  C   UNL     1      -9.823   8.961  66.323  1.00  0.00    -0.355 A  
ENDBRANCH   6   7
BRANCH   6  12
HETATM   12  O   UNL     1     -10.995  12.539  68.637  1.00  0.00    -0.235 OA 
BRANCH  12  13
HETATM   13  C   UNL     1     -11.699  12.192  69.774  1.00  0.00    -0.310 A  
HETATM   14  C   UNL     1     -12.455  10.545  71.390  1.00  0.00    -0.516 A  
HETATM   15  C   UNL     1     -11.696  10.884  70.275  1.00  0.00    -0.437 A  
HETATM   16  C   UNL     1     -13.213  11.516  72.034  1.00  0.00    -0.443 A  
HETATM   17  C   UNL     1     -13.186  12.846  71.605  1.00  0.00    -0.416 A  
HETATM   18  C   UNL     1     -13.933  13.810  72.298  1.00  0.00    -0.672 A  
HETATM   19  C   UNL     1     -13.891  15.153  71.933  1.00  0.00    -0.607 A  
HETATM   20  C   UNL     1     -13.093  15.544  70.865  1.00  0.00    -0.508 A  
HETATM   21  C   UNL     1     -12.363  14.589  70.142  1.00  0.00    -0.398 A  
HETATM   22  C   UNL     1     -12.400  13.214  70.479  1.00  0.00    -0.380 A  
ENDBRANCH  12  13
ENDBRANCH   6  12
ENDBRANCH   5   6
ENDBRANCH   4   5
ENDBRANCH   2   4
TORSDOF 6
ENDMDL
MODEL        7
REMARK 921   NORMALIZED FREE ENERGY PREDICTED BY IDOCK:   -6.18 KCAL/MOL
REMARK 922        TOTAL FREE ENERGY PREDICTED BY IDOCK:   -9.24 KCAL/MOL
REMARK 923 INTER-LIGAND FREE ENERGY PREDICTED BY IDOCK:   -8.42 KCAL/MOL
REMARK 924 INTRA-LIGAND FREE ENERGY PREDICTED BY IDOCK:   -0.82 KCAL/MOL
REMARK 927      BINDING AFFINITY PREDICTED BY RF-SCORE:    0.00 PKD
ROOT
HETATM    1  C   UNL     1     -10.571  12.021  63.542  1.00  0.00    -0.465 C  
HETATM    2  N   UNL     1     -10.156  13.277  64.166  1.00  0.00    -0.767 NA 
HETATM    3  H   UNL     1      -9.720  13.906  63.493  1.00  0.00     0.000 HD 
ENDROOT
BRANCH   2   4
HETATM    4  C   UNL     1     -11.283  13.917  64.855  1.00  0.00    -0.356 C  
BRANCH   4   5
HETATM    5  C   UNL     1     -10.929  15.276  65.481  1.00  0.00    -0.365 C  
BRANCH   5   6
HETATM    6  C   UNL     1     -10.805  15.322  67.014  1.00  0.00    -0.321 C  
BRANCH   6   7
HETATM    7  C   UNL     1     -10.510  16.719  67.528  1.00  0.00    -0.319 A  
HETATM    8  C   UNL     1     -10.060  19.152  67.660  1.00  0.00    -0.377 A  
HETATM    9  S   UNL     1     -10.358  18.023  66.413  1.00  0.00    -0.351 SA 
HETATM   10  C   UNL     1     -10.306  17.156  68.825  1.00  0.00    -0.353 A  
HETATM   11  C   UNL     1     -10.052  18.558  68.901  1.00  0.00    -0.348 A  
ENDBRANCH   6   7
BRANCH   6  12
HETATM   12  O   UNL     1     -12.066  14.922  67.615  1.00  0.00    -0.253 OA 
BRANCH  12  13
HETATM   13  C   UNL     1     -12.033  13.864  68.501  1.00  0.00    -0.359 A  
HETATM   14  C   UNL     1     -11.546  11.545  69.031  1.00  0.00    -0.383 A  
HETATM   15  C   UNL     1     -11.520  12.612  68.140  1.00  0.00    -0.359 A  
HETATM   16  C   UNL     1     -12.068  11.720  70.308  1.00  0.00    -0.426 A  
HETATM   17  C   UNL     1     -12.524  12.973  70.728  1.00  0.00    -0.384 A  
HETATM   18  C   UNL     1     -13.010  13.128  72.035  1.00  0.00    -0.401 A  
HETATM   19  C   UNL     1     -13.424  14.370  72.507  1.00  0.00    -0.593 A  
HETATM   20  C   UNL     1     -13.353  15.476  71.669  1.00  0.00    -0.585 A  
HETATM   21  C   UNL     1     -12.898  15.334  70.350  1.00  0.00    -0.360 A  
HETATM   22  C   UNL     1     -12.486  14.080  69.837  1.00  0.00    -0.301 A  
ENDBRANCH  12  13
ENDBRANCH   6  12
ENDBRANCH   5   6
ENDBRANCH   4   5
ENDBRANCH   2   4
TORSDOF 6
ENDMDL
MODEL        8
REMARK 921   NORMALIZED FREE ENERGY PREDICTED BY IDOCK:   -6.16 KCAL/MOL
REMARK 922        TOTAL FREE ENERGY PREDICTED BY IDOCK:   -9.21 KCAL/MOL
REMARK 923 INTER-LIGAND FREE ENERGY PREDICTED BY IDOCK:   -8.40 KCAL/MOL
REMARK 924 INTRA-LIGAND FREE ENERGY PREDICTED BY IDOCK:   -0.81 KCAL/MOL
REMARK 927      BINDING AFFINITY PREDICTED BY RF-SCORE:    0.00 PKD
ROOT
HETATM    1  C   UNL     1     -12.990  10.072  71.638  1.00  0.00    -0.449 C  
HETATM    2  N   UNL     1     -12.739  10.014  70.199  1.00  0.00    -0.532 NA 
HETATM    3  H   UNL     1     -13.429  10.550  69.674  1.00  0.00     0.000 HD 
ENDROOT
BRANCH   2   4
HETATM    4  C   UNL     1     -11.370  10.443  69.888  1.00  0.00    -0.302 C  
BRANCH   4   5
HETATM    5  C   UNL     1     -11.098  10.585  68.381  1.00  0.00    -0.335 C  
BRANCH   5   6
HETATM    6  C   UNL     1     -11.066  12.015  67.815  1.00  0.00    -0.249 C  
BRANCH   6   7
HETATM    7  C   UNL     1     -11.313  12.050  66.318  1.00  0.00    -0.357 A  
HETATM    8  C   UNL     1     -11.149  11.654  63.878  1.00  0.00    -0.401 A  
HETATM    9  S   UNL     1     -10.300  11.136  65.267  1.00  0.00    -0.272 SA 
HETATM   10  C   UNL     1     -12.261  12.754  65.597  1.00  0.00    -0.503 A  
HETATM   11  C   UNL     1     -12.170  12.522  64.192  1.00  0.00    -0.552 A  
ENDBRANCH   6   7
BRANCH   6  12
HETATM   12  O   UNL     1     -12.126  12.802  68.423  1.00  0.00    -0.276 OA 
BRANCH  12  13
HETATM   13  C   UNL     1     -11.774  14.025  68.959  1.00  0.00    -0.330 A  
HETATM   14  C   UNL     1     -10.683  16.188  68.793  1.00  0.00    -0.294 A  
HETATM   15  C   UNL     1     -11.075  14.985  68.217  1.00  0.00    -0.292 A  
HETATM   16  C   UNL     1     -11.003  16.458  70.119  1.00  0.00    -0.291 A  
HETATM   17  C   UNL     1     -11.760  15.554  70.871  1.00  0.00    -0.413 A  
HETATM   18  C   UNL     1     -12.099  15.872  72.194  1.00  0.00    -0.596 A  
HETATM   19  C   UNL     1     -12.895  15.022  72.957  1.00  0.00    -0.574 A  
HETATM   20  C   UNL     1     -13.362  13.840  72.396  1.00  0.00    -0.635 A  
HETATM   21  C   UNL     1     -13.008  13.492  71.084  1.00  0.00    -0.338 A  
HETATM   22  C   UNL     1     -12.187  14.329  70.290  1.00  0.00    -0.407 A  
ENDBRANCH  12  13
ENDBRANCH   6  12
ENDBRANCH   5   6
ENDBRANCH   4   5
ENDBRANCH   2   4
TORSDOF 6
ENDMDL
MODEL        9
REMARK 921   NORMALIZED FREE ENERGY PREDICTED BY IDOCK:   -6.07 KCAL/MOL
REMARK 922        TOTAL FREE ENERGY PREDICTED BY IDOCK:   -9.10 KCAL/MOL
REMARK 923 INTER-LIGAND FREE ENERGY PREDICTED BY IDOCK:   -8.05 KCAL/MOL
REMARK 924 INTRA-LIGAND FREE ENERGY PREDICTED BY IDOCK:   -1.06 KCAL/MOL
REMARK 927      BINDING AFFINITY PREDICTED BY RF-SCORE:    0.00 PKD
ROOT
HETATM    1  C   UNL     1     -12.281  13.985  64.042  1.00  0.00    -0.355 C  
HETATM    2  N   UNL     1     -11.353  15.008  64.520  1.00  0.00    -0.627 NA 
HETATM    3  H   UNL     1     -11.819  15.689  65.119  1.00  0.00     0.000 HD 
ENDROOT
BRANCH   2   4
HETATM    4  C   UNL     1     -10.199  14.398  65.189  1.00  0.00    -0.391 C  
BRANCH   4   5
HETATM    5  C   UNL     1      -9.386  15.389  66.039  1.00  0.00    -0.364 C  
BRANCH   5   6
HETATM    6  C   UNL     1     -10.036  15.879  67.344  1.00  0.00    -0.252 C  
BRANCH   6   7
HETATM    7  C   UNL     1     -10.154  17.391  67.400  1.00  0.00    -0.321 A  
HETATM    8  C   UNL     1     -10.066  19.750  68.150  1.00  0.00    -0.452 A  
HETATM    9  S   UNL     1      -9.663  18.232  68.820  1.00  0.00    -0.295 SA 
HETATM   10  C   UNL     1     -10.640  18.273  66.451  1.00  0.00    -0.318 A  
HETATM   11  C   UNL     1     -10.585  19.632  66.882  1.00  0.00    -0.603 A  
ENDBRANCH   6   7
BRANCH   6  12
HETATM   12  O   UNL     1     -11.390  15.360  67.437  1.00  0.00    -0.319 OA 
BRANCH  12  13
HETATM   13  C   UNL     1     -11.777  14.822  68.649  1.00  0.00    -0.325 A  
HETATM   14  C   UNL     1     -12.550  15.068  70.938  1.00  0.00    -0.419 A  
HETATM   15  C   UNL     1     -12.218  15.625  69.708  1.00  0.00    -0.293 A  
HETATM   16  C   UNL     1     -12.466  13.692  71.120  1.00  0.00    -0.442 A  
HETATM   17  C   UNL     1     -12.098  12.852  70.066  1.00  0.00    -0.357 A  
HETATM   18  C   UNL     1     -12.058  11.464  70.271  1.00  0.00    -0.459 A  
HETATM   19  C   UNL     1     -11.746  10.592  69.231  1.00  0.00    -0.336 A  
HETATM   20  C   UNL     1     -11.471  11.105  67.970  1.00  0.00    -0.366 A  
HETATM   21  C   UNL     1     -11.477  12.491  67.755  1.00  0.00    -0.378 A  
HETATM   22  C   UNL     1     -11.774  13.404  68.796  1.00  0.00    -0.377 A  
ENDBRANCH  12  13
ENDBRANCH   6  12
ENDBRANCH   5   6
ENDBRANCH   4   5
ENDBRANCH   2   4
TORSDOF 6
ENDMDL
MODEL       10
REMARK 921   NORMALIZED FREE ENERGY PREDICTED BY IDOCK:   -6.06 KCAL/MOL
REMARK 922        TOTAL FREE ENERGY PREDICTED BY IDOCK:   -9.08 KCAL/MOL
REMARK 923 INTER-LIGAND FREE ENERGY PREDICTED BY IDOCK:   -8.07 KCAL/MOL
REMARK 924 INTRA-LIGAND FREE ENERGY PREDICTED BY IDOCK:   -1.02 KCAL/MOL
REMARK 927      BINDING AFFINITY PREDICTED BY RF-SCORE:    0.00 PKD
ROOT
HETATM    1  C   UNL     1      -9.338  15.740  65.964  1.00  0.00    -0.349 C  
HETATM    2  N   UNL     1     -10.429  16.378  66.698  1.00  0.00    -0.293 NA 
HETATM    3  H   UNL     1     -11.336  15.999  66.429  1.00  0.00     0.000 HD 
ENDROOT
BRANCH   2   4
HETATM    4  C   UNL     1     -10.211  16.286  68.146  1.00  0.00    -0.258 C  
BRANCH   4   5
HETATM    5  C   UNL     1     -11.473  15.897  68.935  1.00  0.00    -0.386 C  
BRANCH   5   6
HETATM    6  C   UNL     1     -11.557  14.444  69.435  1.00  0.00    -0.304 C  
BRANCH   6   7
HETATM    7  C   UNL     1     -12.223  14.339  70.795  1.00  0.00    -0.353 A  
HETATM    8  C   UNL     1     -13.032  14.834  73.083  1.00  0.00    -0.517 A  
HETATM    9  S   UNL     1     -12.108  15.653  71.903  1.00  0.00    -0.485 SA 
HETATM   10  C   UNL     1     -12.937  13.291  71.348  1.00  0.00    -0.398 A  
HETATM   11  C   UNL     1     -13.407  13.578  72.665  1.00  0.00    -0.546 A  
ENDBRANCH   6   7
BRANCH   6  12
HETATM   12  O   UNL     1     -12.370  13.661  68.520  1.00  0.00    -0.248 OA 
BRANCH  12  13
HETATM   13  C   UNL     1     -11.742  12.640  67.836  1.00  0.00    -0.358 A  
HETATM   14  C   UNL     1     -10.490  10.559  67.795  1.00  0.00    -0.263 A  
HETATM   15  C   UNL     1     -11.166  11.549  68.499  1.00  0.00    -0.315 A  
HETATM   16  C   UNL     1     -10.398  10.635  66.410  1.00  0.00    -0.291 A  
HETATM   17  C   UNL     1     -11.020  11.671  65.707  1.00  0.00    -0.329 A  
HETATM   18  C   UNL     1     -10.940  11.700  64.306  1.00  0.00    -0.418 A  
HETATM   19  C   UNL     1     -11.590  12.686  63.569  1.00  0.00    -0.584 A  
HETATM   20  C   UNL     1     -12.330  13.657  64.231  1.00  0.00    -0.388 A  
HETATM   21  C   UNL     1     -12.396  13.661  65.633  1.00  0.00    -0.518 A  
HETATM   22  C   UNL     1     -11.732  12.681  66.410  1.00  0.00    -0.466 A  
ENDBRANCH  12  13
ENDBRANCH   6  12
ENDBRANCH   5   6
ENDBRANCH   4   5
ENDBRANCH   2   4
TORSDOF 6
ENDMDL
MODEL       11
REMARK 921   NORMALIZED FREE ENERGY PREDICTED BY IDOCK:   -6.05 KCAL/MOL
REMARK 922        TOTAL FREE ENERGY PREDICTED BY IDOCK:   -9.07 KCAL/MOL
REMARK 923 INTER-LIGAND FREE ENERGY PREDICTED BY IDOCK:   -8.22 KCAL/MOL
REMARK 924 INTRA-LIGAND FREE ENERGY PREDICTED BY IDOCK:   -0.84 KCAL/MOL
REMARK 927      BINDING AFFINITY PREDICTED BY RF-SCORE:    0.00 PKD
ROOT
HETATM    1  C   UNL     1     -12.258  12.629  63.363  1.00  0.00    -0.517 C  
HETATM    2  N   UNL     1     -12.354  14.086  63.420  1.00  0.00    -1.154 NA 
HETATM    3  H   UNL     1     -13.268  14.416  63.109  1.00  0.00     0.000 HD 
ENDROOT
BRANCH   2   4
HETATM    4  C   UNL     1     -12.029  14.581  64.763  1.00  0.00    -0.442 C  
BRANCH   4   5
HETATM    5  C   UNL     1     -12.612  13.718  65.894  1.00  0.00    -0.494 C  
BRANCH   5   6
HETATM    6  C   UNL     1     -11.635  13.260  66.990  1.00  0.00    -0.359 C  
BRANCH   6   7
HETATM    7  C   UNL     1     -11.506  14.274  68.112  1.00  0.00    -0.308 A  
HETATM    8  C   UNL     1     -10.817  16.219  69.483  1.00  0.00    -0.342 A  
HETATM    9  S   UNL     1     -10.407  15.590  67.949  1.00  0.00    -0.254 SA 
HETATM   10  C   UNL     1     -12.147  14.318  69.338  1.00  0.00    -0.361 A  
HETATM   11  C   UNL     1     -11.753  15.441  70.125  1.00  0.00    -0.356 A  
ENDBRANCH   6   7
BRANCH   6  12
HETATM   12  O   UNL     1     -12.127  12.036  67.600  1.00  0.00    -0.547 OA 
BRANCH  12  13
HETATM   13  C   UNL     1     -11.184  11.125  68.032  1.00  0.00    -0.296 A  
HETATM   14  C   UNL     1      -9.130   9.871  67.708  1.00  0.00    -0.138 A  
HETATM   15  C   UNL     1     -10.039  10.832  67.281  1.00  0.00    -0.233 A  
HETATM   16  C   UNL     1      -9.342   9.201  68.908  1.00  0.00    -0.146 A  
HETATM   17  C   UNL     1     -10.437   9.516  69.719  1.00  0.00    -0.253 A  
HETATM   18  C   UNL     1     -10.604   8.849  70.942  1.00  0.00    -0.295 A  
HETATM   19  C   UNL     1     -11.652   9.171  71.800  1.00  0.00    -0.457 A  
HETATM   20  C   UNL     1     -12.546  10.171  71.439  1.00  0.00    -0.526 A  
HETATM   21  C   UNL     1     -12.411  10.828  70.207  1.00  0.00    -0.423 A  
HETATM   22  C   UNL     1     -11.365  10.510  69.306  1.00  0.00    -0.325 A  
ENDBRANCH  12  13
ENDBRANCH   6  12
ENDBRANCH   5   6
ENDBRANCH   4   5
ENDBRANCH   2   4
TORSDOF 6
ENDMDL
MODEL       12
REMARK 921   NORMALIZED FREE ENERGY PREDICTED BY IDOCK:   -5.97 KCAL/MOL
REMARK 922        TOTAL FREE ENERGY PREDICTED BY IDOCK:   -8.96 KCAL/MOL
REMARK 923 INTER-LIGAND FREE ENERGY PREDICTED BY IDOCK:   -8.26 KCAL/MOL
REMARK 924 INTRA-LIGAND FREE ENERGY PREDICTED BY IDOCK:   -0.69 KCAL/MOL
REMARK 927      BINDING AFFINITY PREDICTED BY RF-SCORE:    0.00 PKD
ROOT
HETATM    1  C   UNL     1     -13.227  15.229  71.158  1.00  0.00    -0.498 C  
HETATM    2  N   UNL     1     -12.682  15.254  69.802  1.00  0.00    -0.622 NA 
HETATM    3  H   UNL     1     -12.222  16.141  69.596  1.00  0.00     0.000 HD 
ENDROOT
BRANCH   2   4
HETATM    4  C   UNL     1     -11.785  14.114  69.577  1.00  0.00    -0.312 C  
BRANCH   4   5
HETATM    5  C   UNL     1     -12.153  12.870  70.402  1.00  0.00    -0.385 C  
BRANCH   5   6
HETATM    6  C   UNL     1     -11.608  11.521  69.902  1.00  0.00    -0.308 C  
BRANCH   6   7
HETATM    7  C   UNL     1     -11.861  10.394  70.887  1.00  0.00    -0.377 A  
HETATM    8  C   UNL     1     -11.597   8.377  72.301  1.00  0.00    -0.383 A  
HETATM    9  S   UNL     1     -10.632   9.221  71.173  1.00  0.00    -0.345 SA 
HETATM   10  C   UNL     1     -12.993  10.111  71.632  1.00  0.00    -0.561 A  
HETATM   11  C   UNL     1     -12.839   8.952  72.450  1.00  0.00    -0.446 A  
ENDBRANCH   6   7
BRANCH   6  12
HETATM   12  O   UNL     1     -12.286  11.148  68.672  1.00  0.00    -0.582 OA 
BRANCH  12  13
HETATM   13  C   UNL     1     -11.492  10.843  67.584  1.00  0.00    -0.200 A  
HETATM   14  C   UNL     1      -9.923   9.389  66.434  1.00  0.00    -0.346 A  
HETATM   15  C   UNL     1     -10.758   9.652  67.514  1.00  0.00    -0.321 A  
HETATM   16  C   UNL     1      -9.826  10.306  65.394  1.00  0.00    -0.362 A  
HETATM   17  C   UNL     1     -10.596  11.473  65.395  1.00  0.00    -0.336 A  
HETATM   18  C   UNL     1     -10.504  12.361  64.313  1.00  0.00    -0.389 A  
HETATM   19  C   UNL     1     -11.293  13.507  64.253  1.00  0.00    -0.402 A  
HETATM   20  C   UNL     1     -12.188  13.773  65.281  1.00  0.00    -0.461 A  
HETATM   21  C   UNL     1     -12.272  12.911  66.385  1.00  0.00    -0.301 A  
HETATM   22  C   UNL     1     -11.470  11.748  66.482  1.00  0.00    -0.325 A  
ENDBRANCH  12  13
ENDBRANCH   6  12
ENDBRANCH   5   6
ENDBRANCH   4   5
ENDBRANCH   2   4
TORSDOF 6
ENDMDL
MODEL       13
REMARK 921   NORMALIZED FREE ENERGY PREDICTED BY IDOCK:   -5.93 KCAL/MOL
REMARK 922        TOTAL FREE ENERGY PREDICTED BY IDOCK:   -8.91 KCAL/MOL
REMARK 923 INTER-LIGAND FREE ENERGY PREDICTED BY IDOCK:   -7.89 KCAL/MOL
REMARK 924 INTRA-LIGAND FREE ENERGY PREDICTED BY IDOCK:   -1.03 KCAL/MOL
REMARK 927      BINDING AFFINITY PREDICTED BY RF-SCORE:    0.00 PKD
ROOT
HETATM    1  C   UNL     1     -13.926   7.496  71.496  1.00  0.00    -0.410 C  
HETATM    2  N   UNL     1     -13.849   8.884  71.046  1.00  0.00    -0.583 NA 
HETATM    3  H   UNL     1     -14.774   9.306  70.964  1.00  0.00     0.000 HD 
ENDROOT
BRANCH   2   4
HETATM    4  C   UNL     1     -12.972   9.671  71.920  1.00  0.00    -0.435 C  
BRANCH   4   5
HETATM    5  C   UNL     1     -11.480   9.547  71.567  1.00  0.00    -0.466 C  
BRANCH   5   6
HETATM    6  C   UNL     1     -11.009  10.261  70.288  1.00  0.00    -0.309 C  
BRANCH   6   7
HETATM    7  C   UNL     1     -10.720   9.290  69.157  1.00  0.00    -0.183 A  
HETATM    8  C   UNL     1     -10.188   7.245  67.866  1.00  0.00    -0.191 A  
HETATM    9  S   UNL     1     -10.378   7.641  69.516  1.00  0.00    -0.220 SA 
HETATM   10  C   UNL     1     -10.659   9.519  67.794  1.00  0.00    -0.318 A  
HETATM   11  C   UNL     1     -10.357   8.340  67.050  1.00  0.00    -0.393 A  
ENDBRANCH   6   7
BRANCH   6  12
HETATM   12  O   UNL     1     -12.058  11.145  69.811  1.00  0.00    -0.315 OA 
BRANCH  12  13
HETATM   13  C   UNL     1     -11.749  12.486  69.701  1.00  0.00    -0.302 A  
HETATM   14  C   UNL     1     -10.591  14.323  68.613  1.00  0.00    -0.254 A  
HETATM   15  C   UNL     1     -10.934  12.977  68.673  1.00  0.00    -0.297 A  
HETATM   16  C   UNL     1     -11.077  15.205  69.571  1.00  0.00    -0.287 A  
HETATM   17  C   UNL     1     -11.949  14.766  70.572  1.00  0.00    -0.373 A  
HETATM   18  C   UNL     1     -12.452  15.688  71.502  1.00  0.00    -0.499 A  
HETATM   19  C   UNL     1     -13.362  15.299  72.480  1.00  0.00    -0.553 A  
HETATM   20  C   UNL     1     -13.781  13.975  72.535  1.00  0.00    -0.651 A  
HETATM   21  C   UNL     1     -13.266  13.034  71.631  1.00  0.00    -0.426 A  
HETATM   22  C   UNL     1     -12.326  13.397  70.636  1.00  0.00    -0.423 A  
ENDBRANCH  12  13
ENDBRANCH   6  12
ENDBRANCH   5   6
ENDBRANCH   4   5
ENDBRANCH   2   4
TORSDOF 6
ENDMDL
MODEL       14
REMARK 921   NORMALIZED FREE ENERGY PREDICTED BY IDOCK:   -5.90 KCAL/MOL
REMARK 922        TOTAL FREE ENERGY PREDICTED BY IDOCK:   -8.87 KCAL/MOL
REMARK 923 INTER-LIGAND FREE ENERGY PREDICTED BY IDOCK:   -8.13 KCAL/MOL
REMARK 924 INTRA-LIGAND FREE ENERGY PREDICTED BY IDOCK:   -0.74 KCAL/MOL
REMARK 927      BINDING AFFINITY PREDICTED BY RF-SCORE:    0.00 PKD
ROOT
HETATM    1  C   UNL     1     -12.354  12.214  63.534  1.00  0.00    -0.574 C  
HETATM    2  N   UNL     1     -12.333  13.617  63.126  1.00  0.00    -1.076 NA 
HETATM    3  H   UNL     1     -13.073  13.826  62.456  1.00  0.00     0.000 HD 
ENDROOT
BRANCH   2   4
HETATM    4  C   UNL     1     -12.394  14.504  64.293  1.00  0.00    -0.369 C  
BRANCH   4   5
HETATM    5  C   UNL     1     -11.032  14.720  64.974  1.00  0.00    -0.426 C  
BRANCH   5   6
HETATM    6  C   UNL     1     -11.030  15.542  66.274  1.00  0.00    -0.242 C  
BRANCH   6   7
HETATM    7  C   UNL     1     -11.344  14.696  67.494  1.00  0.00    -0.348 A  
HETATM    8  C   UNL     1     -11.617  12.787  69.050  1.00  0.00    -0.316 A  
HETATM    9  S   UNL     1     -11.072  12.996  67.445  1.00  0.00    -0.284 SA 
HETATM   10  C   UNL     1     -11.869  15.074  68.718  1.00  0.00    -0.331 A  
HETATM   11  C   UNL     1     -12.021  13.975  69.615  1.00  0.00    -0.393 A  
ENDBRANCH   6   7
BRANCH   6  12
HETATM   12  O   UNL     1      -9.706  16.100  66.494  1.00  0.00    -0.235 OA 
BRANCH  12  13
HETATM   13  C   UNL     1      -9.625  17.460  66.715  1.00  0.00    -0.277 A  
HETATM   14  C   UNL     1     -10.393  19.730  66.323  1.00  0.00    -0.626 A  
HETATM   15  C   UNL     1     -10.526  18.360  66.131  1.00  0.00    -0.422 A  
HETATM   16  C   UNL     1      -9.366  20.222  67.122  1.00  0.00    -0.536 A  
HETATM   17  C   UNL     1      -8.490  19.351  67.778  1.00  0.00    -0.345 A  
HETATM   18  C   UNL     1      -7.488  19.876  68.607  1.00  0.00    -0.276 A  
HETATM   19  C   UNL     1      -6.630  19.040  69.317  1.00  0.00    -0.333 A  
HETATM   20  C   UNL     1      -6.772  17.663  69.203  1.00  0.00    -0.243 A  
HETATM   21  C   UNL     1      -7.749  17.121  68.356  1.00  0.00    -0.237 A  
HETATM   22  C   UNL     1      -8.625  17.946  67.608  1.00  0.00    -0.242 A  
ENDBRANCH  12  13
ENDBRANCH   6  12
ENDBRANCH   5   6
ENDBRANCH   4   5
ENDBRANCH   2   4
TORSDOF 6
ENDMDL
MODEL       15
REMARK 921   NORMALIZED FREE ENERGY PREDICTED BY IDOCK:   -5.86 KCAL/MOL
REMARK 922        TOTAL FREE ENERGY PREDICTED BY IDOCK:   -8.81 KCAL/MOL
REMARK 923 INTER-LIGAND FREE ENERGY PREDICTED BY IDOCK:   -7.95 KCAL/MOL
REMARK 924 INTRA-LIGAND FREE ENERGY PREDICTED BY IDOCK:   -0.85 KCAL/MOL
REMARK 927      BINDING AFFINITY PREDICTED BY RF-SCORE:    0.00 PKD
ROOT
HETATM    1  C   UNL     1     -10.849  13.327  64.476  1.00  0.00    -0.394 C  
HETATM    2  N   UNL     1      -9.614  13.466  65.246  1.00  0.00    -0.506 NA 
HETATM    3  H   UNL     1      -9.126  14.332  65.021  1.00  0.00     0.000 HD 
ENDROOT
BRANCH   2   4
HETATM    4  C   UNL     1      -9.879  13.352  66.685  1.00  0.00    -0.278 C  
BRANCH   4   5
HETATM    5  C   UNL     1      -9.226  14.466  67.520  1.00  0.00    -0.200 C  
BRANCH   5   6
HETATM    6  C   UNL     1     -10.169  15.352  68.352  1.00  0.00    -0.221 C  
BRANCH   6   7
HETATM    7  C   UNL     1     -10.284  16.758  67.792  1.00  0.00    -0.303 A  
HETATM    8  C   UNL     1     -10.444  18.691  66.250  1.00  0.00    -0.424 A  
HETATM    9  S   UNL     1     -10.297  16.997  66.086  1.00  0.00    -0.272 SA 
HETATM   10  C   UNL     1     -10.364  17.969  68.458  1.00  0.00    -0.359 A  
HETATM   11  C   UNL     1     -10.461  19.081  67.570  1.00  0.00    -0.537 A  
ENDBRANCH   6   7
BRANCH   6  12
HETATM   12  O   UNL     1     -11.509  14.791  68.328  1.00  0.00    -0.289 OA 
BRANCH  12  13
HETATM   13  C   UNL     1     -12.123  14.575  69.546  1.00  0.00    -0.306 A  
HETATM   14  C   UNL     1     -13.225  15.391  71.550  1.00  0.00    -0.572 A  
HETATM   15  C   UNL     1     -12.660  15.625  70.301  1.00  0.00    -0.319 A  
HETATM   16  C   UNL     1     -13.279  14.097  72.054  1.00  0.00    -0.488 A  
HETATM   17  C   UNL     1     -12.816  13.014  71.300  1.00  0.00    -0.370 A  
HETATM   18  C   UNL     1     -12.919  11.716  71.821  1.00  0.00    -0.483 A  
HETATM   19  C   UNL     1     -12.517  10.609  71.079  1.00  0.00    -0.515 A  
HETATM   20  C   UNL     1     -12.007  10.794  69.800  1.00  0.00    -0.397 A  
HETATM   21  C   UNL     1     -11.870  12.087  69.275  1.00  0.00    -0.377 A  
HETATM   22  C   UNL     1     -12.255  13.234  70.013  1.00  0.00    -0.345 A  
ENDBRANCH  12  13
ENDBRANCH   6  12
ENDBRANCH   5   6
ENDBRANCH   4   5
ENDBRANCH   2   4
TORSDOF 6
ENDMDL
MODEL       16
REMARK 921   NORMALIZED FREE ENERGY PREDICTED BY IDOCK:   -5.85 KCAL/MOL
REMARK 922        TOTAL FREE ENERGY PREDICTED BY IDOCK:   -8.80 KCAL/MOL
REMARK 923 INTER-LIGAND FREE ENERGY PREDICTED BY IDOCK:   -7.83 KCAL/MOL
REMARK 924 INTRA-LIGAND FREE ENERGY PREDICTED BY IDOCK:   -0.97 KCAL/MOL
REMARK 927      BINDING AFFINITY PREDICTED BY RF-SCORE:    0.00 PKD
ROOT
HETATM    1  C   UNL     1     -10.872   9.957  67.605  1.00  0.00    -0.257 C  
HETATM    2  N   UNL     1     -11.849  10.257  68.649  1.00  0.00    -0.682 NA 
HETATM    3  H   UNL     1     -12.290   9.410  69.008  1.00  0.00     0.000 HD 
ENDROOT
BRANCH   2   4
HETATM    4  C   UNL     1     -11.241  11.048  69.725  1.00  0.00    -0.268 C  
BRANCH   4   5
HETATM    5  C   UNL     1     -12.243  11.946  70.471  1.00  0.00    -0.426 C  
BRANCH   5   6
HETATM    6  C   UNL     1     -12.353  13.405  69.996  1.00  0.00    -0.226 C  
BRANCH   6   7
HETATM    7  C   UNL     1     -12.528  14.376  71.150  1.00  0.00    -0.359 A  
HETATM    8  C   UNL     1     -13.510  15.782  72.937  1.00  0.00    -0.580 A  
HETATM    9  S   UNL     1     -14.106  14.696  71.762  1.00  0.00    -0.545 SA 
HETATM   10  C   UNL     1     -11.578  15.118  71.829  1.00  0.00    -0.478 A  
HETATM   11  C   UNL     1     -12.143  15.925  72.862  1.00  0.00    -0.612 A  
ENDBRANCH   6   7
BRANCH   6  12
HETATM   12  O   UNL     1     -11.126  13.790  69.320  1.00  0.00    -0.251 OA 
BRANCH  12  13
HETATM   13  C   UNL     1     -11.239  14.244  68.021  1.00  0.00    -0.280 A  
HETATM   14  C   UNL     1     -11.847  13.910  65.694  1.00  0.00    -0.383 A  
HETATM   15  C   UNL     1     -11.793  13.454  67.006  1.00  0.00    -0.443 A  
HETATM   16  C   UNL     1     -11.367  15.177  65.380  1.00  0.00    -0.298 A  
HETATM   17  C   UNL     1     -10.872  16.022  66.378  1.00  0.00    -0.159 A  
HETATM   18  C   UNL     1     -10.429  17.308  66.036  1.00  0.00    -0.285 A  
HETATM   19  C   UNL     1      -9.978  18.196  67.009  1.00  0.00    -0.341 A  
HETATM   20  C   UNL     1      -9.969  17.802  68.341  1.00  0.00    -0.362 A  
HETATM   21  C   UNL     1     -10.380  16.509  68.697  1.00  0.00    -0.287 A  
HETATM   22  C   UNL     1     -10.828  15.578  67.728  1.00  0.00    -0.309 A  
ENDBRANCH  12  13
ENDBRANCH   6  12
ENDBRANCH   5   6
ENDBRANCH   4   5
ENDBRANCH   2   4
TORSDOF 6
ENDMDL
MODEL       17
REMARK 921   NORMALIZED FREE ENERGY PREDICTED BY IDOCK:   -5.84 KCAL/MOL
REMARK 922        TOTAL FREE ENERGY PREDICTED BY IDOCK:   -8.79 KCAL/MOL
REMARK 923 INTER-LIGAND FREE ENERGY PREDICTED BY IDOCK:   -7.93 KCAL/MOL
REMARK 924 INTRA-LIGAND FREE ENERGY PREDICTED BY IDOCK:   -0.85 KCAL/MOL
REMARK 927      BINDING AFFINITY PREDICTED BY RF-SCORE:    0.00 PKD
ROOT
HETATM    1  C   UNL     1     -12.382   8.802  72.129  1.00  0.00    -0.389 C  
HETATM    2  N   UNL     1     -12.516   9.215  70.733  1.00  0.00    -0.499 NA 
HETATM    3  H   UNL     1     -13.090   8.562  70.200  1.00  0.00     0.000 HD 
ENDROOT
BRANCH   2   4
HETATM    4  C   UNL     1     -13.029  10.587  70.639  1.00  0.00    -0.285 C  
BRANCH   4   5
HETATM    5  C   UNL     1     -11.926  11.659  70.659  1.00  0.00    -0.356 C  
BRANCH   5   6
HETATM    6  C   UNL     1     -12.251  13.001  69.981  1.00  0.00    -0.236 C  
BRANCH   6   7
HETATM    7  C   UNL     1     -12.497  14.112  70.985  1.00  0.00    -0.367 A  
HETATM    8  C   UNL     1     -13.525  15.570  72.704  1.00  0.00    -0.547 A  
HETATM    9  S   UNL     1     -13.983  14.162  71.854  1.00  0.00    -0.475 SA 
HETATM   10  C   UNL     1     -11.688  15.179  71.335  1.00  0.00    -0.428 A  
HETATM   11  C   UNL     1     -12.278  16.016  72.328  1.00  0.00    -0.604 A  
ENDBRANCH   6   7
BRANCH   6  12
HETATM   12  O   UNL     1     -11.121  13.423  69.172  1.00  0.00    -0.252 OA 
BRANCH  12  13
HETATM   13  C   UNL     1     -11.335  13.562  67.815  1.00  0.00    -0.296 A  
HETATM   14  C   UNL     1     -12.031  12.670  65.666  1.00  0.00    -0.507 A  
HETATM   15  C   UNL     1     -11.874  12.528  67.040  1.00  0.00    -0.394 A  
HETATM   16  C   UNL     1     -11.669  13.862  65.047  1.00  0.00    -0.365 A  
HETATM   17  C   UNL     1     -11.192  14.942  65.797  1.00  0.00    -0.334 A  
HETATM   18  C   UNL     1     -10.870  16.143  65.148  1.00  0.00    -0.376 A  
HETATM   19  C   UNL     1     -10.443  17.256  65.867  1.00  0.00    -0.267 A  
HETATM   20  C   UNL     1     -10.335  17.176  67.249  1.00  0.00    -0.320 A  
HETATM   21  C   UNL     1     -10.625  15.973  67.911  1.00  0.00    -0.301 A  
HETATM   22  C   UNL     1     -11.045  14.819  67.206  1.00  0.00    -0.334 A  
ENDBRANCH  12  13
ENDBRANCH   6  12
ENDBRANCH   5   6
ENDBRANCH   4   5
ENDBRANCH   2   4
TORSDOF 6
ENDMDL
MODEL       18
REMARK 921   NORMALIZED FREE ENERGY PREDICTED BY IDOCK:   -5.83 KCAL/MOL
REMARK 922        TOTAL FREE ENERGY PREDICTED BY IDOCK:   -8.77 KCAL/MOL
REMARK 923 INTER-LIGAND FREE ENERGY PREDICTED BY IDOCK:   -7.91 KCAL/MOL
REMARK 924 INTRA-LIGAND FREE ENERGY PREDICTED BY IDOCK:   -0.87 KCAL/MOL
REMARK 927      BINDING AFFINITY PREDICTED BY RF-SCORE:    0.00 PKD
ROOT
HETATM    1  C   UNL     1     -10.794  15.654  66.283  1.00  0.00    -0.262 C  
HETATM    2  N   UNL     1     -10.020  16.656  67.013  1.00  0.00    -0.263 NA 
HETATM    3  H   UNL     1     -10.048  17.565  66.550  1.00  0.00     0.000 HD 
ENDROOT
BRANCH   2   4
HETATM    4  C   UNL     1     -10.462  16.747  68.409  1.00  0.00    -0.339 C  
BRANCH   4   5
HETATM    5  C   UNL     1     -11.709  15.899  68.715  1.00  0.00    -0.355 C  
BRANCH   5   6
HETATM    6  C   UNL     1     -11.565  14.824  69.807  1.00  0.00    -0.297 C  
BRANCH   6   7
HETATM    7  C   UNL     1     -12.174  15.257  71.128  1.00  0.00    -0.350 A  
HETATM    8  C   UNL     1     -13.778  15.768  72.945  1.00  0.00    -0.551 A  
HETATM    9  S   UNL     1     -13.879  15.166  71.350  1.00  0.00    -0.499 SA 
HETATM   10  C   UNL     1     -11.558  15.766  72.258  1.00  0.00    -0.522 A  
HETATM   11  C   UNL     1     -12.482  16.057  73.306  1.00  0.00    -0.645 A  
ENDBRANCH   6   7
BRANCH   6  12
HETATM   12  O   UNL     1     -12.275  13.623  69.403  1.00  0.00    -0.324 OA 
BRANCH  12  13
HETATM   13  C   UNL     1     -11.539  12.459  69.306  1.00  0.00    -0.319 A  
HETATM   14  C   UNL     1      -9.753  11.145  68.316  1.00  0.00    -0.190 A  
HETATM   15  C   UNL     1     -10.447  12.344  68.438  1.00  0.00    -0.245 A  
HETATM   16  C   UNL     1     -10.130  10.046  69.079  1.00  0.00    -0.211 A  
HETATM   17  C   UNL     1     -11.171  10.142  70.008  1.00  0.00    -0.361 A  
HETATM   18  C   UNL     1     -11.504   9.026  70.790  1.00  0.00    -0.331 A  
HETATM   19  C   UNL     1     -12.499   9.099  71.761  1.00  0.00    -0.447 A  
HETATM   20  C   UNL     1     -13.172  10.298  71.959  1.00  0.00    -0.516 A  
HETATM   21  C   UNL     1     -12.872  11.415  71.166  1.00  0.00    -0.440 A  
HETATM   22  C   UNL     1     -11.877  11.367  70.159  1.00  0.00    -0.440 A  
ENDBRANCH  12  13
ENDBRANCH   6  12
ENDBRANCH   5   6
ENDBRANCH   4   5
ENDBRANCH   2   4
TORSDOF 6
ENDMDL
MODEL       19
REMARK 921   NORMALIZED FREE ENERGY PREDICTED BY IDOCK:   -5.81 KCAL/MOL
REMARK 922        TOTAL FREE ENERGY PREDICTED BY IDOCK:   -8.75 KCAL/MOL
REMARK 923 INTER-LIGAND FREE ENERGY PREDICTED BY IDOCK:   -7.90 KCAL/MOL
REMARK 924 INTRA-LIGAND FREE ENERGY PREDICTED BY IDOCK:   -0.84 KCAL/MOL
REMARK 927      BINDING AFFINITY PREDICTED BY RF-SCORE:    0.00 PKD
ROOT
HETATM    1  C   UNL     1     -13.971   8.853  72.226  1.00  0.00    -0.466 C  
HETATM    2  N   UNL     1     -13.335  10.165  72.131  1.00  0.00    -0.552 NA 
HETATM    3  H   UNL     1     -12.522  10.235  72.743  1.00  0.00     0.000 HD 
ENDROOT
BRANCH   2   4
HETATM    4  C   UNL     1     -12.994  10.484  70.740  1.00  0.00    -0.330 C  
BRANCH   4   5
HETATM    5  C   UNL     1     -11.885  11.540  70.604  1.00  0.00    -0.279 C  
BRANCH   5   6
HETATM    6  C   UNL     1     -12.260  12.852  69.895  1.00  0.00    -0.188 C  
BRANCH   6   7
HETATM    7  C   UNL     1     -12.439  14.005  70.867  1.00  0.00    -0.369 A  
HETATM    8  C   UNL     1     -13.300  15.485  72.656  1.00  0.00    -0.522 A  
HETATM    9  S   UNL     1     -13.760  13.990  71.971  1.00  0.00    -0.516 SA 
HETATM   10  C   UNL     1     -11.686  15.156  71.017  1.00  0.00    -0.385 A  
HETATM   11  C   UNL     1     -12.180  16.006  72.051  1.00  0.00    -0.582 A  
ENDBRANCH   6   7
BRANCH   6  12
HETATM   12  O   UNL     1     -11.189  13.240  68.993  1.00  0.00    -0.256 OA 
BRANCH  12  13
HETATM   13  C   UNL     1     -11.455  13.186  67.639  1.00  0.00    -0.324 A  
HETATM   14  C   UNL     1     -12.524  14.062  65.642  1.00  0.00    -0.531 A  
HETATM   15  C   UNL     1     -12.222  14.166  66.996  1.00  0.00    -0.374 A  
HETATM   16  C   UNL     1     -12.044  12.986  64.905  1.00  0.00    -0.459 A  
HETATM   17  C   UNL     1     -11.217  12.025  65.497  1.00  0.00    -0.372 A  
HETATM   18  C   UNL     1     -10.719  10.971  64.718  1.00  0.00    -0.304 A  
HETATM   19  C   UNL     1      -9.851  10.025  65.258  1.00  0.00    -0.388 A  
HETATM   20  C   UNL     1      -9.473  10.129  66.590  1.00  0.00    -0.211 A  
HETATM   21  C   UNL     1      -9.986  11.160  67.391  1.00  0.00    -0.204 A  
HETATM   22  C   UNL     1     -10.883  12.127  66.875  1.00  0.00    -0.291 A  
ENDBRANCH  12  13
ENDBRANCH   6  12
ENDBRANCH   5   6
ENDBRANCH   4   5
ENDBRANCH   2   4
TORSDOF 6
ENDMDL
MODEL       20
REMARK 921   NORMALIZED FREE ENERGY PREDICTED BY IDOCK:   -5.77 KCAL/MOL
REMARK 922        TOTAL FREE ENERGY PREDICTED BY IDOCK:   -8.69 KCAL/MOL
REMARK 923 INTER-LIGAND FREE ENERGY PREDICTED BY IDOCK:   -7.94 KCAL/MOL
REMARK 924 INTRA-LIGAND FREE ENERGY PREDICTED BY IDOCK:   -0.75 KCAL/MOL
REMARK 927      BINDING AFFINITY PREDICTED BY RF-SCORE:    0.00 PKD
ROOT
HETATM    1  C   UNL     1     -12.501  12.989  63.236  1.00  0.00    -0.190 C  
HETATM    2  N   UNL     1     -12.403  14.358  63.740  1.00  0.00    -1.079 NA 
HETATM    3  H   UNL     1     -13.169  14.940  63.402  1.00  0.00     0.000 HD 
ENDROOT
BRANCH   2   4
HETATM    4  C   UNL     1     -12.318  14.371  65.205  1.00  0.00    -0.381 C  
BRANCH   4   5
HETATM    5  C   UNL     1     -11.031  13.733  65.753  1.00  0.00    -0.280 C  
BRANCH   5   6
HETATM    6  C   UNL     1     -11.201  12.615  66.796  1.00  0.00    -0.300 C  
BRANCH   6   7
HETATM    7  C   UNL     1     -10.552  11.314  66.360  1.00  0.00    -0.266 A  
HETATM    8  C   UNL     1      -9.298   9.601  65.084  1.00  0.00    -0.259 A  
HETATM    9  S   UNL     1      -9.694  11.248  64.868  1.00  0.00    -0.259 SA 
HETATM   10  C   UNL     1     -10.546  10.079  66.985  1.00  0.00    -0.279 A  
HETATM   11  C   UNL     1      -9.819   9.094  66.252  1.00  0.00    -0.359 A  
ENDBRANCH   6   7
BRANCH   6  12
HETATM   12  O   UNL     1     -10.548  13.003  68.035  1.00  0.00    -0.223 OA 
BRANCH  12  13
HETATM   13  C   UNL     1     -11.327  13.629  68.988  1.00  0.00    -0.287 A  
HETATM   14  C   UNL     1     -12.263  15.631  69.993  1.00  0.00    -0.351 A  
HETATM   15  C   UNL     1     -11.520  15.016  68.992  1.00  0.00    -0.322 A  
HETATM   16  C   UNL     1     -12.845  14.863  70.995  1.00  0.00    -0.425 A  
HETATM   17  C   UNL     1     -12.734  13.469  70.985  1.00  0.00    -0.399 A  
HETATM   18  C   UNL     1     -13.363  12.720  71.989  1.00  0.00    -0.565 A  
HETATM   19  C   UNL     1     -13.318  11.328  71.984  1.00  0.00    -0.386 A  
HETATM   20  C   UNL     1     -12.640  10.672  70.964  1.00  0.00    -0.516 A  
HETATM   21  C   UNL     1     -11.980  11.407  69.969  1.00  0.00    -0.442 A  
HETATM   22  C   UNL     1     -11.993  12.823  69.958  1.00  0.00    -0.371 A  
ENDBRANCH  12  13
ENDBRANCH   6  12
ENDBRANCH   5   6
ENDBRANCH   4   5
ENDBRANCH   2   4
TORSDOF 6
ENDMDL
MODEL       21
REMARK 921   NORMALIZED FREE ENERGY PREDICTED BY IDOCK:   -5.75 KCAL/MOL
REMARK 922        TOTAL FREE ENERGY PREDICTED BY IDOCK:   -8.66 KCAL/MOL
REMARK 923 INTER-LIGAND FREE ENERGY PREDICTED BY IDOCK:   -8.09 KCAL/MOL
REMARK 924 INTRA-LIGAND FREE ENERGY PREDICTED BY IDOCK:   -0.57 KCAL/MOL
REMARK 927      BINDING AFFINITY PREDICTED BY RF-SCORE:    0.00 PKD
ROOT
HETATM    1  C   UNL     1     -12.815  16.115  73.795  1.00  0.00    -0.531 C  
HETATM    2  N   UNL     1     -13.897  15.923  72.831  1.00  0.00    -0.599 NA 
HETATM    3  H   UNL     1     -14.546  16.710  72.831  1.00  0.00     0.000 HD 
ENDROOT
BRANCH   2   4
HETATM    4  C   UNL     1     -13.364  15.663  71.489  1.00  0.00    -0.452 C  
BRANCH   4   5
HETATM    5  C   UNL     1     -11.984  14.983  71.496  1.00  0.00    -0.416 C  
BRANCH   5   6
HETATM    6  C   UNL     1     -11.722  13.935  70.401  1.00  0.00    -0.199 C  
BRANCH   6   7
HETATM    7  C   UNL     1     -12.215  12.554  70.793  1.00  0.00    -0.240 A  
HETATM    8  C   UNL     1     -12.651  10.116  70.834  1.00  0.00    -0.360 A  
HETATM    9  S   UNL     1     -11.803  11.195  69.818  1.00  0.00    -0.380 SA 
HETATM   10  C   UNL     1     -13.011  12.171  71.858  1.00  0.00    -0.419 A  
HETATM   11  C   UNL     1     -13.258  10.766  71.884  1.00  0.00    -0.524 A  
ENDBRANCH   6   7
BRANCH   6  12
HETATM   12  O   UNL     1     -12.445  14.301  69.195  1.00  0.00    -0.212 OA 
BRANCH  12  13
HETATM   13  C   UNL     1     -11.745  14.992  68.227  1.00  0.00    -0.314 A  
HETATM   14  C   UNL     1     -10.469  16.924  67.492  1.00  0.00    -0.328 A  
HETATM   15  C   UNL     1     -11.123  16.218  68.496  1.00  0.00    -0.368 A  
HETATM   16  C   UNL     1     -10.409  16.402  66.205  1.00  0.00    -0.354 A  
HETATM   17  C   UNL     1     -10.957  15.149  65.914  1.00  0.00    -0.339 A  
HETATM   18  C   UNL     1     -10.848  14.633  64.614  1.00  0.00    -0.332 A  
HETATM   19  C   UNL     1     -11.335  13.367  64.299  1.00  0.00    -0.420 A  
HETATM   20  C   UNL     1     -11.938  12.602  65.290  1.00  0.00    -0.487 A  
HETATM   21  C   UNL     1     -12.082  13.115  66.588  1.00  0.00    -0.409 A  
HETATM   22  C   UNL     1     -11.611  14.405  66.934  1.00  0.00    -0.404 A  
ENDBRANCH  12  13
ENDBRANCH   6  12
ENDBRANCH   5   6
ENDBRANCH   4   5
ENDBRANCH   2   4
TORSDOF 6
ENDMDL
MODEL       22
REMARK 921   NORMALIZED FREE ENERGY PREDICTED BY IDOCK:   -5.74 KCAL/MOL
REMARK 922        TOTAL FREE ENERGY PREDICTED BY IDOCK:   -8.66 KCAL/MOL
REMARK 923 INTER-LIGAND FREE ENERGY PREDICTED BY IDOCK:   -7.67 KCAL/MOL
REMARK 924 INTRA-LIGAND FREE ENERGY PREDICTED BY IDOCK:   -0.98 KCAL/MOL
REMARK 927      BINDING AFFINITY PREDICTED BY RF-SCORE:    0.00 PKD
ROOT
HETATM    1  C   UNL     1     -11.662  15.552  72.203  1.00  0.00    -0.476 C  
HETATM    2  N   UNL     1     -11.007  15.200  70.944  1.00  0.00    -0.528 NA 
HETATM    3  H   UNL     1     -10.734  14.218  70.923  1.00  0.00     0.000 HD 
ENDROOT
BRANCH   2   4
HETATM    4  C   UNL     1     -11.852  15.552  69.797  1.00  0.00    -0.359 C  
BRANCH   4   5
HETATM    5  C   UNL     1     -11.425  14.869  68.487  1.00  0.00    -0.336 C  
BRANCH   5   6
HETATM    6  C   UNL     1     -11.919  13.430  68.262  1.00  0.00    -0.317 C  
BRANCH   6   7
HETATM    7  C   UNL     1     -11.839  13.012  66.805  1.00  0.00    -0.388 A  
HETATM    8  C   UNL     1     -12.078  12.948  64.340  1.00  0.00    -0.410 A  
HETATM    9  S   UNL     1     -12.562  14.001  65.594  1.00  0.00    -0.452 SA 
HETATM   10  C   UNL     1     -11.265  11.886  66.241  1.00  0.00    -0.392 A  
HETATM   11  C   UNL     1     -11.399  11.852  64.821  1.00  0.00    -0.344 A  
ENDBRANCH   6   7
BRANCH   6  12
HETATM   12  O   UNL     1     -11.075  12.505  68.999  1.00  0.00    -0.247 OA 
BRANCH  12  13
HETATM   13  C   UNL     1     -11.691  11.703  69.938  1.00  0.00    -0.337 A  
HETATM   14  C   UNL     1     -13.186  11.398  71.827  1.00  0.00    -0.472 A  
HETATM   15  C   UNL     1     -12.618  12.213  70.855  1.00  0.00    -0.340 A  
HETATM   16  C   UNL     1     -12.850  10.050  71.884  1.00  0.00    -0.524 A  
HETATM   17  C   UNL     1     -11.982   9.489  70.943  1.00  0.00    -0.372 A  
HETATM   18  C   UNL     1     -11.691   8.118  71.004  1.00  0.00    -0.295 A  
HETATM   19  C   UNL     1     -10.873   7.513  70.054  1.00  0.00    -0.260 A  
HETATM   20  C   UNL     1     -10.338   8.280  69.027  1.00  0.00    -0.233 A  
HETATM   21  C   UNL     1     -10.594   9.658  68.968  1.00  0.00    -0.237 A  
HETATM   22  C   UNL     1     -11.408  10.305  69.930  1.00  0.00    -0.354 A  
ENDBRANCH  12  13
ENDBRANCH   6  12
ENDBRANCH   5   6
ENDBRANCH   4   5
ENDBRANCH   2   4
TORSDOF 6
ENDMDL
MODEL       23
REMARK 921   NORMALIZED FREE ENERGY PREDICTED BY IDOCK:   -5.74 KCAL/MOL
REMARK 922        TOTAL FREE ENERGY PREDICTED BY IDOCK:   -8.65 KCAL/MOL
REMARK 923 INTER-LIGAND FREE ENERGY PREDICTED BY IDOCK:   -7.85 KCAL/MOL
REMARK 924 INTRA-LIGAND FREE ENERGY PREDICTED BY IDOCK:   -0.80 KCAL/MOL
REMARK 927      BINDING AFFINITY PREDICTED BY RF-SCORE:    0.00 PKD
ROOT
HETATM    1  C   UNL     1     -14.124  15.287  72.080  1.00  0.00    -0.560 C  
HETATM    2  N   UNL     1     -13.644  15.344  70.701  1.00  0.00    -0.826 NA 
HETATM    3  H   UNL     1     -13.687  16.291  70.325  1.00  0.00     0.000 HD 
ENDROOT
BRANCH   2   4
HETATM    4  C   UNL     1     -12.294  14.779  70.591  1.00  0.00    -0.337 C  
BRANCH   4   5
HETATM    5  C   UNL     1     -12.091  13.908  69.339  1.00  0.00    -0.384 C  
BRANCH   5   6
HETATM    6  C   UNL     1     -11.010  14.365  68.346  1.00  0.00    -0.248 C  
BRANCH   6   7
HETATM    7  C   UNL     1     -11.266  13.857  66.938  1.00  0.00    -0.312 A  
HETATM    8  C   UNL     1     -11.037  12.720  64.749  1.00  0.00    -0.302 A  
HETATM    9  S   UNL     1     -10.092  12.862  66.165  1.00  0.00    -0.278 SA 
HETATM   10  C   UNL     1     -12.343  14.088  66.100  1.00  0.00    -0.491 A  
HETATM   11  C   UNL     1     -12.213  13.429  64.841  1.00  0.00    -0.450 A  
ENDBRANCH   6   7
BRANCH   6  12
HETATM   12  O   UNL     1     -11.007  15.816  68.263  1.00  0.00    -0.295 OA 
BRANCH  12  13
HETATM   13  C   UNL     1      -9.785  16.450  68.363  1.00  0.00    -0.229 A  
HETATM   14  C   UNL     1      -7.435  16.460  68.978  1.00  0.00    -0.227 A  
HETATM   15  C   UNL     1      -8.644  15.787  68.833  1.00  0.00    -0.220 A  
HETATM   16  C   UNL     1      -7.345  17.804  68.634  1.00  0.00    -0.269 A  
HETATM   17  C   UNL     1      -8.443  18.480  68.096  1.00  0.00    -0.317 A  
HETATM   18  C   UNL     1      -8.310  19.826  67.723  1.00  0.00    -0.344 A  
HETATM   19  C   UNL     1      -9.366  20.519  67.136  1.00  0.00    -0.513 A  
HETATM   20  C   UNL     1     -10.571  19.864  66.914  1.00  0.00    -0.534 A  
HETATM   21  C   UNL     1     -10.731  18.527  67.308  1.00  0.00    -0.417 A  
HETATM   22  C   UNL     1      -9.681  17.802  67.922  1.00  0.00    -0.294 A  
ENDBRANCH  12  13
ENDBRANCH   6  12
ENDBRANCH   5   6
ENDBRANCH   4   5
ENDBRANCH   2   4
TORSDOF 6
ENDMDL
MODEL       24
REMARK 921   NORMALIZED FREE ENERGY PREDICTED BY IDOCK:   -5.74 KCAL/MOL
REMARK 922        TOTAL FREE ENERGY PREDICTED BY IDOCK:   -8.65 KCAL/MOL
REMARK 923 INTER-LIGAND FREE ENERGY PREDICTED BY IDOCK:   -7.74 KCAL/MOL
REMARK 924 INTRA-LIGAND FREE ENERGY PREDICTED BY IDOCK:   -0.91 KCAL/MOL
REMARK 927      BINDING AFFINITY PREDICTED BY RF-SCORE:    0.00 PKD
ROOT
HETATM    1  C   UNL     1     -11.902  15.586  72.518  1.00  0.00    -0.470 C  
HETATM    2  N   UNL     1     -11.150  15.042  71.388  1.00  0.00    -0.574 NA 
HETATM    3  H   UNL     1     -11.138  14.022  71.400  1.00  0.00     0.000 HD 
ENDROOT
BRANCH   2   4
HETATM    4  C   UNL     1     -11.665  15.562  70.116  1.00  0.00    -0.347 C  
BRANCH   4   5
HETATM    5  C   UNL     1     -10.669  16.470  69.375  1.00  0.00    -0.330 C  
BRANCH   5   6
HETATM    6  C   UNL     1     -10.907  16.675  67.869  1.00  0.00    -0.321 C  
BRANCH   6   7
HETATM    7  C   UNL     1     -10.507  18.063  67.404  1.00  0.00    -0.387 A  
HETATM    8  C   UNL     1      -9.746  20.420  67.357  1.00  0.00    -0.457 A  
HETATM    9  S   UNL     1     -10.008  19.238  68.561  1.00  0.00    -0.446 SA 
HETATM   10  C   UNL     1     -10.491  18.595  66.126  1.00  0.00    -0.473 A  
HETATM   11  C   UNL     1     -10.049  19.951  66.099  1.00  0.00    -0.611 A  
ENDBRANCH   6   7
BRANCH   6  12
HETATM   12  O   UNL     1     -10.089  15.740  67.115  1.00  0.00    -0.243 OA 
BRANCH  12  13
HETATM   13  C   UNL     1     -10.742  14.699  66.485  1.00  0.00    -0.312 A  
HETATM   14  C   UNL     1     -12.194  13.844  64.737  1.00  0.00    -0.441 A  
HETATM   15  C   UNL     1     -11.501  14.896  65.324  1.00  0.00    -0.336 A  
HETATM   16  C   UNL     1     -12.122  12.571  65.290  1.00  0.00    -0.500 A  
HETATM   17  C   UNL     1     -11.318  12.321  66.407  1.00  0.00    -0.405 A  
HETATM   18  C   UNL     1     -11.237  11.018  66.920  1.00  0.00    -0.210 A  
HETATM   19  C   UNL     1     -10.407  10.720  67.998  1.00  0.00    -0.211 A  
HETATM   20  C   UNL     1      -9.647  11.731  68.574  1.00  0.00    -0.173 A  
HETATM   21  C   UNL     1      -9.740  13.045  68.092  1.00  0.00    -0.228 A  
HETATM   22  C   UNL     1     -10.587  13.381  67.008  1.00  0.00    -0.264 A  
ENDBRANCH  12  13
ENDBRANCH   6  12
ENDBRANCH   5   6
ENDBRANCH   4   5
ENDBRANCH   2   4
TORSDOF 6
ENDMDL
MODEL       25
REMARK 921   NORMALIZED FREE ENERGY PREDICTED BY IDOCK:   -5.73 KCAL/MOL
REMARK 922        TOTAL FREE ENERGY PREDICTED BY IDOCK:   -8.64 KCAL/MOL
REMARK 923 INTER-LIGAND FREE ENERGY PREDICTED BY IDOCK:   -7.83 KCAL/MOL
REMARK 924 INTRA-LIGAND FREE ENERGY PREDICTED BY IDOCK:   -0.80 KCAL/MOL
REMARK 927      BINDING AFFINITY PREDICTED BY RF-SCORE:    0.00 PKD
ROOT
HETATM    1  C   UNL     1      -9.910   8.524  66.803  1.00  0.00    -0.257 C  
HETATM    2  N   UNL     1     -10.800   8.733  67.944  1.00  0.00    -0.488 NA 
HETATM    3  H   UNL     1     -10.708   7.988  68.635  1.00  0.00     0.000 HD 
ENDROOT
BRANCH   2   4
HETATM    4  C   UNL     1     -10.586  10.055  68.541  1.00  0.00    -0.215 C  
BRANCH   4   5
HETATM    5  C   UNL     1     -11.760  11.026  68.326  1.00  0.00    -0.301 C  
BRANCH   5   6
HETATM    6  C   UNL     1     -11.412  12.429  67.801  1.00  0.00    -0.324 C  
BRANCH   6   7
HETATM    7  C   UNL     1     -11.448  12.505  66.285  1.00  0.00    -0.370 A  
HETATM    8  C   UNL     1     -10.832  12.375  63.889  1.00  0.00    -0.420 A  
HETATM    9  S   UNL     1     -10.061  12.038  65.376  1.00  0.00    -0.257 SA 
HETATM   10  C   UNL     1     -12.463  12.934  65.448  1.00  0.00    -0.511 A  
HETATM   11  C   UNL     1     -12.109  12.854  64.068  1.00  0.00    -0.526 A  
ENDBRANCH   6   7
BRANCH   6  12
HETATM   12  O   UNL     1     -12.394  13.385  68.282  1.00  0.00    -0.187 OA 
BRANCH  12  13
HETATM   13  C   UNL     1     -11.924  14.457  69.015  1.00  0.00    -0.307 A  
HETATM   14  C   UNL     1     -10.661  16.523  69.195  1.00  0.00    -0.335 A  
HETATM   15  C   UNL     1     -11.172  15.482  68.428  1.00  0.00    -0.341 A  
HETATM   16  C   UNL     1     -10.915  16.566  70.561  1.00  0.00    -0.072 A  
HETATM   17  C   UNL     1     -11.719  15.598  71.171  1.00  0.00    -0.461 A  
HETATM   18  C   UNL     1     -11.987  15.689  72.545  1.00  0.00    -0.567 A  
HETATM   19  C   UNL     1     -12.826  14.775  73.176  1.00  0.00    -0.614 A  
HETATM   20  C   UNL     1     -13.408  13.757  72.432  1.00  0.00    -0.635 A  
HETATM   21  C   UNL     1     -13.128  13.634  71.064  1.00  0.00    -0.250 A  
HETATM   22  C   UNL     1     -12.266  14.538  70.397  1.00  0.00    -0.394 A  
ENDBRANCH  12  13
ENDBRANCH   6  12
ENDBRANCH   5   6
ENDBRANCH   4   5
ENDBRANCH   2   4
TORSDOF 6
ENDMDL
MODEL       26
REMARK 921   NORMALIZED FREE ENERGY PREDICTED BY IDOCK:   -5.72 KCAL/MOL
REMARK 922        TOTAL FREE ENERGY PREDICTED BY IDOCK:   -8.63 KCAL/MOL
REMARK 923 INTER-LIGAND FREE ENERGY PREDICTED BY IDOCK:   -7.83 KCAL/MOL
REMARK 924 INTRA-LIGAND FREE ENERGY PREDICTED BY IDOCK:   -0.80 KCAL/MOL
REMARK 927      BINDING AFFINITY PREDICTED BY RF-SCORE:    0.00 PKD
ROOT
HETATM    1  C   UNL     1     -11.829  12.542  63.532  1.00  0.00    -0.534 C  
HETATM    2  N   UNL     1     -12.450  13.851  63.337  1.00  0.00    -1.110 NA 
HETATM    3  H   UNL     1     -13.466  13.780  63.275  1.00  0.00     0.000 HD 
ENDROOT
BRANCH   2   4
HETATM    4  C   UNL     1     -12.036  14.789  64.386  1.00  0.00    -0.440 C  
BRANCH   4   5
HETATM    5  C   UNL     1     -12.626  14.465  65.769  1.00  0.00    -0.314 C  
BRANCH   5   6
HETATM    6  C   UNL     1     -11.674  14.579  66.972  1.00  0.00    -0.393 C  
BRANCH   6   7
HETATM    7  C   UNL     1     -11.632  13.306  67.799  1.00  0.00    -0.342 A  
HETATM    8  C   UNL     1     -11.619  11.707  69.691  1.00  0.00    -0.330 A  
HETATM    9  S   UNL     1     -11.709  13.404  69.517  1.00  0.00    -0.320 SA 
HETATM   10  C   UNL     1     -11.513  11.991  67.386  1.00  0.00    -0.406 A  
HETATM   11  C   UNL     1     -11.510  11.070  68.476  1.00  0.00    -0.379 A  
ENDBRANCH   6   7
BRANCH   6  12
HETATM   12  O   UNL     1     -10.319  14.805  66.500  1.00  0.00    -0.274 OA 
BRANCH  12  13
HETATM   13  C   UNL     1      -9.527  15.656  67.245  1.00  0.00    -0.216 A  
HETATM   14  C   UNL     1      -7.826  16.051  68.933  1.00  0.00    -0.202 A  
HETATM   15  C   UNL     1      -8.575  15.176  68.153  1.00  0.00    -0.158 A  
HETATM   16  C   UNL     1      -8.004  17.423  68.800  1.00  0.00    -0.244 A  
HETATM   17  C   UNL     1      -8.894  17.941  67.854  1.00  0.00    -0.260 A  
HETATM   18  C   UNL     1      -9.024  19.331  67.718  1.00  0.00    -0.354 A  
HETATM   19  C   UNL     1      -9.861  19.885  66.753  1.00  0.00    -0.550 A  
HETATM   20  C   UNL     1     -10.578  19.045  65.909  1.00  0.00    -0.466 A  
HETATM   21  C   UNL     1     -10.482  17.653  66.052  1.00  0.00    -0.278 A  
HETATM   22  C   UNL     1      -9.653  17.061  67.035  1.00  0.00    -0.257 A  
ENDBRANCH  12  13
ENDBRANCH   6  12
ENDBRANCH   5   6
ENDBRANCH   4   5
ENDBRANCH   2   4
TORSDOF 6
ENDMDL
MODEL       27
REMARK 921   NORMALIZED FREE ENERGY PREDICTED BY IDOCK:   -5.72 KCAL/MOL
REMARK 922        TOTAL FREE ENERGY PREDICTED BY IDOCK:   -8.62 KCAL/MOL
REMARK 923 INTER-LIGAND FREE ENERGY PREDICTED BY IDOCK:   -7.98 KCAL/MOL
REMARK 924 INTRA-LIGAND FREE ENERGY PREDICTED BY IDOCK:   -0.64 KCAL/MOL
REMARK 927      BINDING AFFINITY PREDICTED BY RF-SCORE:    0.00 PKD
ROOT
HETATM    1  C   UNL     1      -6.818  15.485  67.336  1.00  0.00    -0.189 C  
HETATM    2  N   UNL     1      -7.494  14.189  67.321  1.00  0.00    -0.323 NA 
HETATM    3  H   UNL     1      -6.896  13.447  67.684  1.00  0.00     0.000 HD 
ENDROOT
BRANCH   2   4
HETATM    4  C   UNL     1      -8.771  14.256  68.042  1.00  0.00    -0.177 C  
BRANCH   4   5
HETATM    5  C   UNL     1      -8.736  15.181  69.270  1.00  0.00    -0.207 C  
BRANCH   5   6
HETATM    6  C   UNL     1      -9.981  16.049  69.519  1.00  0.00    -0.255 C  
BRANCH   6   7
HETATM    7  C   UNL     1     -10.022  17.272  68.620  1.00  0.00    -0.327 A  
HETATM    8  C   UNL     1     -10.158  18.758  66.643  1.00  0.00    -0.378 A  
HETATM    9  S   UNL     1     -10.184  17.073  66.917  1.00  0.00    -0.301 SA 
HETATM   10  C   UNL     1      -9.925  18.612  68.951  1.00  0.00    -0.399 A  
HETATM   11  C   UNL     1     -10.007  19.468  67.812  1.00  0.00    -0.494 A  
ENDBRANCH   6   7
BRANCH   6  12
HETATM   12  O   UNL     1     -11.178  15.281  69.218  1.00  0.00    -0.250 OA 
BRANCH  12  13
HETATM   13  C   UNL     1     -11.961  14.892  70.287  1.00  0.00    -0.312 A  
HETATM   14  C   UNL     1     -13.307  15.410  72.240  1.00  0.00    -0.548 A  
HETATM   15  C   UNL     1     -12.567  15.824  71.138  1.00  0.00    -0.487 A  
HETATM   16  C   UNL     1     -13.469  14.053  72.496  1.00  0.00    -0.661 A  
HETATM   17  C   UNL     1     -12.938  13.093  71.630  1.00  0.00    -0.429 A  
HETATM   18  C   UNL     1     -13.150  11.732  71.895  1.00  0.00    -0.482 A  
HETATM   19  C   UNL     1     -12.681  10.749  71.028  1.00  0.00    -0.513 A  
HETATM   20  C   UNL     1     -11.993  11.122  69.881  1.00  0.00    -0.439 A  
HETATM   21  C   UNL     1     -11.746  12.478  69.615  1.00  0.00    -0.372 A  
HETATM   22  C   UNL     1     -12.196  13.499  70.487  1.00  0.00    -0.433 A  
ENDBRANCH  12  13
ENDBRANCH   6  12
ENDBRANCH   5   6
ENDBRANCH   4   5
ENDBRANCH   2   4
TORSDOF 6
ENDMDL
MODEL       28
REMARK 921   NORMALIZED FREE ENERGY PREDICTED BY IDOCK:   -5.71 KCAL/MOL
REMARK 922        TOTAL FREE ENERGY PREDICTED BY IDOCK:   -8.60 KCAL/MOL
REMARK 923 INTER-LIGAND FREE ENERGY PREDICTED BY IDOCK:   -7.90 KCAL/MOL
REMARK 924 INTRA-LIGAND FREE ENERGY PREDICTED BY IDOCK:   -0.70 KCAL/MOL
REMARK 927      BINDING AFFINITY PREDICTED BY RF-SCORE:    0.00 PKD
ROOT
HETATM    1  C   UNL     1     -12.619  11.986  63.396  1.00  0.00    -0.469 C  
HETATM    2  N   UNL     1     -13.015  12.506  64.703  1.00  0.00    -0.844 NA 
HETATM    3  H   UNL     1     -12.991  11.780  65.420  1.00  0.00     0.000 HD 
ENDROOT
BRANCH   2   4
HETATM    4  C   UNL     1     -12.196  13.664  65.078  1.00  0.00    -0.421 C  
BRANCH   4   5
HETATM    5  C   UNL     1     -12.283  14.022  66.571  1.00  0.00    -0.485 C  
BRANCH   5   6
HETATM    6  C   UNL     1     -10.964  14.383  67.275  1.00  0.00    -0.297 C  
BRANCH   6   7
HETATM    7  C   UNL     1     -10.728  15.882  67.330  1.00  0.00    -0.313 A  
HETATM    8  C   UNL     1     -10.162  18.216  66.726  1.00  0.00    -0.372 A  
HETATM    9  S   UNL     1     -10.173  16.708  65.925  1.00  0.00    -0.306 SA 
HETATM   10  C   UNL     1     -10.871  16.758  68.391  1.00  0.00    -0.355 A  
HETATM   11  C   UNL     1     -10.549  18.104  68.042  1.00  0.00    -0.359 A  
ENDBRANCH   6   7
BRANCH   6  12
HETATM   12  O   UNL     1     -11.008  13.925  68.654  1.00  0.00    -0.244 OA 
BRANCH  12  13
HETATM   13  C   UNL     1     -10.916  12.564  68.869  1.00  0.00    -0.227 A  
HETATM   14  C   UNL     1     -10.018  10.377  68.315  1.00  0.00    -0.168 A  
HETATM   15  C   UNL     1     -10.054  11.753  68.120  1.00  0.00    -0.196 A  
HETATM   16  C   UNL     1     -10.829   9.793  69.281  1.00  0.00    -0.240 A  
HETATM   17  C   UNL     1     -11.650  10.578  70.096  1.00  0.00    -0.408 A  
HETATM   18  C   UNL     1     -12.430   9.962  71.087  1.00  0.00    -0.464 A  
HETATM   19  C   UNL     1     -13.220  10.714  71.952  1.00  0.00    -0.528 A  
HETATM   20  C   UNL     1     -13.235  12.098  71.832  1.00  0.00    -0.474 A  
HETATM   21  C   UNL     1     -12.485  12.728  70.828  1.00  0.00    -0.357 A  
HETATM   22  C   UNL     1     -11.685  11.988  69.923  1.00  0.00    -0.374 A  
ENDBRANCH  12  13
ENDBRANCH   6  12
ENDBRANCH   5   6
ENDBRANCH   4   5
ENDBRANCH   2   4
TORSDOF 6
ENDMDL
MODEL       29
REMARK 921   NORMALIZED FREE ENERGY PREDICTED BY IDOCK:   -5.63 KCAL/MOL
REMARK 922        TOTAL FREE ENERGY PREDICTED BY IDOCK:   -8.50 KCAL/MOL
REMARK 923 INTER-LIGAND FREE ENERGY PREDICTED BY IDOCK:   -7.39 KCAL/MOL
REMARK 924 INTRA-LIGAND FREE ENERGY PREDICTED BY IDOCK:   -1.10 KCAL/MOL
REMARK 927      BINDING AFFINITY PREDICTED BY RF-SCORE:    0.00 PKD
ROOT
HETATM    1  C   UNL     1     -10.907  16.583  68.527  1.00  0.00    -0.349 C  
HETATM    2  N   UNL     1     -10.003  15.601  67.931  1.00  0.00    -0.222 NA 
HETATM    3  H   UNL     1      -9.826  14.820  68.563  1.00  0.00     0.000 HD 
ENDROOT
BRANCH   2   4
HETATM    4  C   UNL     1     -10.509  15.143  66.632  1.00  0.00    -0.287 C  
BRANCH   4   5
HETATM    5  C   UNL     1     -11.856  14.406  66.722  1.00  0.00    -0.431 C  
BRANCH   5   6
HETATM    6  C   UNL     1     -11.820  12.955  67.232  1.00  0.00    -0.356 C  
BRANCH   6   7
HETATM    7  C   UNL     1     -11.080  12.028  66.285  1.00  0.00    -0.317 A  
HETATM    8  C   UNL     1     -10.273  10.868  64.250  1.00  0.00    -0.364 A  
HETATM    9  S   UNL     1     -11.401  12.104  64.595  1.00  0.00    -0.326 SA 
HETATM   10  C   UNL     1     -10.142  11.048  66.564  1.00  0.00    -0.270 A  
HETATM   11  C   UNL     1      -9.675  10.384  65.391  1.00  0.00    -0.325 A  
ENDBRANCH   6   7
BRANCH   6  12
HETATM   12  O   UNL     1     -11.106  12.902  68.497  1.00  0.00    -0.240 OA 
BRANCH  12  13
HETATM   13  C   UNL     1     -11.868  12.851  69.647  1.00  0.00    -0.320 A  
HETATM   14  C   UNL     1     -13.215  13.925  71.359  1.00  0.00    -0.392 A  
HETATM   15  C   UNL     1     -12.498  13.987  70.170  1.00  0.00    -0.380 A  
HETATM   16  C   UNL     1     -13.332  12.715  72.035  1.00  0.00    -0.555 A  
HETATM   17  C   UNL     1     -12.777  11.545  71.508  1.00  0.00    -0.439 A  
HETATM   18  C   UNL     1     -12.943  10.333  72.195  1.00  0.00    -0.410 A  
HETATM   19  C   UNL     1     -12.450   9.138  71.676  1.00  0.00    -0.434 A  
HETATM   20  C   UNL     1     -11.784   9.148  70.457  1.00  0.00    -0.193 A  
HETATM   21  C   UNL     1     -11.582  10.355  69.772  1.00  0.00    -0.339 A  
HETATM   22  C   UNL     1     -12.057  11.588  70.283  1.00  0.00    -0.444 A  
ENDBRANCH  12  13
ENDBRANCH   6  12
ENDBRANCH   5   6
ENDBRANCH   4   5
ENDBRANCH   2   4
TORSDOF 6
ENDMDL
MODEL       30
REMARK 921   NORMALIZED FREE ENERGY PREDICTED BY IDOCK:   -5.61 KCAL/MOL
REMARK 922        TOTAL FREE ENERGY PREDICTED BY IDOCK:   -8.47 KCAL/MOL
REMARK 923 INTER-LIGAND FREE ENERGY PREDICTED BY IDOCK:   -7.84 KCAL/MOL
REMARK 924 INTRA-LIGAND FREE ENERGY PREDICTED BY IDOCK:   -0.63 KCAL/MOL
REMARK 927      BINDING AFFINITY PREDICTED BY RF-SCORE:    0.00 PKD
ROOT
HETATM    1  C   UNL     1     -11.999   6.877  71.529  1.00  0.00    -0.344 C  
HETATM    2  N   UNL     1     -12.146   7.988  70.590  1.00  0.00    -0.495 NA 
HETATM    3  H   UNL     1     -12.589   8.795  71.028  1.00  0.00     0.000 HD 
ENDROOT
BRANCH   2   4
HETATM    4  C   UNL     1     -10.855   8.340  69.989  1.00  0.00    -0.232 C  
BRANCH   4   5
HETATM    5  C   UNL     1     -10.508   9.834  70.108  1.00  0.00    -0.338 C  
BRANCH   5   6
HETATM    6  C   UNL     1     -11.440  10.822  69.386  1.00  0.00    -0.295 C  
BRANCH   6   7
HETATM    7  C   UNL     1     -12.170  11.739  70.352  1.00  0.00    -0.330 A  
HETATM    8  C   UNL     1     -13.069  13.742  71.498  1.00  0.00    -0.357 A  
HETATM    9  S   UNL     1     -12.070  13.446  70.145  1.00  0.00    -0.303 SA 
HETATM   10  C   UNL     1     -12.937  11.422  71.459  1.00  0.00    -0.505 A  
HETATM   11  C   UNL     1     -13.459  12.576  72.116  1.00  0.00    -0.523 A  
ENDBRANCH   6   7
BRANCH   6  12
HETATM   12  O   UNL     1     -10.657  11.684  68.517  1.00  0.00    -0.200 OA 
BRANCH  12  13
HETATM   13  C   UNL     1     -10.537  11.303  67.196  1.00  0.00    -0.235 A  
HETATM   14  C   UNL     1      -9.701   9.801  65.480  1.00  0.00    -0.382 A  
HETATM   15  C   UNL     1      -9.857  10.137  66.820  1.00  0.00    -0.247 A  
HETATM   16  C   UNL     1     -10.243  10.617  64.493  1.00  0.00    -0.399 A  
HETATM   17  C   UNL     1     -10.988  11.751  64.831  1.00  0.00    -0.358 A  
HETATM   18  C   UNL     1     -11.553  12.534  63.814  1.00  0.00    -0.552 A  
HETATM   19  C   UNL     1     -12.345  13.639  64.112  1.00  0.00    -0.385 A  
HETATM   20  C   UNL     1     -12.579  13.972  65.441  1.00  0.00    -0.529 A  
HETATM   21  C   UNL     1     -11.997  13.218  66.470  1.00  0.00    -0.448 A  
HETATM   22  C   UNL     1     -11.174  12.098  66.198  1.00  0.00    -0.386 A  
ENDBRANCH  12  13
ENDBRANCH   6  12
ENDBRANCH   5   6
ENDBRANCH   4   5
ENDBRANCH   2   4
TORSDOF 6
ENDMDL
MODEL       31
REMARK 921   NORMALIZED FREE ENERGY PREDICTED BY IDOCK:   -5.57 KCAL/MOL
REMARK 922        TOTAL FREE ENERGY PREDICTED BY IDOCK:   -8.42 KCAL/MOL
REMARK 923 INTER-LIGAND FREE ENERGY PREDICTED BY IDOCK:   -7.54 KCAL/MOL
REMARK 924 INTRA-LIGAND FREE ENERGY PREDICTED BY IDOCK:   -0.88 KCAL/MOL
REMARK 927      BINDING AFFINITY PREDICTED BY RF-SCORE:    0.00 PKD
ROOT
HETATM    1  C   UNL     1     -10.845  11.552  68.728  1.00  0.00    -0.216 C  
HETATM    2  N   UNL     1     -10.809  12.971  69.074  1.00  0.00    -0.398 NA 
HETATM    3  H   UNL     1      -9.875  13.364  68.956  1.00  0.00     0.000 HD 
ENDROOT
BRANCH   2   4
HETATM    4  C   UNL     1     -11.813  13.723  68.312  1.00  0.00    -0.378 C  
BRANCH   4   5
HETATM    5  C   UNL     1     -11.211  14.812  67.408  1.00  0.00    -0.346 C  
BRANCH   5   6
HETATM    6  C   UNL     1     -10.156  14.358  66.385  1.00  0.00    -0.286 C  
BRANCH   6   7
HETATM    7  C   UNL     1     -10.744  13.472  65.302  1.00  0.00    -0.323 A  
HETATM    8  C   UNL     1     -12.152  12.592  63.464  1.00  0.00    -0.562 A  
HETATM    9  S   UNL     1     -12.100  14.023  64.395  1.00  0.00    -0.432 SA 
HETATM   10  C   UNL     1     -10.369  12.201  64.902  1.00  0.00    -0.321 A  
HETATM   11  C   UNL     1     -11.177  11.696  63.840  1.00  0.00    -0.479 A  
ENDBRANCH   6   7
BRANCH   6  12
HETATM   12  O   UNL     1      -9.604  15.519  65.708  1.00  0.00    -0.337 OA 
BRANCH  12  13
HETATM   13  C   UNL     1      -8.757  16.329  66.438  1.00  0.00    -0.319 A  
HETATM   14  C   UNL     1      -6.707  16.687  67.690  1.00  0.00    -0.161 A  
HETATM   15  C   UNL     1      -7.520  15.872  66.911  1.00  0.00    -0.233 A  
HETATM   16  C   UNL     1      -7.110  17.983  67.991  1.00  0.00    -0.220 A  
HETATM   17  C   UNL     1      -8.305  18.499  67.479  1.00  0.00    -0.267 A  
HETATM   18  C   UNL     1      -8.666  19.822  67.770  1.00  0.00    -0.380 A  
HETATM   19  C   UNL     1      -9.821  20.387  67.236  1.00  0.00    -0.597 A  
HETATM   20  C   UNL     1     -10.628  19.626  66.399  1.00  0.00    -0.592 A  
HETATM   21  C   UNL     1     -10.298  18.292  66.122  1.00  0.00    -0.414 A  
HETATM   22  C   UNL     1      -9.138  17.685  66.664  1.00  0.00    -0.280 A  
ENDBRANCH  12  13
ENDBRANCH   6  12
ENDBRANCH   5   6
ENDBRANCH   4   5
ENDBRANCH   2   4
TORSDOF 6
ENDMDL
MODEL       32
REMARK 921   NORMALIZED FREE ENERGY PREDICTED BY IDOCK:   -5.57 KCAL/MOL
REMARK 922        TOTAL FREE ENERGY PREDICTED BY IDOCK:   -8.42 KCAL/MOL
REMARK 923 INTER-LIGAND FREE ENERGY PREDICTED BY IDOCK:   -7.46 KCAL/MOL
REMARK 924 INTRA-LIGAND FREE ENERGY PREDICTED BY IDOCK:   -0.96 KCAL/MOL
REMARK 927      BINDING AFFINITY PREDICTED BY RF-SCORE:    0.00 PKD
ROOT
HETATM    1  C   UNL     1      -9.313   9.116  70.829  1.00  0.00    -0.264 C  
HETATM    2  N   UNL     1      -9.794  10.253  70.046  1.00  0.00    -0.420 NA 
HETATM    3  H   UNL     1      -9.270  10.361  69.178  1.00  0.00     0.000 HD 
ENDROOT
BRANCH   2   4
HETATM    4  C   UNL     1     -11.236  10.146  69.798  1.00  0.00    -0.272 C  
BRANCH   4   5
HETATM    5  C   UNL     1     -12.047  11.321  70.370  1.00  0.00    -0.474 C  
BRANCH   5   6
HETATM    6  C   UNL     1     -12.160  12.579  69.490  1.00  0.00    -0.187 C  
BRANCH   6   7
HETATM    7  C   UNL     1     -12.077  13.860  70.300  1.00  0.00    -0.353 A  
HETATM    8  C   UNL     1     -12.454  15.613  72.009  1.00  0.00    -0.426 A  
HETATM    9  S   UNL     1     -13.092  14.065  71.676  1.00  0.00    -0.378 SA 
HETATM   10  C   UNL     1     -11.289  14.980  70.100  1.00  0.00    -0.303 A  
HETATM   11  C   UNL     1     -11.503  15.988  71.088  1.00  0.00    -0.470 A  
ENDBRANCH   6   7
BRANCH   6  12
HETATM   12  O   UNL     1     -11.051  12.616  68.552  1.00  0.00    -0.237 OA 
BRANCH  12  13
HETATM   13  C   UNL     1     -11.363  12.761  67.215  1.00  0.00    -0.314 A  
HETATM   14  C   UNL     1     -12.572  13.859  65.418  1.00  0.00    -0.538 A  
HETATM   15  C   UNL     1     -12.229  13.764  66.762  1.00  0.00    -0.440 A  
HETATM   16  C   UNL     1     -12.036  12.962  64.501  1.00  0.00    -0.473 A  
HETATM   17  C   UNL     1     -11.114  11.991  64.904  1.00  0.00    -0.368 A  
HETATM   18  C   UNL     1     -10.562  11.125  63.949  1.00  0.00    -0.431 A  
HETATM   19  C   UNL     1      -9.603  10.180  64.304  1.00  0.00    -0.354 A  
HETATM   20  C   UNL     1      -9.184  10.097  65.625  1.00  0.00    -0.232 A  
HETATM   21  C   UNL     1      -9.747  10.935  66.599  1.00  0.00    -0.222 A  
HETATM   22  C   UNL     1     -10.737  11.894  66.271  1.00  0.00    -0.309 A  
ENDBRANCH  12  13
ENDBRANCH   6  12
ENDBRANCH   5   6
ENDBRANCH   4   5
ENDBRANCH   2   4
TORSDOF 6
ENDMDL
MODEL       33
REMARK 921   NORMALIZED FREE ENERGY PREDICTED BY IDOCK:   -5.57 KCAL/MOL
REMARK 922        TOTAL FREE ENERGY PREDICTED BY IDOCK:   -8.42 KCAL/MOL
REMARK 923 INTER-LIGAND FREE ENERGY PREDICTED BY IDOCK:   -7.43 KCAL/MOL
REMARK 924 INTRA-LIGAND FREE ENERGY PREDICTED BY IDOCK:   -0.99 KCAL/MOL
REMARK 927      BINDING AFFINITY PREDICTED BY RF-SCORE:    0.00 PKD
ROOT
HETATM    1  C   UNL     1     -14.290   8.345  71.925  1.00  0.00    -0.473 C  
HETATM    2  N   UNL     1     -12.959   8.457  72.518  1.00  0.00    -0.597 NA 
HETATM    3  H   UNL     1     -12.891   7.940  73.394  1.00  0.00     0.000 HD 
ENDROOT
BRANCH   2   4
HETATM    4  C   UNL     1     -11.924   8.043  71.564  1.00  0.00    -0.297 C  
BRANCH   4   5
HETATM    5  C   UNL     1     -10.736   9.017  71.483  1.00  0.00    -0.421 C  
BRANCH   5   6
HETATM    6  C   UNL     1     -10.727  10.002  70.301  1.00  0.00    -0.309 C  
BRANCH   6   7
HETATM    7  C   UNL     1     -10.267   9.350  69.009  1.00  0.00    -0.205 A  
HETATM    8  C   UNL     1      -9.017   8.007  67.346  1.00  0.00    -0.134 A  
HETATM    9  S   UNL     1      -8.893   8.311  69.021  1.00  0.00    -0.144 SA 
HETATM   10  C   UNL     1     -10.781   9.470  67.730  1.00  0.00    -0.302 A  
HETATM   11  C   UNL     1     -10.063   8.693  66.773  1.00  0.00    -0.366 A  
ENDBRANCH   6   7
BRANCH   6  12
HETATM   12  O   UNL     1     -12.076  10.483  70.058  1.00  0.00    -0.287 OA 
BRANCH  12  13
HETATM   13  C   UNL     1     -12.409  11.715  70.586  1.00  0.00    -0.344 A  
HETATM   14  C   UNL     1     -13.412  13.088  72.320  1.00  0.00    -0.645 A  
HETATM   15  C   UNL     1     -13.036  11.841  71.832  1.00  0.00    -0.482 A  
HETATM   16  C   UNL     1     -13.146  14.232  71.576  1.00  0.00    -0.413 A  
HETATM   17  C   UNL     1     -12.459  14.152  70.361  1.00  0.00    -0.424 A  
HETATM   18  C   UNL     1     -12.173  15.328  69.652  1.00  0.00    -0.304 A  
HETATM   19  C   UNL     1     -11.446  15.294  68.465  1.00  0.00    -0.355 A  
HETATM   20  C   UNL     1     -10.995  14.074  67.977  1.00  0.00    -0.266 A  
HETATM   21  C   UNL     1     -11.298  12.886  68.657  1.00  0.00    -0.327 A  
HETATM   22  C   UNL     1     -12.050  12.887  69.858  1.00  0.00    -0.335 A  
ENDBRANCH  12  13
ENDBRANCH   6  12
ENDBRANCH   5   6
ENDBRANCH   4   5
ENDBRANCH   2   4
TORSDOF 6
ENDMDL
MODEL       34
REMARK 921   NORMALIZED FREE ENERGY PREDICTED BY IDOCK:   -5.52 KCAL/MOL
REMARK 922        TOTAL FREE ENERGY PREDICTED BY IDOCK:   -8.35 KCAL/MOL
REMARK 923 INTER-LIGAND FREE ENERGY PREDICTED BY IDOCK:   -7.23 KCAL/MOL
REMARK 924 INTRA-LIGAND FREE ENERGY PREDICTED BY IDOCK:   -1.12 KCAL/MOL
REMARK 927      BINDING AFFINITY PREDICTED BY RF-SCORE:    0.00 PKD
ROOT
HETATM    1  C   UNL     1     -12.107  14.783  71.592  1.00  0.00    -0.350 C  
HETATM    2  N   UNL     1     -11.332  14.241  70.477  1.00  0.00    -0.500 NA 
HETATM    3  H   UNL     1     -10.779  13.433  70.761  1.00  0.00     0.000 HD 
ENDROOT
BRANCH   2   4
HETATM    4  C   UNL     1     -12.202  13.927  69.338  1.00  0.00    -0.292 C  
BRANCH   4   5
HETATM    5  C   UNL     1     -11.513  13.083  68.252  1.00  0.00    -0.347 C  
BRANCH   5   6
HETATM    6  C   UNL     1     -11.567  11.556  68.422  1.00  0.00    -0.308 C  
BRANCH   6   7
HETATM    7  C   UNL     1     -10.898  10.821  67.275  1.00  0.00    -0.288 A  
HETATM    8  C   UNL     1      -9.992  10.227  65.048  1.00  0.00    -0.323 A  
HETATM    9  S   UNL     1     -10.822  11.559  65.721  1.00  0.00    -0.230 SA 
HETATM   10  C   UNL     1     -10.317   9.565  67.252  1.00  0.00    -0.319 A  
HETATM   11  C   UNL     1      -9.791   9.225  65.970  1.00  0.00    -0.363 A  
ENDBRANCH   6   7
BRANCH   6  12
HETATM   12  O   UNL     1     -10.848  11.175  69.627  1.00  0.00    -0.224 OA 
BRANCH  12  13
HETATM   13  C   UNL     1     -11.514  10.370  70.529  1.00  0.00    -0.345 A  
HETATM   14  C   UNL     1     -13.533   9.704  71.703  1.00  0.00    -0.455 A  
HETATM   15  C   UNL     1     -12.892  10.488  70.750  1.00  0.00    -0.454 A  
HETATM   16  C   UNL     1     -12.807   8.773  72.437  1.00  0.00    -0.434 A  
HETATM   17  C   UNL     1     -11.444   8.577  72.195  1.00  0.00    -0.446 A  
HETATM   18  C   UNL     1     -10.746   7.604  72.926  1.00  0.00    -0.428 A  
HETATM   19  C   UNL     1      -9.401   7.344  72.678  1.00  0.00    -0.192 A  
HETATM   20  C   UNL     1      -8.740   8.061  71.688  1.00  0.00    -0.169 A  
HETATM   21  C   UNL     1      -9.414   9.058  70.968  1.00  0.00    -0.342 A  
HETATM   22  C   UNL     1     -10.777   9.356  71.210  1.00  0.00    -0.421 A  
ENDBRANCH  12  13
ENDBRANCH   6  12
ENDBRANCH   5   6
ENDBRANCH   4   5
ENDBRANCH   2   4
TORSDOF 6
ENDMDL
MODEL       35
REMARK 921   NORMALIZED FREE ENERGY PREDICTED BY IDOCK:   -5.46 KCAL/MOL
REMARK 922        TOTAL FREE ENERGY PREDICTED BY IDOCK:   -8.27 KCAL/MOL
REMARK 923 INTER-LIGAND FREE ENERGY PREDICTED BY IDOCK:   -7.34 KCAL/MOL
REMARK 924 INTRA-LIGAND FREE ENERGY PREDICTED BY IDOCK:   -0.93 KCAL/MOL
REMARK 927      BINDING AFFINITY PREDICTED BY RF-SCORE:    0.00 PKD
ROOT
HETATM    1  C   UNL     1     -11.312   9.785  71.157  1.00  0.00    -0.389 C  
HETATM    2  N   UNL     1     -11.224  10.972  70.308  1.00  0.00    -0.472 NA 
HETATM    3  H   UNL     1     -11.083  10.725  69.329  1.00  0.00     0.000 HD 
ENDROOT
BRANCH   2   4
HETATM    4  C   UNL     1     -12.399  11.832  70.487  1.00  0.00    -0.299 C  
BRANCH   4   5
HETATM    5  C   UNL     1     -12.113  13.323  70.242  1.00  0.00    -0.405 C  
BRANCH   5   6
HETATM    6  C   UNL     1     -11.938  13.764  68.779  1.00  0.00    -0.365 C  
BRANCH   6   7
HETATM    7  C   UNL     1     -10.624  14.487  68.545  1.00  0.00    -0.252 A  
HETATM    8  C   UNL     1      -8.920  16.244  68.164  1.00  0.00    -0.187 A  
HETATM    9  S   UNL     1     -10.614  16.201  68.370  1.00  0.00    -0.301 SA 
HETATM   10  C   UNL     1      -9.346  13.973  68.418  1.00  0.00    -0.210 A  
HETATM   11  C   UNL     1      -8.364  14.986  68.203  1.00  0.00    -0.142 A  
ENDBRANCH   6   7
BRANCH   6  12
HETATM   12  O   UNL     1     -11.920  12.594  67.917  1.00  0.00    -0.349 OA 
BRANCH  12  13
HETATM   13  C   UNL     1     -11.905  12.816  66.554  1.00  0.00    -0.405 A  
HETATM   14  C   UNL     1     -12.604  14.064  64.592  1.00  0.00    -0.281 A  
HETATM   15  C   UNL     1     -12.588  13.891  65.972  1.00  0.00    -0.467 A  
HETATM   16  C   UNL     1     -11.917  13.174  63.774  1.00  0.00    -0.572 A  
HETATM   17  C   UNL     1     -11.167  12.131  64.323  1.00  0.00    -0.409 A  
HETATM   18  C   UNL     1     -10.454  11.272  63.473  1.00  0.00    -0.457 A  
HETATM   19  C   UNL     1      -9.654  10.254  63.984  1.00  0.00    -0.365 A  
HETATM   20  C   UNL     1      -9.559  10.087  65.360  1.00  0.00    -0.342 A  
HETATM   21  C   UNL     1     -10.288  10.918  66.224  1.00  0.00    -0.306 A  
HETATM   22  C   UNL     1     -11.123  11.951  65.733  1.00  0.00    -0.367 A  
ENDBRANCH  12  13
ENDBRANCH   6  12
ENDBRANCH   5   6
ENDBRANCH   4   5
ENDBRANCH   2   4
TORSDOF 6
ENDMDL
MODEL       36
REMARK 921   NORMALIZED FREE ENERGY PREDICTED BY IDOCK:   -5.45 KCAL/MOL
REMARK 922        TOTAL FREE ENERGY PREDICTED BY IDOCK:   -8.25 KCAL/MOL
REMARK 923 INTER-LIGAND FREE ENERGY PREDICTED BY IDOCK:   -7.54 KCAL/MOL
REMARK 924 INTRA-LIGAND FREE ENERGY PREDICTED BY IDOCK:   -0.72 KCAL/MOL
REMARK 927      BINDING AFFINITY PREDICTED BY RF-SCORE:    0.00 PKD
ROOT
HETATM    1  C   UNL     1     -11.179  13.060  64.037  1.00  0.00    -0.405 C  
HETATM    2  N   UNL     1     -12.569  13.460  64.254  1.00  0.00    -0.653 NA 
HETATM    3  H   UNL     1     -13.210  12.677  64.125  1.00  0.00     0.000 HD 
ENDROOT
BRANCH   2   4
HETATM    4  C   UNL     1     -12.735  14.084  65.571  1.00  0.00    -0.486 C  
BRANCH   4   5
HETATM    5  C   UNL     1     -11.441  14.123  66.401  1.00  0.00    -0.362 C  
BRANCH   5   6
HETATM    6  C   UNL     1     -11.413  15.091  67.597  1.00  0.00    -0.333 C  
BRANCH   6   7
HETATM    7  C   UNL     1     -11.806  14.415  68.898  1.00  0.00    -0.320 A  
HETATM    8  C   UNL     1     -12.572  13.999  71.216  1.00  0.00    -0.367 A  
HETATM    9  S   UNL     1     -12.338  15.372  70.228  1.00  0.00    -0.365 SA 
HETATM   10  C   UNL     1     -11.790  13.073  69.234  1.00  0.00    -0.370 A  
HETATM   11  C   UNL     1     -12.236  12.833  70.568  1.00  0.00    -0.389 A  
ENDBRANCH   6   7
BRANCH   6  12
HETATM   12  O   UNL     1     -10.062  15.590  67.786  1.00  0.00    -0.229 OA 
BRANCH  12  13
HETATM   13  C   UNL     1      -9.896  16.960  67.819  1.00  0.00    -0.252 A  
HETATM   14  C   UNL     1     -10.698  19.213  67.400  1.00  0.00    -0.578 A  
HETATM   15  C   UNL     1     -10.906  17.839  67.410  1.00  0.00    -0.195 A  
HETATM   16  C   UNL     1      -9.480  19.733  67.821  1.00  0.00    -0.456 A  
HETATM   17  C   UNL     1      -8.472  18.892  68.304  1.00  0.00    -0.365 A  
HETATM   18  C   UNL     1      -7.267  19.449  68.756  1.00  0.00    -0.390 A  
HETATM   19  C   UNL     1      -6.261  18.650  69.292  1.00  0.00    -0.273 A  
HETATM   20  C   UNL     1      -6.455  17.277  69.380  1.00  0.00    -0.235 A  
HETATM   21  C   UNL     1      -7.641  16.700  68.904  1.00  0.00    -0.240 A  
HETATM   22  C   UNL     1      -8.676  17.485  68.339  1.00  0.00    -0.276 A  
ENDBRANCH  12  13
ENDBRANCH   6  12
ENDBRANCH   5   6
ENDBRANCH   4   5
ENDBRANCH   2   4
TORSDOF 6
ENDMDL
MODEL       37
REMARK 921   NORMALIZED FREE ENERGY PREDICTED BY IDOCK:   -5.40 KCAL/MOL
REMARK 922        TOTAL FREE ENERGY PREDICTED BY IDOCK:   -8.19 KCAL/MOL
REMARK 923 INTER-LIGAND FREE ENERGY PREDICTED BY IDOCK:   -7.25 KCAL/MOL
REMARK 924 INTRA-LIGAND FREE ENERGY PREDICTED BY IDOCK:   -0.93 KCAL/MOL
REMARK 927      BINDING AFFINITY PREDICTED BY RF-SCORE:    0.00 PKD
ROOT
HETATM    1  C   UNL     1     -12.265  12.227  63.643  1.00  0.00    -0.567 C  
HETATM    2  N   UNL     1     -12.275  13.601  63.144  1.00  0.00    -1.046 NA 
HETATM    3  H   UNL     1     -13.084  13.780  62.549  1.00  0.00     0.000 HD 
ENDROOT
BRANCH   2   4
HETATM    4  C   UNL     1     -12.195  14.561  64.251  1.00  0.00    -0.415 C  
BRANCH   4   5
HETATM    5  C   UNL     1     -12.626  13.975  65.606  1.00  0.00    -0.542 C  
BRANCH   5   6
HETATM    6  C   UNL     1     -11.867  14.471  66.849  1.00  0.00    -0.377 C  
BRANCH   6   7
HETATM    7  C   UNL     1     -11.920  13.475  67.994  1.00  0.00    -0.337 A  
HETATM    8  C   UNL     1     -12.109  12.459  70.245  1.00  0.00    -0.297 A  
HETATM    9  S   UNL     1     -12.163  14.040  69.603  1.00  0.00    -0.280 SA 
HETATM   10  C   UNL     1     -11.776  12.099  67.973  1.00  0.00    -0.409 A  
HETATM   11  C   UNL     1     -11.889  11.514  69.269  1.00  0.00    -0.414 A  
ENDBRANCH   6   7
BRANCH   6  12
HETATM   12  O   UNL     1     -10.462  14.645  66.523  1.00  0.00    -0.280 OA 
BRANCH  12  13
HETATM   13  C   UNL     1      -9.889  15.861  66.838  1.00  0.00    -0.243 A  
HETATM   14  C   UNL     1      -9.737  18.271  66.590  1.00  0.00    -0.339 A  
HETATM   15  C   UNL     1     -10.363  17.064  66.302  1.00  0.00    -0.309 A  
HETATM   16  C   UNL     1      -8.636  18.295  67.439  1.00  0.00    -0.250 A  
HETATM   17  C   UNL     1      -8.177  17.124  68.049  1.00  0.00    -0.216 A  
HETATM   18  C   UNL     1      -7.087  17.186  68.930  1.00  0.00    -0.242 A  
HETATM   19  C   UNL     1      -6.634  16.051  69.596  1.00  0.00    -0.185 A  
HETATM   20  C   UNL     1      -7.274  14.836  69.385  1.00  0.00    -0.168 A  
HETATM   21  C   UNL     1      -8.346  14.750  68.485  1.00  0.00    -0.160 A  
HETATM   22  C   UNL     1      -8.818  15.884  67.781  1.00  0.00    -0.176 A  
ENDBRANCH  12  13
ENDBRANCH   6  12
ENDBRANCH   5   6
ENDBRANCH   4   5
ENDBRANCH   2   4
TORSDOF 6
ENDMDL
MODEL       38
REMARK 921   NORMALIZED FREE ENERGY PREDICTED BY IDOCK:   -5.37 KCAL/MOL
REMARK 922        TOTAL FREE ENERGY PREDICTED BY IDOCK:   -8.15 KCAL/MOL
REMARK 923 INTER-LIGAND FREE ENERGY PREDICTED BY IDOCK:   -7.38 KCAL/MOL
REMARK 924 INTRA-LIGAND FREE ENERGY PREDICTED BY IDOCK:   -0.77 KCAL/MOL
REMARK 927      BINDING AFFINITY PREDICTED BY RF-SCORE:    0.00 PKD
ROOT
HETATM    1  C   UNL     1      -9.952   4.961  66.345  1.00  0.00    -0.234 C  
HETATM    2  N   UNL     1     -11.124   5.836  66.344  1.00  0.00    -0.767 NA 
HETATM    3  H   UNL     1     -11.993   5.302  66.334  1.00  0.00     0.000 HD 
ENDROOT
BRANCH   2   4
HETATM    4  C   UNL     1     -11.079   6.773  67.472  1.00  0.00    -0.265 C  
BRANCH   4   5
HETATM    5  C   UNL     1     -10.363   8.095  67.146  1.00  0.00    -0.391 C  
BRANCH   5   6
HETATM    6  C   UNL     1     -10.795   9.334  67.949  1.00  0.00    -0.118 C  
BRANCH   6   7
HETATM    7  C   UNL     1     -10.549   9.172  69.438  1.00  0.00    -0.223 A  
HETATM    8  C   UNL     1      -9.469   8.796  71.635  1.00  0.00    -0.288 A  
HETATM    9  S   UNL     1      -8.962   8.814  70.005  1.00  0.00    -0.168 SA 
HETATM   10  C   UNL     1     -11.442   9.246  70.493  1.00  0.00    -0.296 A  
HETATM   11  C   UNL     1     -10.818   9.035  71.759  1.00  0.00    -0.437 A  
ENDBRANCH   6   7
BRANCH   6  12
HETATM   12  O   UNL     1     -10.013  10.483  67.527  1.00  0.00    -0.165 OA 
BRANCH  12  13
HETATM   13  C   UNL     1     -10.695  11.665  67.317  1.00  0.00    -0.238 A  
HETATM   14  C   UNL     1     -11.726  13.704  68.139  1.00  0.00    -0.392 A  
HETATM   15  C   UNL     1     -10.991  12.546  68.364  1.00  0.00    -0.277 A  
HETATM   16  C   UNL     1     -12.159  14.011  66.854  1.00  0.00    -0.465 A  
HETATM   17  C   UNL     1     -11.823  13.192  65.771  1.00  0.00    -0.442 A  
HETATM   18  C   UNL     1     -12.243  13.548  64.481  1.00  0.00    -0.445 A  
HETATM   19  C   UNL     1     -11.884  12.787  63.372  1.00  0.00    -0.591 A  
HETATM   20  C   UNL     1     -11.095  11.657  63.546  1.00  0.00    -0.476 A  
HETATM   21  C   UNL     1     -10.691  11.270  64.833  1.00  0.00    -0.337 A  
HETATM   22  C   UNL     1     -11.055  12.015  65.981  1.00  0.00    -0.364 A  
ENDBRANCH  12  13
ENDBRANCH   6  12
ENDBRANCH   5   6
ENDBRANCH   4   5
ENDBRANCH   2   4
TORSDOF 6
ENDMDL
MODEL       39
REMARK 921   NORMALIZED FREE ENERGY PREDICTED BY IDOCK:   -5.36 KCAL/MOL
REMARK 922        TOTAL FREE ENERGY PREDICTED BY IDOCK:   -8.14 KCAL/MOL
REMARK 923 INTER-LIGAND FREE ENERGY PREDICTED BY IDOCK:   -7.63 KCAL/MOL
REMARK 924 INTRA-LIGAND FREE ENERGY PREDICTED BY IDOCK:   -0.51 KCAL/MOL
REMARK 927      BINDING AFFINITY PREDICTED BY RF-SCORE:    0.00 PKD
ROOT
HETATM    1  C   UNL     1      -9.677   9.862  69.284  1.00  0.00    -0.208 C  
HETATM    2  N   UNL     1     -10.552  10.403  70.323  1.00  0.00    -0.447 NA 
HETATM    3  H   UNL     1     -10.068  11.087  70.904  1.00  0.00     0.000 HD 
ENDROOT
BRANCH   2   4
HETATM    4  C   UNL     1     -11.778  10.957  69.738  1.00  0.00    -0.338 C  
BRANCH   4   5
HETATM    5  C   UNL     1     -12.459  12.013  70.626  1.00  0.00    -0.335 C  
BRANCH   5   6
HETATM    6  C   UNL     1     -12.319  13.481  70.187  1.00  0.00    -0.275 C  
BRANCH   6   7
HETATM    7  C   UNL     1     -12.524  14.451  71.337  1.00  0.00    -0.359 A  
HETATM    8  C   UNL     1     -13.551  15.853  73.102  1.00  0.00    -0.499 A  
HETATM    9  S   UNL     1     -14.117  14.770  71.909  1.00  0.00    -0.572 SA 
HETATM   10  C   UNL     1     -11.591  15.191  72.043  1.00  0.00    -0.496 A  
HETATM   11  C   UNL     1     -12.183  15.995  73.062  1.00  0.00    -0.637 A  
ENDBRANCH   6   7
BRANCH   6  12
HETATM   12  O   UNL     1     -10.973  13.714  69.691  1.00  0.00    -0.095 OA 
BRANCH  12  13
HETATM   13  C   UNL     1     -10.830  14.631  68.668  1.00  0.00    -0.255 A  
HETATM   14  C   UNL     1     -10.223  16.838  67.856  1.00  0.00    -0.300 A  
HETATM   15  C   UNL     1     -10.308  15.911  68.890  1.00  0.00    -0.228 A  
HETATM   16  C   UNL     1     -10.640  16.488  66.577  1.00  0.00    -0.217 A  
HETATM   17  C   UNL     1     -11.101  15.197  66.302  1.00  0.00    -0.309 A  
HETATM   18  C   UNL     1     -11.480  14.865  64.993  1.00  0.00    -0.379 A  
HETATM   19  C   UNL     1     -11.894  13.575  64.670  1.00  0.00    -0.428 A  
HETATM   20  C   UNL     1     -11.931  12.602  65.660  1.00  0.00    -0.507 A  
HETATM   21  C   UNL     1     -11.584  12.926  66.981  1.00  0.00    -0.419 A  
HETATM   22  C   UNL     1     -11.175  14.232  67.343  1.00  0.00    -0.330 A  
ENDBRANCH  12  13
ENDBRANCH   6  12
ENDBRANCH   5   6
ENDBRANCH   4   5
ENDBRANCH   2   4
TORSDOF 6
ENDMDL
MODEL       40
REMARK 921   NORMALIZED FREE ENERGY PREDICTED BY IDOCK:   -5.36 KCAL/MOL
REMARK 922        TOTAL FREE ENERGY PREDICTED BY IDOCK:   -8.14 KCAL/MOL
REMARK 923 INTER-LIGAND FREE ENERGY PREDICTED BY IDOCK:   -7.03 KCAL/MOL
REMARK 924 INTRA-LIGAND FREE ENERGY PREDICTED BY IDOCK:   -1.11 KCAL/MOL
REMARK 927      BINDING AFFINITY PREDICTED BY RF-SCORE:    0.00 PKD
ROOT
HETATM    1  C   UNL     1      -7.202  10.424  69.139  1.00  0.00    -0.089 C  
HETATM    2  N   UNL     1      -8.185   9.348  69.253  1.00  0.00    -0.106 NA 
HETATM    3  H   UNL     1      -7.743   8.457  69.477  1.00  0.00     0.000 HD 
ENDROOT
BRANCH   2   4
HETATM    4  C   UNL     1      -9.230   9.694  70.223  1.00  0.00    -0.236 C  
BRANCH   4   5
HETATM    5  C   UNL     1     -10.656   9.421  69.715  1.00  0.00    -0.247 C  
BRANCH   5   6
HETATM    6  C   UNL     1     -11.391  10.598  69.051  1.00  0.00    -0.277 C  
BRANCH   6   7
HETATM    7  C   UNL     1     -12.007  11.543  70.067  1.00  0.00    -0.357 A  
HETATM    8  C   UNL     1     -13.230  12.458  72.017  1.00  0.00    -0.409 A  
HETATM    9  S   UNL     1     -12.905  10.903  71.390  1.00  0.00    -0.435 SA 
HETATM   10  C   UNL     1     -11.991  12.926  70.107  1.00  0.00    -0.373 A  
HETATM   11  C   UNL     1     -12.691  13.453  71.234  1.00  0.00    -0.424 A  
ENDBRANCH   6   7
BRANCH   6  12
HETATM   12  O   UNL     1     -10.447  11.387  68.278  1.00  0.00    -0.184 OA 
BRANCH  12  13
HETATM   13  C   UNL     1     -10.425  11.184  66.913  1.00  0.00    -0.246 A  
HETATM   14  C   UNL     1      -9.729   9.921  64.959  1.00  0.00    -0.359 A  
HETATM   15  C   UNL     1      -9.785  10.078  66.339  1.00  0.00    -0.266 A  
HETATM   16  C   UNL     1     -10.332  10.859  64.130  1.00  0.00    -0.432 A  
HETATM   17  C   UNL     1     -11.040  11.939  64.667  1.00  0.00    -0.373 A  
HETATM   18  C   UNL     1     -11.669  12.849  63.804  1.00  0.00    -0.557 A  
HETATM   19  C   UNL     1     -12.427  13.906  64.302  1.00  0.00    -0.305 A  
HETATM   20  C   UNL     1     -12.562  14.061  65.676  1.00  0.00    -0.542 A  
HETATM   21  C   UNL     1     -11.915  13.177  66.553  1.00  0.00    -0.459 A  
HETATM   22  C   UNL     1     -11.125  12.103  66.076  1.00  0.00    -0.354 A  
ENDBRANCH  12  13
ENDBRANCH   6  12
ENDBRANCH   5   6
ENDBRANCH   4   5
ENDBRANCH   2   4
TORSDOF 6
ENDMDL
MODEL       41
REMARK 921   NORMALIZED FREE ENERGY PREDICTED BY IDOCK:   -5.31 KCAL/MOL
REMARK 922        TOTAL FREE ENERGY PREDICTED BY IDOCK:   -8.07 KCAL/MOL
REMARK 923 INTER-LIGAND FREE ENERGY PREDICTED BY IDOCK:   -6.80 KCAL/MOL
REMARK 924 INTRA-LIGAND FREE ENERGY PREDICTED BY IDOCK:   -1.27 KCAL/MOL
REMARK 927      BINDING AFFINITY PREDICTED BY RF-SCORE:    0.00 PKD
ROOT
HETATM    1  C   UNL     1     -13.020  10.208  71.759  1.00  0.00    -0.462 C  
HETATM    2  N   UNL     1     -12.793   9.182  70.742  1.00  0.00    -0.498 NA 
HETATM    3  H   UNL     1     -12.994   9.530  69.805  1.00  0.00     0.000 HD 
ENDROOT
BRANCH   2   4
HETATM    4  C   UNL     1     -11.432   8.642  70.839  1.00  0.00    -0.275 C  
BRANCH   4   5
HETATM    5  C   UNL     1     -10.338   9.664  70.488  1.00  0.00    -0.359 C  
BRANCH   5   6
HETATM    6  C   UNL     1     -10.160  10.006  68.999  1.00  0.00    -0.200 C  
BRANCH   6   7
HETATM    7  C   UNL     1      -9.763   8.797  68.171  1.00  0.00    -0.158 A  
HETATM    8  C   UNL     1      -8.535   6.848  67.258  1.00  0.00    -0.121 A  
HETATM    9  S   UNL     1      -8.270   7.998  68.492  1.00  0.00    -0.127 SA 
HETATM   10  C   UNL     1     -10.425   8.194  67.116  1.00  0.00    -0.396 A  
HETATM   11  C   UNL     1      -9.720   7.069  66.593  1.00  0.00    -0.226 A  
ENDBRANCH   6   7
BRANCH   6  12
HETATM   12  O   UNL     1     -11.423  10.476  68.454  1.00  0.00    -0.285 OA 
BRANCH  12  13
HETATM   13  C   UNL     1     -11.549  11.835  68.241  1.00  0.00    -0.308 A  
HETATM   14  C   UNL     1     -11.868  14.098  69.062  1.00  0.00    -0.384 A  
HETATM   15  C   UNL     1     -11.688  12.740  69.301  1.00  0.00    -0.376 A  
HETATM   16  C   UNL     1     -11.890  14.575  67.756  1.00  0.00    -0.390 A  
HETATM   17  C   UNL     1     -11.684  13.712  66.675  1.00  0.00    -0.420 A  
HETATM   18  C   UNL     1     -11.675  14.229  65.372  1.00  0.00    -0.354 A  
HETATM   19  C   UNL     1     -11.421  13.411  64.274  1.00  0.00    -0.429 A  
HETATM   20  C   UNL     1     -11.172  12.059  64.475  1.00  0.00    -0.390 A  
HETATM   21  C   UNL     1     -11.206  11.519  65.770  1.00  0.00    -0.228 A  
HETATM   22  C   UNL     1     -11.478  12.324  66.903  1.00  0.00    -0.418 A  
ENDBRANCH  12  13
ENDBRANCH   6  12
ENDBRANCH   5   6
ENDBRANCH   4   5
ENDBRANCH   2   4
TORSDOF 6
ENDMDL
MODEL       42
REMARK 921   NORMALIZED FREE ENERGY PREDICTED BY IDOCK:   -5.28 KCAL/MOL
REMARK 922        TOTAL FREE ENERGY PREDICTED BY IDOCK:   -8.03 KCAL/MOL
REMARK 923 INTER-LIGAND FREE ENERGY PREDICTED BY IDOCK:   -7.33 KCAL/MOL
REMARK 924 INTRA-LIGAND FREE ENERGY PREDICTED BY IDOCK:   -0.69 KCAL/MOL
REMARK 927      BINDING AFFINITY PREDICTED BY RF-SCORE:    0.00 PKD
ROOT
HETATM    1  C   UNL     1     -10.022  16.758  66.521  1.00  0.00    -0.298 C  
HETATM    2  N   UNL     1      -9.484  16.682  67.879  1.00  0.00    -0.223 NA 
HETATM    3  H   UNL     1      -8.732  17.354  68.024  1.00  0.00     0.000 HD 
ENDROOT
BRANCH   2   4
HETATM    4  C   UNL     1     -10.550  16.838  68.874  1.00  0.00    -0.350 C  
BRANCH   4   5
HETATM    5  C   UNL     1     -11.711  15.845  68.695  1.00  0.00    -0.328 C  
BRANCH   5   6
HETATM    6  C   UNL     1     -11.764  14.658  69.672  1.00  0.00    -0.313 C  
BRANCH   6   7
HETATM    7  C   UNL     1     -12.502  14.996  70.954  1.00  0.00    -0.345 A  
HETATM    8  C   UNL     1     -13.028  15.632  73.290  1.00  0.00    -0.550 A  
HETATM    9  S   UNL     1     -11.608  15.400  72.370  1.00  0.00    -0.379 SA 
HETATM   10  C   UNL     1     -13.862  15.017  71.209  1.00  0.00    -0.528 A  
HETATM   11  C   UNL     1     -14.165  15.388  72.553  1.00  0.00    -0.500 A  
ENDBRANCH   6   7
BRANCH   6  12
HETATM   12  O   UNL     1     -12.490  13.557  69.060  1.00  0.00    -0.141 OA 
BRANCH  12  13
HETATM   13  C   UNL     1     -12.027  12.281  69.312  1.00  0.00    -0.253 A  
HETATM   14  C   UNL     1     -11.657  10.407  70.812  1.00  0.00    -0.450 A  
HETATM   15  C   UNL     1     -12.179  11.672  70.564  1.00  0.00    -0.451 A  
HETATM   16  C   UNL     1     -10.993   9.722  69.801  1.00  0.00    -0.287 A  
HETATM   17  C   UNL     1     -10.884  10.267  68.518  1.00  0.00    -0.281 A  
HETATM   18  C   UNL     1     -10.240   9.535  67.510  1.00  0.00    -0.283 A  
HETATM   19  C   UNL     1     -10.157  10.022  66.208  1.00  0.00    -0.310 A  
HETATM   20  C   UNL     1     -10.723  11.253  65.903  1.00  0.00    -0.291 A  
HETATM   21  C   UNL     1     -11.344  12.012  66.906  1.00  0.00    -0.400 A  
HETATM   22  C   UNL     1     -11.429  11.551  68.243  1.00  0.00    -0.368 A  
ENDBRANCH  12  13
ENDBRANCH   6  12
ENDBRANCH   5   6
ENDBRANCH   4   5
ENDBRANCH   2   4
TORSDOF 6
ENDMDL
MODEL       43
REMARK 921   NORMALIZED FREE ENERGY PREDICTED BY IDOCK:   -5.27 KCAL/MOL
REMARK 922        TOTAL FREE ENERGY PREDICTED BY IDOCK:   -8.02 KCAL/MOL
REMARK 923 INTER-LIGAND FREE ENERGY PREDICTED BY IDOCK:   -7.11 KCAL/MOL
REMARK 924 INTRA-LIGAND FREE ENERGY PREDICTED BY IDOCK:   -0.92 KCAL/MOL
REMARK 927      BINDING AFFINITY PREDICTED BY RF-SCORE:    0.00 PKD
ROOT
HETATM    1  C   UNL     1      -8.024  10.279  69.226  1.00  0.00    -0.149 C  
HETATM    2  N   UNL     1      -9.309  10.975  69.183  1.00  0.00    -0.394 NA 
HETATM    3  H   UNL     1      -9.270  11.802  68.587  1.00  0.00     0.000 HD 
ENDROOT
BRANCH   2   4
HETATM    4  C   UNL     1     -10.385  10.065  68.776  1.00  0.00    -0.198 C  
BRANCH   4   5
HETATM    5  C   UNL     1     -11.512  10.758  67.991  1.00  0.00    -0.333 C  
BRANCH   5   6
HETATM    6  C   UNL     1     -11.158  12.082  67.293  1.00  0.00    -0.285 C  
BRANCH   6   7
HETATM    7  C   UNL     1     -11.132  11.950  65.781  1.00  0.00    -0.317 A  
HETATM    8  C   UNL     1     -10.572  11.251  63.472  1.00  0.00    -0.369 A  
HETATM    9  S   UNL     1     -10.027  10.855  65.041  1.00  0.00    -0.323 SA 
HETATM   10  C   UNL     1     -11.877  12.617  64.825  1.00  0.00    -0.434 A  
HETATM   11  C   UNL     1     -11.557  12.211  63.495  1.00  0.00    -0.562 A  
ENDBRANCH   6   7
BRANCH   6  12
HETATM   12  O   UNL     1     -12.170  13.079  67.599  1.00  0.00    -0.263 OA 
BRANCH  12  13
HETATM   13  C   UNL     1     -11.866  14.005  68.576  1.00  0.00    -0.364 A  
HETATM   14  C   UNL     1     -11.828  14.716  70.898  1.00  0.00    -0.372 A  
HETATM   15  C   UNL     1     -12.090  13.749  69.935  1.00  0.00    -0.412 A  
HETATM   16  C   UNL     1     -11.316  15.952  70.517  1.00  0.00    -0.409 A  
HETATM   17  C   UNL     1     -11.013  16.219  69.179  1.00  0.00    -0.324 A  
HETATM   18  C   UNL     1     -10.462  17.462  68.831  1.00  0.00    -0.312 A  
HETATM   19  C   UNL     1     -10.100  17.746  67.518  1.00  0.00    -0.340 A  
HETATM   20  C   UNL     1     -10.285  16.781  66.535  1.00  0.00    -0.319 A  
HETATM   21  C   UNL     1     -10.862  15.545  66.860  1.00  0.00    -0.301 A  
HETATM   22  C   UNL     1     -11.257  15.233  68.184  1.00  0.00    -0.328 A  
ENDBRANCH  12  13
ENDBRANCH   6  12
ENDBRANCH   5   6
ENDBRANCH   4   5
ENDBRANCH   2   4
TORSDOF 6
ENDMDL
MODEL       44
REMARK 921   NORMALIZED FREE ENERGY PREDICTED BY IDOCK:   -5.26 KCAL/MOL
REMARK 922        TOTAL FREE ENERGY PREDICTED BY IDOCK:   -8.00 KCAL/MOL
REMARK 923 INTER-LIGAND FREE ENERGY PREDICTED BY IDOCK:   -7.36 KCAL/MOL
REMARK 924 INTRA-LIGAND FREE ENERGY PREDICTED BY IDOCK:   -0.64 KCAL/MOL
REMARK 927      BINDING AFFINITY PREDICTED BY RF-SCORE:    0.00 PKD
ROOT
HETATM    1  C   UNL     1     -12.093  13.319  63.638  1.00  0.00    -0.485 C  
HETATM    2  N   UNL     1     -12.666  14.097  64.734  1.00  0.00    -0.678 NA 
HETATM    3  H   UNL     1     -13.635  14.354  64.547  1.00  0.00     0.000 HD 
ENDROOT
BRANCH   2   4
HETATM    4  C   UNL     1     -12.532  13.383  66.009  1.00  0.00    -0.369 C  
BRANCH   4   5
HETATM    5  C   UNL     1     -11.648  14.114  67.033  1.00  0.00    -0.404 C  
BRANCH   5   6
HETATM    6  C   UNL     1     -11.410  13.403  68.377  1.00  0.00    -0.294 C  
BRANCH   6   7
HETATM    7  C   UNL     1     -11.798  14.266  69.564  1.00  0.00    -0.329 A  
HETATM    8  C   UNL     1     -11.806  16.004  71.329  1.00  0.00    -0.449 A  
HETATM    9  S   UNL     1     -10.767  15.558  70.050  1.00  0.00    -0.331 SA 
HETATM   10  C   UNL     1     -12.900  14.178  70.396  1.00  0.00    -0.256 A  
HETATM   11  C   UNL     1     -12.907  15.182  71.410  1.00  0.00    -0.457 A  
ENDBRANCH   6   7
BRANCH   6  12
HETATM   12  O   UNL     1     -12.240  12.212  68.450  1.00  0.00    -0.324 OA 
BRANCH  12  13
HETATM   13  C   UNL     1     -11.668  11.080  68.996  1.00  0.00    -0.333 A  
HETATM   14  C   UNL     1     -11.230   9.614  70.881  1.00  0.00    -0.422 A  
HETATM   15  C   UNL     1     -11.859  10.728  70.338  1.00  0.00    -0.450 A  
HETATM   16  C   UNL     1     -10.415   8.820  70.082  1.00  0.00    -0.230 A  
HETATM   17  C   UNL     1     -10.257   9.098  68.721  1.00  0.00    -0.228 A  
HETATM   18  C   UNL     1      -9.458   8.257  67.933  1.00  0.00    -0.163 A  
HETATM   19  C   UNL     1      -9.319   8.472  66.565  1.00  0.00    -0.260 A  
HETATM   20  C   UNL     1      -9.983   9.537  65.970  1.00  0.00    -0.348 A  
HETATM   21  C   UNL     1     -10.762  10.406  66.749  1.00  0.00    -0.235 A  
HETATM   22  C   UNL     1     -10.909  10.223  68.145  1.00  0.00    -0.312 A  
ENDBRANCH  12  13
ENDBRANCH   6  12
ENDBRANCH   5   6
ENDBRANCH   4   5
ENDBRANCH   2   4
TORSDOF 6
ENDMDL
MODEL       45
REMARK 921   NORMALIZED FREE ENERGY PREDICTED BY IDOCK:   -5.23 KCAL/MOL
REMARK 922        TOTAL FREE ENERGY PREDICTED BY IDOCK:   -7.96 KCAL/MOL
REMARK 923 INTER-LIGAND FREE ENERGY PREDICTED BY IDOCK:   -6.91 KCAL/MOL
REMARK 924 INTRA-LIGAND FREE ENERGY PREDICTED BY IDOCK:   -1.05 KCAL/MOL
REMARK 927      BINDING AFFINITY PREDICTED BY RF-SCORE:    0.00 PKD
ROOT
HETATM    1  C   UNL     1     -14.374   7.416  71.480  1.00  0.00    -0.440 C  
HETATM    2  N   UNL     1     -14.145   8.782  71.012  1.00  0.00    -0.590 NA 
HETATM    3  H   UNL     1     -14.983   9.180  70.587  1.00  0.00     0.000 HD 
ENDROOT
BRANCH   2   4
HETATM    4  C   UNL     1     -13.635   9.629  72.096  1.00  0.00    -0.389 C  
BRANCH   4   5
HETATM    5  C   UNL     1     -12.795  10.820  71.603  1.00  0.00    -0.562 C  
BRANCH   5   6
HETATM    6  C   UNL     1     -11.997  10.614  70.304  1.00  0.00    -0.339 C  
BRANCH   6   7
HETATM    7  C   UNL     1     -11.587  11.928  69.663  1.00  0.00    -0.317 A  
HETATM    8  C   UNL     1     -11.315  14.339  69.163  1.00  0.00    -0.276 A  
HETATM    9  S   UNL     1     -12.134  13.414  70.342  1.00  0.00    -0.281 SA 
HETATM   10  C   UNL     1     -10.814  12.157  68.538  1.00  0.00    -0.267 A  
HETATM   11  C   UNL     1     -10.654  13.546  68.253  1.00  0.00    -0.259 A  
ENDBRANCH   6   7
BRANCH   6  12
HETATM   12  O   UNL     1     -10.766   9.900  70.597  1.00  0.00    -0.296 OA 
BRANCH  12  13
HETATM   13  C   UNL     1     -10.717   8.564  70.253  1.00  0.00    -0.230 A  
HETATM   14  C   UNL     1     -10.680   6.793  68.592  1.00  0.00    -0.279 A  
HETATM   15  C   UNL     1     -10.674   8.144  68.917  1.00  0.00    -0.090 A  
HETATM   16  C   UNL     1     -10.706   5.837  69.601  1.00  0.00    -0.416 A  
HETATM   17  C   UNL     1     -10.678   6.216  70.947  1.00  0.00    -0.316 A  
HETATM   18  C   UNL     1     -10.668   5.228  71.942  1.00  0.00    -0.252 A  
HETATM   19  C   UNL     1     -10.588   5.565  73.290  1.00  0.00    -0.285 A  
HETATM   20  C   UNL     1     -10.515   6.904  73.656  1.00  0.00    -0.400 A  
HETATM   21  C   UNL     1     -10.554   7.906  72.675  1.00  0.00    -0.394 A  
HETATM   22  C   UNL     1     -10.652   7.594  71.297  1.00  0.00    -0.237 A  
ENDBRANCH  12  13
ENDBRANCH   6  12
ENDBRANCH   5   6
ENDBRANCH   4   5
ENDBRANCH   2   4
TORSDOF 6
ENDMDL
MODEL       46
REMARK 921   NORMALIZED FREE ENERGY PREDICTED BY IDOCK:   -5.22 KCAL/MOL
REMARK 922        TOTAL FREE ENERGY PREDICTED BY IDOCK:   -7.94 KCAL/MOL
REMARK 923 INTER-LIGAND FREE ENERGY PREDICTED BY IDOCK:   -6.95 KCAL/MOL
REMARK 924 INTRA-LIGAND FREE ENERGY PREDICTED BY IDOCK:   -1.00 KCAL/MOL
REMARK 927      BINDING AFFINITY PREDICTED BY RF-SCORE:    0.00 PKD
ROOT
HETATM    1  C   UNL     1     -12.215  14.760  64.356  1.00  0.00    -0.428 C  
HETATM    2  N   UNL     1     -12.967  13.678  64.988  1.00  0.00    -0.744 NA 
HETATM    3  H   UNL     1     -13.970  13.771  64.825  1.00  0.00     0.000 HD 
ENDROOT
BRANCH   2   4
HETATM    4  C   UNL     1     -12.469  12.368  64.553  1.00  0.00    -0.435 C  
BRANCH   4   5
HETATM    5  C   UNL     1     -11.042  12.061  65.039  1.00  0.00    -0.368 C  
BRANCH   5   6
HETATM    6  C   UNL     1     -10.901  11.522  66.473  1.00  0.00    -0.288 C  
BRANCH   6   7
HETATM    7  C   UNL     1     -10.277  10.138  66.512  1.00  0.00    -0.223 A  
HETATM    8  C   UNL     1      -8.933   8.127  65.976  1.00  0.00    -0.171 A  
HETATM    9  S   UNL     1      -9.163   9.671  65.284  1.00  0.00    -0.249 SA 
HETATM   10  C   UNL     1     -10.477   9.106  67.412  1.00  0.00    -0.339 A  
HETATM   11  C   UNL     1      -9.699   7.950  67.106  1.00  0.00    -0.249 A  
ENDBRANCH   6   7
BRANCH   6  12
HETATM   12  O   UNL     1     -10.017  12.390  67.233  1.00  0.00    -0.204 OA 
BRANCH  12  13
HETATM   13  C   UNL     1     -10.602  13.431  67.927  1.00  0.00    -0.245 A  
HETATM   14  C   UNL     1     -12.098  14.270  69.646  1.00  0.00    -0.396 A  
HETATM   15  C   UNL     1     -11.477  13.209  68.997  1.00  0.00    -0.345 A  
HETATM   16  C   UNL     1     -11.834  15.576  69.246  1.00  0.00    -0.372 A  
HETATM   17  C   UNL     1     -10.913  15.841  68.229  1.00  0.00    -0.325 A  
HETATM   18  C   UNL     1     -10.641  17.170  67.873  1.00  0.00    -0.376 A  
HETATM   19  C   UNL     1      -9.692  17.475  66.901  1.00  0.00    -0.291 A  
HETATM   20  C   UNL     1      -9.003  16.445  66.274  1.00  0.00    -0.368 A  
HETATM   21  C   UNL     1      -9.283  15.109  66.596  1.00  0.00    -0.298 A  
HETATM   22  C   UNL     1     -10.255  14.767  67.568  1.00  0.00    -0.233 A  
ENDBRANCH  12  13
ENDBRANCH   6  12
ENDBRANCH   5   6
ENDBRANCH   4   5
ENDBRANCH   2   4
TORSDOF 6
ENDMDL
MODEL       47
REMARK 921   NORMALIZED FREE ENERGY PREDICTED BY IDOCK:   -5.19 KCAL/MOL
REMARK 922        TOTAL FREE ENERGY PREDICTED BY IDOCK:   -7.91 KCAL/MOL
REMARK 923 INTER-LIGAND FREE ENERGY PREDICTED BY IDOCK:   -7.35 KCAL/MOL
REMARK 924 INTRA-LIGAND FREE ENERGY PREDICTED BY IDOCK:   -0.56 KCAL/MOL
REMARK 927      BINDING AFFINITY PREDICTED BY RF-SCORE:    0.00 PKD
ROOT
HETATM    1  C   UNL     1     -10.220   9.937  65.944  1.00  0.00    -0.194 C  
HETATM    2  N   UNL     1      -9.418  11.122  66.244  1.00  0.00    -0.190 NA 
HETATM    3  H   UNL     1      -9.892  11.979  65.959  1.00  0.00     0.000 HD 
ENDROOT
BRANCH   2   4
HETATM    4  C   UNL     1      -9.044  11.156  67.662  1.00  0.00    -0.147 C  
BRANCH   4   5
HETATM    5  C   UNL     1      -8.812  12.576  68.204  1.00  0.00    -0.191 C  
BRANCH   5   6
HETATM    6  C   UNL     1     -10.056  13.468  68.364  1.00  0.00    -0.240 C  
BRANCH   6   7
HETATM    7  C   UNL     1     -10.176  14.498  67.256  1.00  0.00    -0.255 A  
HETATM    8  C   UNL     1     -10.940  15.766  65.270  1.00  0.00    -0.344 A  
HETATM    9  S   UNL     1     -11.441  14.358  66.096  1.00  0.00    -0.363 SA 
HETATM   10  C   UNL     1      -9.378  15.596  66.982  1.00  0.00    -0.241 A  
HETATM   11  C   UNL     1      -9.822  16.328  65.841  1.00  0.00    -0.365 A  
ENDBRANCH   6   7
BRANCH   6  12
HETATM   12  O   UNL     1     -11.254  12.648  68.292  1.00  0.00    -0.237 OA 
BRANCH  12  13
HETATM   13  C   UNL     1     -11.841  12.286  69.488  1.00  0.00    -0.315 A  
HETATM   14  C   UNL     1     -12.527  10.603  71.099  1.00  0.00    -0.523 A  
HETATM   15  C   UNL     1     -11.883  10.954  69.918  1.00  0.00    -0.427 A  
HETATM   16  C   UNL     1     -13.122  11.587  71.882  1.00  0.00    -0.492 A  
HETATM   17  C   UNL     1     -13.040  12.935  71.521  1.00  0.00    -0.390 A  
HETATM   18  C   UNL     1     -13.619  13.907  72.351  1.00  0.00    -0.676 A  
HETATM   19  C   UNL     1     -13.513  15.263  72.052  1.00  0.00    -0.547 A  
HETATM   20  C   UNL     1     -12.821  15.659  70.915  1.00  0.00    -0.498 A  
HETATM   21  C   UNL     1     -12.262  14.699  70.058  1.00  0.00    -0.385 A  
HETATM   22  C   UNL     1     -12.368  13.312  70.327  1.00  0.00    -0.334 A  
ENDBRANCH  12  13
ENDBRANCH   6  12
ENDBRANCH   5   6
ENDBRANCH   4   5
ENDBRANCH   2   4
TORSDOF 6
ENDMDL
MODEL       48
REMARK 921   NORMALIZED FREE ENERGY PREDICTED BY IDOCK:   -5.19 KCAL/MOL
REMARK 922        TOTAL FREE ENERGY PREDICTED BY IDOCK:   -7.91 KCAL/MOL
REMARK 923 INTER-LIGAND FREE ENERGY PREDICTED BY IDOCK:   -6.93 KCAL/MOL
REMARK 924 INTRA-LIGAND FREE ENERGY PREDICTED BY IDOCK:   -0.99 KCAL/MOL
REMARK 927      BINDING AFFINITY PREDICTED BY RF-SCORE:    0.00 PKD
ROOT
HETATM    1  C   UNL     1     -11.249  11.701  69.246  1.00  0.00    -0.265 C  
HETATM    2  N   UNL     1     -11.028  13.042  69.783  1.00  0.00    -0.413 NA 
HETATM    3  H   UNL     1     -10.069  13.354  69.633  1.00  0.00     0.000 HD 
ENDROOT
BRANCH   2   4
HETATM    4  C   UNL     1     -11.999  13.994  69.231  1.00  0.00    -0.353 C  
BRANCH   4   5
HETATM    5  C   UNL     1     -11.444  15.421  69.080  1.00  0.00    -0.349 C  
BRANCH   5   6
HETATM    6  C   UNL     1     -10.972  15.835  67.675  1.00  0.00    -0.302 C  
BRANCH   6   7
HETATM    7  C   UNL     1     -10.039  17.032  67.709  1.00  0.00    -0.302 A  
HETATM    8  C   UNL     1      -8.886  19.155  67.163  1.00  0.00    -0.288 A  
HETATM    9  S   UNL     1     -10.144  18.228  66.474  1.00  0.00    -0.402 SA 
HETATM   10  C   UNL     1      -9.034  17.341  68.608  1.00  0.00    -0.265 A  
HETATM   11  C   UNL     1      -8.373  18.566  68.296  1.00  0.00    -0.344 A  
ENDBRANCH   6   7
BRANCH   6  12
HETATM   12  O   UNL     1     -10.219  14.746  67.075  1.00  0.00    -0.249 OA 
BRANCH  12  13
HETATM   13  C   UNL     1     -10.738  14.179  65.928  1.00  0.00    -0.298 A  
HETATM   14  C   UNL     1     -12.199  14.253  63.990  1.00  0.00    -0.336 A  
HETATM   15  C   UNL     1     -11.647  14.863  65.111  1.00  0.00    -0.330 A  
HETATM   16  C   UNL     1     -11.833  12.954  63.657  1.00  0.00    -0.599 A  
HETATM   17  C   UNL     1     -10.876  12.265  64.408  1.00  0.00    -0.370 A  
HETATM   18  C   UNL     1     -10.500  10.969  64.025  1.00  0.00    -0.433 A  
HETATM   19  C   UNL     1      -9.513  10.272  64.717  1.00  0.00    -0.341 A  
HETATM   20  C   UNL     1      -8.890  10.871  65.804  1.00  0.00    -0.202 A  
HETATM   21  C   UNL     1      -9.275  12.155  66.219  1.00  0.00    -0.183 A  
HETATM   22  C   UNL     1     -10.287  12.881  65.546  1.00  0.00    -0.304 A  
ENDBRANCH  12  13
ENDBRANCH   6  12
ENDBRANCH   5   6
ENDBRANCH   4   5
ENDBRANCH   2   4
TORSDOF 6
ENDMDL
MODEL       49
REMARK 921   NORMALIZED FREE ENERGY PREDICTED BY IDOCK:   -5.18 KCAL/MOL
REMARK 922        TOTAL FREE ENERGY PREDICTED BY IDOCK:   -7.90 KCAL/MOL
REMARK 923 INTER-LIGAND FREE ENERGY PREDICTED BY IDOCK:   -6.80 KCAL/MOL
REMARK 924 INTRA-LIGAND FREE ENERGY PREDICTED BY IDOCK:   -1.10 KCAL/MOL
REMARK 927      BINDING AFFINITY PREDICTED BY RF-SCORE:    0.00 PKD
ROOT
HETATM    1  C   UNL     1     -12.977  10.387  70.846  1.00  0.00    -0.387 C  
HETATM    2  N   UNL     1     -12.723  10.654  69.432  1.00  0.00    -0.628 NA 
HETATM    3  H   UNL     1     -13.575  10.578  68.875  1.00  0.00     0.000 HD 
ENDROOT
BRANCH   2   4
HETATM    4  C   UNL     1     -12.075  11.958  69.252  1.00  0.00    -0.210 C  
BRANCH   4   5
HETATM    5  C   UNL     1     -10.991  11.961  68.160  1.00  0.00    -0.272 C  
BRANCH   5   6
HETATM    6  C   UNL     1     -10.937  10.733  67.235  1.00  0.00    -0.297 C  
BRANCH   6   7
HETATM    7  C   UNL     1     -10.642  11.107  65.794  1.00  0.00    -0.227 A  
HETATM    8  C   UNL     1     -10.508  12.323  63.640  1.00  0.00    -0.450 A  
HETATM    9  S   UNL     1     -11.167  12.630  65.185  1.00  0.00    -0.312 SA 
HETATM   10  C   UNL     1      -9.999  10.379  64.807  1.00  0.00    -0.409 A  
HETATM   11  C   UNL     1      -9.919  11.082  63.568  1.00  0.00    -0.421 A  
ENDBRANCH   6   7
BRANCH   6  12
HETATM   12  O   UNL     1      -9.859   9.854  67.658  1.00  0.00    -0.154 OA 
BRANCH  12  13
HETATM   13  C   UNL     1     -10.209   8.584  68.071  1.00  0.00    -0.213 A  
HETATM   14  C   UNL     1     -11.002   6.336  67.606  1.00  0.00    -0.438 A  
HETATM   15  C   UNL     1     -10.602   7.591  67.164  1.00  0.00    -0.415 A  
HETATM   16  C   UNL     1     -10.996   6.046  68.966  1.00  0.00    -0.409 A  
HETATM   17  C   UNL     1     -10.544   6.987  69.896  1.00  0.00    -0.249 A  
HETATM   18  C   UNL     1     -10.514   6.651  71.258  1.00  0.00    -0.244 A  
HETATM   19  C   UNL     1     -10.022   7.542  72.208  1.00  0.00    -0.226 A  
HETATM   20  C   UNL     1      -9.551   8.784  71.800  1.00  0.00    -0.371 A  
HETATM   21  C   UNL     1      -9.601   9.147  70.446  1.00  0.00    -0.268 A  
HETATM   22  C   UNL     1     -10.112   8.268  69.459  1.00  0.00    -0.197 A  
ENDBRANCH  12  13
ENDBRANCH   6  12
ENDBRANCH   5   6
ENDBRANCH   4   5
ENDBRANCH   2   4
TORSDOF 6
ENDMDL
MODEL       50
REMARK 921   NORMALIZED FREE ENERGY PREDICTED BY IDOCK:   -5.18 KCAL/MOL
REMARK 922        TOTAL FREE ENERGY PREDICTED BY IDOCK:   -7.89 KCAL/MOL
REMARK 923 INTER-LIGAND FREE ENERGY PREDICTED BY IDOCK:   -7.20 KCAL/MOL
REMARK 924 INTRA-LIGAND FREE ENERGY PREDICTED BY IDOCK:   -0.69 KCAL/MOL
REMARK 927      BINDING AFFINITY PREDICTED BY RF-SCORE:    0.00 PKD
ROOT
HETATM    1  C   UNL     1     -12.033  16.141  72.361  1.00  0.00    -0.554 C  
HETATM    2  N   UNL     1     -11.954  14.738  71.960  1.00  0.00    -0.331 NA 
HETATM    3  H   UNL     1     -12.204  14.113  72.726  1.00  0.00     0.000 HD 
ENDROOT
BRANCH   2   4
HETATM    4  C   UNL     1     -12.773  14.487  70.768  1.00  0.00    -0.360 C  
BRANCH   4   5
HETATM    5  C   UNL     1     -12.121  13.517  69.768  1.00  0.00    -0.381 C  
BRANCH   5   6
HETATM    6  C   UNL     1     -11.740  14.092  68.393  1.00  0.00    -0.354 C  
BRANCH   6   7
HETATM    7  C   UNL     1     -10.783  15.265  68.501  1.00  0.00    -0.247 A  
HETATM    8  C   UNL     1      -8.748  16.645  68.803  1.00  0.00    -0.260 A  
HETATM    9  S   UNL     1      -9.120  14.979  68.848  1.00  0.00    -0.198 SA 
HETATM   10  C   UNL     1     -11.034  16.621  68.384  1.00  0.00    -0.345 A  
HETATM   11  C   UNL     1      -9.860  17.415  68.553  1.00  0.00    -0.320 A  
ENDBRANCH   6   7
BRANCH   6  12
HETATM   12  O   UNL     1     -11.053  13.075  67.614  1.00  0.00    -0.250 OA 
BRANCH  12  13
HETATM   13  C   UNL     1     -11.285  13.061  66.253  1.00  0.00    -0.301 A  
HETATM   14  C   UNL     1     -12.435  13.888  64.280  1.00  0.00    -0.305 A  
HETATM   15  C   UNL     1     -12.175  13.955  65.645  1.00  0.00    -0.477 A  
HETATM   16  C   UNL     1     -11.791  12.937  63.498  1.00  0.00    -0.605 A  
HETATM   17  C   UNL     1     -10.843  12.073  64.057  1.00  0.00    -0.433 A  
HETATM   18  C   UNL     1     -10.182  11.149  63.234  1.00  0.00    -0.403 A  
HETATM   19  C   UNL     1      -9.196  10.309  63.744  1.00  0.00    -0.312 A  
HETATM   20  C   UNL     1      -8.860  10.389  65.090  1.00  0.00    -0.207 A  
HETATM   21  C   UNL     1      -9.532  11.287  65.932  1.00  0.00    -0.247 A  
HETATM   22  C   UNL     1     -10.551  12.142  65.446  1.00  0.00    -0.309 A  
ENDBRANCH  12  13
ENDBRANCH   6  12
ENDBRANCH   5   6
ENDBRANCH   4   5
ENDBRANCH   2   4
TORSDOF 6
ENDMDL
MODEL       51
REMARK 921   NORMALIZED FREE ENERGY PREDICTED BY IDOCK:   -5.17 KCAL/MOL
REMARK 922        TOTAL FREE ENERGY PREDICTED BY IDOCK:   -7.89 KCAL/MOL
REMARK 923 INTER-LIGAND FREE ENERGY PREDICTED BY IDOCK:   -6.77 KCAL/MOL
REMARK 924 INTRA-LIGAND FREE ENERGY PREDICTED BY IDOCK:   -1.12 KCAL/MOL
REMARK 927      BINDING AFFINITY PREDICTED BY RF-SCORE:    0.00 PKD
ROOT
HETATM    1  C   UNL     1      -7.922  13.441  67.753  1.00  0.00    -0.167 C  
HETATM    2  N   UNL     1      -8.988  13.780  68.695  1.00  0.00    -0.348 NA 
HETATM    3  H   UNL     1      -8.628  14.286  69.504  1.00  0.00     0.000 HD 
ENDROOT
BRANCH   2   4
HETATM    4  C   UNL     1     -10.063  14.522  68.026  1.00  0.00    -0.226 C  
BRANCH   4   5
HETATM    5  C   UNL     1     -11.469  13.986  68.343  1.00  0.00    -0.340 C  
BRANCH   5   6
HETATM    6  C   UNL     1     -11.825  12.599  67.783  1.00  0.00    -0.323 C  
BRANCH   6   7
HETATM    7  C   UNL     1     -11.627  12.513  66.280  1.00  0.00    -0.394 A  
HETATM    8  C   UNL     1     -11.751  12.945  63.844  1.00  0.00    -0.460 A  
HETATM    9  S   UNL     1     -12.427  13.638  65.250  1.00  0.00    -0.475 SA 
HETATM   10  C   UNL     1     -10.881  11.614  65.539  1.00  0.00    -0.334 A  
HETATM   11  C   UNL     1     -10.949  11.865  64.136  1.00  0.00    -0.430 A  
ENDBRANCH   6   7
BRANCH   6  12
HETATM   12  O   UNL     1     -10.948  11.599  68.368  1.00  0.00    -0.193 OA 
BRANCH  12  13
HETATM   13  C   UNL     1     -11.417  10.921  69.475  1.00  0.00    -0.301 A  
HETATM   14  C   UNL     1     -13.190  10.366  71.039  1.00  0.00    -0.361 A  
HETATM   15  C   UNL     1     -12.751  11.014  69.890  1.00  0.00    -0.103 A  
HETATM   16  C   UNL     1     -12.302   9.596  71.782  1.00  0.00    -0.474 A  
HETATM   17  C   UNL     1     -10.980   9.422  71.361  1.00  0.00    -0.443 A  
HETATM   18  C   UNL     1     -10.119   8.608  72.112  1.00  0.00    -0.388 A  
HETATM   19  C   UNL     1      -8.812   8.369  71.697  1.00  0.00    -0.246 A  
HETATM   20  C   UNL     1      -8.353   8.946  70.519  1.00  0.00    -0.177 A  
HETATM   21  C   UNL     1      -9.192   9.786  69.772  1.00  0.00    -0.248 A  
HETATM   22  C   UNL     1     -10.521  10.061  70.177  1.00  0.00    -0.338 A  
ENDBRANCH  12  13
ENDBRANCH   6  12
ENDBRANCH   5   6
ENDBRANCH   4   5
ENDBRANCH   2   4
TORSDOF 6
ENDMDL
MODEL       52
REMARK 921   NORMALIZED FREE ENERGY PREDICTED BY IDOCK:   -5.17 KCAL/MOL
REMARK 922        TOTAL FREE ENERGY PREDICTED BY IDOCK:   -7.88 KCAL/MOL
REMARK 923 INTER-LIGAND FREE ENERGY PREDICTED BY IDOCK:   -6.96 KCAL/MOL
REMARK 924 INTRA-LIGAND FREE ENERGY PREDICTED BY IDOCK:   -0.92 KCAL/MOL
REMARK 927      BINDING AFFINITY PREDICTED BY RF-SCORE:    0.00 PKD
ROOT
HETATM    1  C   UNL     1      -9.491  11.578  62.957  1.00  0.00    -0.320 C  
HETATM    2  N   UNL     1      -9.914  12.776  63.681  1.00  0.00    -0.715 NA 
HETATM    3  H   UNL     1     -10.224  13.511  63.045  1.00  0.00     0.000 HD 
ENDROOT
BRANCH   2   4
HETATM    4  C   UNL     1     -10.944  12.451  64.675  1.00  0.00    -0.305 C  
BRANCH   4   5
HETATM    5  C   UNL     1     -10.603  11.221  65.533  1.00  0.00    -0.306 C  
BRANCH   5   6
HETATM    6  C   UNL     1     -10.341  11.471  67.028  1.00  0.00    -0.220 C  
BRANCH   6   7
HETATM    7  C   UNL     1      -9.007  12.151  67.276  1.00  0.00    -0.184 A  
HETATM    8  C   UNL     1      -6.583  12.603  67.505  1.00  0.00    -0.156 A  
HETATM    9  S   UNL     1      -7.547  11.255  67.095  1.00  0.00    -0.144 SA 
HETATM   10  C   UNL     1      -8.740  13.451  67.670  1.00  0.00    -0.198 A  
HETATM   11  C   UNL     1      -7.343  13.712  67.798  1.00  0.00    -0.170 A  
ENDBRANCH   6   7
BRANCH   6  12
HETATM   12  O   UNL     1     -11.359  12.362  67.558  1.00  0.00    -0.274 OA 
BRANCH  12  13
HETATM   13  C   UNL     1     -11.803  12.117  68.843  1.00  0.00    -0.304 A  
HETATM   14  C   UNL     1     -12.511  10.595  70.598  1.00  0.00    -0.462 A  
HETATM   15  C   UNL     1     -12.011  10.817  69.319  1.00  0.00    -0.334 A  
HETATM   16  C   UNL     1     -12.790  11.674  71.429  1.00  0.00    -0.461 A  
HETATM   17  C   UNL     1     -12.529  12.983  71.015  1.00  0.00    -0.385 A  
HETATM   18  C   UNL     1     -12.786  14.048  71.891  1.00  0.00    -0.421 A  
HETATM   19  C   UNL     1     -12.491  15.361  71.533  1.00  0.00    -0.450 A  
HETATM   20  C   UNL     1     -11.930  15.620  70.289  1.00  0.00    -0.398 A  
HETATM   21  C   UNL     1     -11.694  14.570  69.389  1.00  0.00    -0.361 A  
HETATM   22  C   UNL     1     -12.000  13.227  69.718  1.00  0.00    -0.391 A  
ENDBRANCH  12  13
ENDBRANCH   6  12
ENDBRANCH   5   6
ENDBRANCH   4   5
ENDBRANCH   2   4
TORSDOF 6
ENDMDL
MODEL       53
REMARK 921   NORMALIZED FREE ENERGY PREDICTED BY IDOCK:   -5.16 KCAL/MOL
REMARK 922        TOTAL FREE ENERGY PREDICTED BY IDOCK:   -7.86 KCAL/MOL
REMARK 923 INTER-LIGAND FREE ENERGY PREDICTED BY IDOCK:   -7.31 KCAL/MOL
REMARK 924 INTRA-LIGAND FREE ENERGY PREDICTED BY IDOCK:   -0.56 KCAL/MOL
REMARK 927      BINDING AFFINITY PREDICTED BY RF-SCORE:    0.00 PKD
ROOT
HETATM    1  C   UNL     1      -9.887   8.070  69.529  1.00  0.00    -0.181 C  
HETATM    2  N   UNL     1     -10.843   7.726  68.478  1.00  0.00    -0.417 NA 
HETATM    3  H   UNL     1     -11.806   7.781  68.811  1.00  0.00     0.000 HD 
ENDROOT
BRANCH   2   4
HETATM    4  C   UNL     1     -10.634   8.558  67.287  1.00  0.00    -0.245 C  
BRANCH   4   5
HETATM    5  C   UNL     1      -9.878   9.866  67.576  1.00  0.00    -0.209 C  
BRANCH   5   6
HETATM    6  C   UNL     1     -10.682  11.172  67.461  1.00  0.00    -0.236 C  
BRANCH   6   7
HETATM    7  C   UNL     1     -10.820  11.642  66.024  1.00  0.00    -0.289 A  
HETATM    8  C   UNL     1     -10.435  12.022  63.607  1.00  0.00    -0.454 A  
HETATM    9  S   UNL     1      -9.641  11.174  64.858  1.00  0.00    -0.240 SA 
HETATM   10  C   UNL     1     -11.781  12.455  65.450  1.00  0.00    -0.452 A  
HETATM   11  C   UNL     1     -11.562  12.670  64.057  1.00  0.00    -0.486 A  
ENDBRANCH   6   7
BRANCH   6  12
HETATM   12  O   UNL     1     -12.033  10.956  67.951  1.00  0.00    -0.585 OA 
BRANCH  12  13
HETATM   13  C   UNL     1     -12.282  11.275  69.271  1.00  0.00    -0.222 A  
HETATM   14  C   UNL     1     -12.846  10.640  71.546  1.00  0.00    -0.567 A  
HETATM   15  C   UNL     1     -12.544  10.293  70.234  1.00  0.00    -0.212 A  
HETATM   16  C   UNL     1     -12.870  11.979  71.920  1.00  0.00    -0.338 A  
HETATM   17  C   UNL     1     -12.546  12.984  71.004  1.00  0.00    -0.386 A  
HETATM   18  C   UNL     1     -12.543  14.324  71.422  1.00  0.00    -0.434 A  
HETATM   19  C   UNL     1     -12.175  15.347  70.553  1.00  0.00    -0.436 A  
HETATM   20  C   UNL     1     -11.803  15.036  69.251  1.00  0.00    -0.344 A  
HETATM   21  C   UNL     1     -11.829  13.706  68.808  1.00  0.00    -0.395 A  
HETATM   22  C   UNL     1     -12.215  12.645  69.664  1.00  0.00    -0.177 A  
ENDBRANCH  12  13
ENDBRANCH   6  12
ENDBRANCH   5   6
ENDBRANCH   4   5
ENDBRANCH   2   4
TORSDOF 6
ENDMDL
MODEL       54
REMARK 921   NORMALIZED FREE ENERGY PREDICTED BY IDOCK:   -5.15 KCAL/MOL
REMARK 922        TOTAL FREE ENERGY PREDICTED BY IDOCK:   -7.86 KCAL/MOL
REMARK 923 INTER-LIGAND FREE ENERGY PREDICTED BY IDOCK:   -7.18 KCAL/MOL
REMARK 924 INTRA-LIGAND FREE ENERGY PREDICTED BY IDOCK:   -0.68 KCAL/MOL
REMARK 927      BINDING AFFINITY PREDICTED BY RF-SCORE:    0.00 PKD
ROOT
HETATM    1  C   UNL     1     -11.534  15.671  69.978  1.00  0.00    -0.344 C  
HETATM    2  N   UNL     1     -12.402  14.953  69.046  1.00  0.00    -0.589 NA 
HETATM    3  H   UNL     1     -13.317  15.397  68.965  1.00  0.00     0.000 HD 
ENDROOT
BRANCH   2   4
HETATM    4  C   UNL     1     -11.755  14.802  67.738  1.00  0.00    -0.343 C  
BRANCH   4   5
HETATM    5  C   UNL     1     -12.283  13.607  66.925  1.00  0.00    -0.398 C  
BRANCH   5   6
HETATM    6  C   UNL     1     -11.507  12.285  67.052  1.00  0.00    -0.354 C  
BRANCH   6   7
HETATM    7  C   UNL     1     -10.845  11.876  65.748  1.00  0.00    -0.295 A  
HETATM    8  C   UNL     1      -9.928  11.893  63.448  1.00  0.00    -0.410 A  
HETATM    9  S   UNL     1     -10.723  13.014  64.461  1.00  0.00    -0.405 SA 
HETATM   10  C   UNL     1     -10.305  10.656  65.379  1.00  0.00    -0.303 A  
HETATM   11  C   UNL     1      -9.772  10.668  64.055  1.00  0.00    -0.373 A  
ENDBRANCH   6   7
BRANCH   6  12
HETATM   12  O   UNL     1     -10.436  12.442  68.022  1.00  0.00    -0.205 OA 
BRANCH  12  13
HETATM   13  C   UNL     1     -10.075  11.323  68.746  1.00  0.00    -0.194 A  
HETATM   14  C   UNL     1      -8.543   9.503  69.230  1.00  0.00    -0.149 A  
HETATM   15  C   UNL     1      -8.862  10.659  68.527  1.00  0.00    -0.148 A  
HETATM   16  C   UNL     1      -9.426   9.003  70.180  1.00  0.00    -0.217 A  
HETATM   17  C   UNL     1     -10.614   9.677  70.477  1.00  0.00    -0.369 A  
HETATM   18  C   UNL     1     -11.467   9.168  71.467  1.00  0.00    -0.437 A  
HETATM   19  C   UNL     1     -12.633   9.839  71.827  1.00  0.00    -0.506 A  
HETATM   20  C   UNL     1     -12.956  11.033  71.194  1.00  0.00    -0.421 A  
HETATM   21  C   UNL     1     -12.130  11.540  70.180  1.00  0.00    -0.432 A  
HETATM   22  C   UNL     1     -10.947  10.872  69.782  1.00  0.00    -0.290 A  
ENDBRANCH  12  13
ENDBRANCH   6  12
ENDBRANCH   5   6
ENDBRANCH   4   5
ENDBRANCH   2   4
TORSDOF 6
ENDMDL
MODEL       55
REMARK 921   NORMALIZED FREE ENERGY PREDICTED BY IDOCK:   -5.14 KCAL/MOL
REMARK 922        TOTAL FREE ENERGY PREDICTED BY IDOCK:   -7.84 KCAL/MOL
REMARK 923 INTER-LIGAND FREE ENERGY PREDICTED BY IDOCK:   -7.26 KCAL/MOL
REMARK 924 INTRA-LIGAND FREE ENERGY PREDICTED BY IDOCK:   -0.59 KCAL/MOL
REMARK 927      BINDING AFFINITY PREDICTED BY RF-SCORE:    0.00 PKD
ROOT
HETATM    1  C   UNL     1      -8.937  18.604  68.562  1.00  0.00    -0.334 C  
HETATM    2  N   UNL     1     -10.300  18.125  68.338  1.00  0.00    -0.375 NA 
HETATM    3  H   UNL     1     -10.719  18.554  67.513  1.00  0.00     0.000 HD 
ENDROOT
BRANCH   2   4
HETATM    4  C   UNL     1     -10.335  16.661  68.264  1.00  0.00    -0.304 C  
BRANCH   4   5
HETATM    5  C   UNL     1     -11.736  16.067  68.488  1.00  0.00    -0.244 C  
BRANCH   5   6
HETATM    6  C   UNL     1     -11.831  14.850  69.424  1.00  0.00    -0.324 C  
BRANCH   6   7
HETATM    7  C   UNL     1     -12.517  15.182  70.737  1.00  0.00    -0.372 A  
HETATM    8  C   UNL     1     -12.966  15.946  73.051  1.00  0.00    -0.530 A  
HETATM    9  S   UNL     1     -11.603  15.869  72.025  1.00  0.00    -0.380 SA 
HETATM   10  C   UNL     1     -13.836  14.997  71.115  1.00  0.00    -0.468 A  
HETATM   11  C   UNL     1     -14.095  15.442  72.446  1.00  0.00    -0.645 A  
ENDBRANCH   6   7
BRANCH   6  12
HETATM   12  O   UNL     1     -12.633  13.814  68.795  1.00  0.00     0.039 OA 
BRANCH  12  13
HETATM   13  C   UNL     1     -11.977  12.926  67.966  1.00  0.00    -0.275 A  
HETATM   14  C   UNL     1     -11.095  12.295  65.794  1.00  0.00    -0.362 A  
HETATM   15  C   UNL     1     -11.708  13.225  66.625  1.00  0.00    -0.425 A  
HETATM   16  C   UNL     1     -10.719  11.055  66.300  1.00  0.00    -0.273 A  
HETATM   17  C   UNL     1     -10.907  10.747  67.650  1.00  0.00    -0.332 A  
HETATM   18  C   UNL     1     -10.484   9.502  68.139  1.00  0.00    -0.268 A  
HETATM   19  C   UNL     1     -10.606   9.179  69.488  1.00  0.00    -0.233 A  
HETATM   20  C   UNL     1     -11.155  10.106  70.364  1.00  0.00    -0.393 A  
HETATM   21  C   UNL     1     -11.610  11.345  69.887  1.00  0.00    -0.402 A  
HETATM   22  C   UNL     1     -11.515  11.695  68.518  1.00  0.00    -0.358 A  
ENDBRANCH  12  13
ENDBRANCH   6  12
ENDBRANCH   5   6
ENDBRANCH   4   5
ENDBRANCH   2   4
TORSDOF 6
ENDMDL
MODEL       56
REMARK 921   NORMALIZED FREE ENERGY PREDICTED BY IDOCK:   -5.12 KCAL/MOL
REMARK 922        TOTAL FREE ENERGY PREDICTED BY IDOCK:   -7.82 KCAL/MOL
REMARK 923 INTER-LIGAND FREE ENERGY PREDICTED BY IDOCK:   -7.17 KCAL/MOL
REMARK 924 INTRA-LIGAND FREE ENERGY PREDICTED BY IDOCK:   -0.65 KCAL/MOL
REMARK 927      BINDING AFFINITY PREDICTED BY RF-SCORE:    0.00 PKD
ROOT
HETATM    1  C   UNL     1     -10.177   7.817  69.388  1.00  0.00    -0.208 C  
HETATM    2  N   UNL     1     -10.974   7.422  68.228  1.00  0.00    -0.449 NA 
HETATM    3  H   UNL     1     -11.974   7.464  68.426  1.00  0.00     0.000 HD 
ENDROOT
BRANCH   2   4
HETATM    4  C   UNL     1     -10.622   8.224  67.051  1.00  0.00    -0.258 C  
BRANCH   4   5
HETATM    5  C   UNL     1      -9.690   9.406  67.369  1.00  0.00    -0.205 C  
BRANCH   5   6
HETATM    6  C   UNL     1     -10.165  10.801  66.927  1.00  0.00    -0.227 C  
BRANCH   6   7
HETATM    7  C   UNL     1     -10.145  10.968  65.418  1.00  0.00    -0.269 A  
HETATM    8  C   UNL     1      -9.561  10.771  63.019  1.00  0.00    -0.353 A  
HETATM    9  S   UNL     1      -8.976  10.115  64.483  1.00  0.00    -0.242 SA 
HETATM   10  C   UNL     1     -10.942  11.756  64.608  1.00  0.00    -0.368 A  
HETATM   11  C   UNL     1     -10.609  11.639  63.225  1.00  0.00    -0.420 A  
ENDBRANCH   6   7
BRANCH   6  12
HETATM   12  O   UNL     1     -11.544  10.999  67.342  1.00  0.00    -0.525 OA 
BRANCH  12  13
HETATM   13  C   UNL     1     -11.754  11.697  68.514  1.00  0.00    -0.315 A  
HETATM   14  C   UNL     1     -12.289  11.769  70.882  1.00  0.00    -0.420 A  
HETATM   15  C   UNL     1     -12.027  11.046  69.724  1.00  0.00    -0.428 A  
HETATM   16  C   UNL     1     -12.262  13.159  70.852  1.00  0.00    -0.330 A  
HETATM   17  C   UNL     1     -11.925  13.843  69.680  1.00  0.00    -0.399 A  
HETATM   18  C   UNL     1     -11.870  15.245  69.690  1.00  0.00    -0.363 A  
HETATM   19  C   UNL     1     -11.487  15.958  68.558  1.00  0.00    -0.377 A  
HETATM   20  C   UNL     1     -11.154  15.270  67.398  1.00  0.00    -0.326 A  
HETATM   21  C   UNL     1     -11.232  13.870  67.361  1.00  0.00    -0.330 A  
HETATM   22  C   UNL     1     -11.634  13.118  68.492  1.00  0.00    -0.361 A  
ENDBRANCH  12  13
ENDBRANCH   6  12
ENDBRANCH   5   6
ENDBRANCH   4   5
ENDBRANCH   2   4
TORSDOF 6
ENDMDL
MODEL       57
REMARK 921   NORMALIZED FREE ENERGY PREDICTED BY IDOCK:   -5.12 KCAL/MOL
REMARK 922        TOTAL FREE ENERGY PREDICTED BY IDOCK:   -7.82 KCAL/MOL
REMARK 923 INTER-LIGAND FREE ENERGY PREDICTED BY IDOCK:   -6.88 KCAL/MOL
REMARK 924 INTRA-LIGAND FREE ENERGY PREDICTED BY IDOCK:   -0.94 KCAL/MOL
REMARK 927      BINDING AFFINITY PREDICTED BY RF-SCORE:    0.00 PKD
ROOT
HETATM    1  C   UNL     1      -7.179  10.994  66.907  1.00  0.00    -0.133 C  
HETATM    2  N   UNL     1      -8.023  12.167  66.685  1.00  0.00    -0.384 NA 
HETATM    3  H   UNL     1      -8.973  11.904  66.423  1.00  0.00     0.000 HD 
ENDROOT
BRANCH   2   4
HETATM    4  C   UNL     1      -8.010  13.051  67.856  1.00  0.00    -0.157 C  
BRANCH   4   5
HETATM    5  C   UNL     1      -9.041  14.190  67.779  1.00  0.00    -0.190 C  
BRANCH   5   6
HETATM    6  C   UNL     1     -10.524  13.789  67.865  1.00  0.00    -0.246 C  
BRANCH   6   7
HETATM    7  C   UNL     1     -11.178  13.697  66.499  1.00  0.00    -0.310 A  
HETATM    8  C   UNL     1     -12.188  12.836  64.407  1.00  0.00    -0.428 A  
HETATM    9  S   UNL     1     -11.512  12.150  65.817  1.00  0.00    -0.337 SA 
HETATM   10  C   UNL     1     -11.560  14.707  65.634  1.00  0.00    -0.328 A  
HETATM   11  C   UNL     1     -12.146  14.211  64.432  1.00  0.00    -0.486 A  
ENDBRANCH   6   7
BRANCH   6  12
HETATM   12  O   UNL     1     -10.637  12.470  68.463  1.00  0.00    -0.234 OA 
BRANCH  12  13
HETATM   13  C   UNL     1     -11.460  12.346  69.564  1.00  0.00    -0.240 A  
HETATM   14  C   UNL     1     -12.931  13.305  71.242  1.00  0.00    -0.353 A  
HETATM   15  C   UNL     1     -12.150  13.441  70.100  1.00  0.00    -0.415 A  
HETATM   16  C   UNL     1     -13.051  12.063  71.855  1.00  0.00    -0.475 A  
HETATM   17  C   UNL     1     -12.435  10.933  71.310  1.00  0.00    -0.493 A  
HETATM   18  C   UNL     1     -12.606   9.687  71.931  1.00  0.00    -0.481 A  
HETATM   19  C   UNL     1     -12.051   8.530  71.389  1.00  0.00    -0.345 A  
HETATM   20  C   UNL     1     -11.318   8.613  70.212  1.00  0.00    -0.146 A  
HETATM   21  C   UNL     1     -11.112   9.855  69.594  1.00  0.00    -0.279 A  
HETATM   22  C   UNL     1     -11.649  11.051  70.131  1.00  0.00    -0.421 A  
ENDBRANCH  12  13
ENDBRANCH   6  12
ENDBRANCH   5   6
ENDBRANCH   4   5
ENDBRANCH   2   4
TORSDOF 6
ENDMDL
MODEL       58
REMARK 921   NORMALIZED FREE ENERGY PREDICTED BY IDOCK:   -5.12 KCAL/MOL
REMARK 922        TOTAL FREE ENERGY PREDICTED BY IDOCK:   -7.82 KCAL/MOL
REMARK 923 INTER-LIGAND FREE ENERGY PREDICTED BY IDOCK:   -7.30 KCAL/MOL
REMARK 924 INTRA-LIGAND FREE ENERGY PREDICTED BY IDOCK:   -0.52 KCAL/MOL
REMARK 927      BINDING AFFINITY PREDICTED BY RF-SCORE:    0.00 PKD
ROOT
HETATM    1  C   UNL     1      -5.721  15.908  67.917  1.00  0.00    -0.140 C  
HETATM    2  N   UNL     1      -6.922  15.315  68.503  1.00  0.00    -0.109 NA 
HETATM    3  H   UNL     1      -6.714  14.821  69.370  1.00  0.00     0.000 HD 
ENDROOT
BRANCH   2   4
HETATM    4  C   UNL     1      -7.967  16.328  68.694  1.00  0.00    -0.215 C  
BRANCH   4   5
HETATM    5  C   UNL     1      -9.374  15.734  68.875  1.00  0.00    -0.228 C  
BRANCH   5   6
HETATM    6  C   UNL     1     -10.541  16.732  68.969  1.00  0.00    -0.343 C  
BRANCH   6   7
HETATM    7  C   UNL     1     -10.367  17.915  68.033  1.00  0.00    -0.387 A  
HETATM    8  C   UNL     1      -9.952  20.184  67.133  1.00  0.00    -0.455 A  
HETATM    9  S   UNL     1      -9.978  19.463  68.680  1.00  0.00    -0.440 SA 
HETATM   10  C   UNL     1     -10.498  17.976  66.657  1.00  0.00    -0.332 A  
HETATM   11  C   UNL     1     -10.254  19.283  66.138  1.00  0.00    -0.549 A  
ENDBRANCH   6   7
BRANCH   6  12
HETATM   12  O   UNL     1     -11.775  16.075  68.574  1.00  0.00    -0.375 OA 
BRANCH  12  13
HETATM   13  C   UNL     1     -11.783  14.695  68.579  1.00  0.00    -0.316 A  
HETATM   14  C   UNL     1     -11.905  12.570  69.748  1.00  0.00    -0.380 A  
HETATM   15  C   UNL     1     -11.955  13.959  69.758  1.00  0.00    -0.398 A  
HETATM   16  C   UNL     1     -11.702  11.892  68.550  1.00  0.00    -0.388 A  
HETATM   17  C   UNL     1     -11.596  12.589  67.343  1.00  0.00    -0.434 A  
HETATM   18  C   UNL     1     -11.429  11.876  66.147  1.00  0.00    -0.352 A  
HETATM   19  C   UNL     1     -11.372  12.531  64.920  1.00  0.00    -0.351 A  
HETATM   20  C   UNL     1     -11.484  13.915  64.880  1.00  0.00    -0.354 A  
HETATM   21  C   UNL     1     -11.621  14.647  66.069  1.00  0.00    -0.328 A  
HETATM   22  C   UNL     1     -11.665  14.009  67.333  1.00  0.00    -0.421 A  
ENDBRANCH  12  13
ENDBRANCH   6  12
ENDBRANCH   5   6
ENDBRANCH   4   5
ENDBRANCH   2   4
TORSDOF 6
ENDMDL
MODEL       59
REMARK 921   NORMALIZED FREE ENERGY PREDICTED BY IDOCK:   -5.10 KCAL/MOL
REMARK 922        TOTAL FREE ENERGY PREDICTED BY IDOCK:   -7.79 KCAL/MOL
REMARK 923 INTER-LIGAND FREE ENERGY PREDICTED BY IDOCK:   -7.06 KCAL/MOL
REMARK 924 INTRA-LIGAND FREE ENERGY PREDICTED BY IDOCK:   -0.73 KCAL/MOL
REMARK 927      BINDING AFFINITY PREDICTED BY RF-SCORE:    0.00 PKD
ROOT
HETATM    1  C   UNL     1     -10.102  10.982  68.950  1.00  0.00    -0.199 C  
HETATM    2  N   UNL     1     -10.196  12.413  69.235  1.00  0.00    -0.335 NA 
HETATM    3  H   UNL     1      -9.773  12.973  68.495  1.00  0.00     0.000 HD 
ENDROOT
BRANCH   2   4
HETATM    4  C   UNL     1     -11.587  12.807  69.485  1.00  0.00    -0.276 C  
BRANCH   4   5
HETATM    5  C   UNL     1     -12.021  14.060  68.705  1.00  0.00    -0.389 C  
BRANCH   5   6
HETATM    6  C   UNL     1     -11.726  15.420  69.359  1.00  0.00    -0.351 C  
BRANCH   6   7
HETATM    7  C   UNL     1     -12.314  15.531  70.754  1.00  0.00    -0.414 A  
HETATM    8  C   UNL     1     -13.854  15.438  72.693  1.00  0.00    -0.529 A  
HETATM    9  S   UNL     1     -13.944  15.048  71.032  1.00  0.00    -0.161 SA 
HETATM   10  C   UNL     1     -11.737  16.004  71.920  1.00  0.00    -0.594 A  
HETATM   11  C   UNL     1     -12.622  15.946  73.037  1.00  0.00    -0.606 A  
ENDBRANCH   6   7
BRANCH   6  12
HETATM   12  O   UNL     1     -10.290  15.588  69.506  1.00  0.00    -0.234 OA 
BRANCH  12  13
HETATM   13  C   UNL     1      -9.592  16.029  68.399  1.00  0.00    -0.206 A  
HETATM   14  C   UNL     1      -8.206  15.608  66.450  1.00  0.00    -0.133 A  
HETATM   15  C   UNL     1      -8.950  15.140  67.527  1.00  0.00    -0.187 A  
HETATM   16  C   UNL     1      -8.111  16.975  66.215  1.00  0.00    -0.332 A  
HETATM   17  C   UNL     1      -8.795  17.889  67.021  1.00  0.00    -0.256 A  
HETATM   18  C   UNL     1      -8.710  19.260  66.736  1.00  0.00    -0.334 A  
HETATM   19  C   UNL     1      -9.418  20.196  67.485  1.00  0.00    -0.523 A  
HETATM   20  C   UNL     1     -10.224  19.765  68.530  1.00  0.00    -0.547 A  
HETATM   21  C   UNL     1     -10.298  18.400  68.848  1.00  0.00    -0.168 A  
HETATM   22  C   UNL     1      -9.576  17.426  68.116  1.00  0.00    -0.287 A  
ENDBRANCH  12  13
ENDBRANCH   6  12
ENDBRANCH   5   6
ENDBRANCH   4   5
ENDBRANCH   2   4
TORSDOF 6
ENDMDL
MODEL       60
REMARK 921   NORMALIZED FREE ENERGY PREDICTED BY IDOCK:   -5.06 KCAL/MOL
REMARK 922        TOTAL FREE ENERGY PREDICTED BY IDOCK:   -7.73 KCAL/MOL
REMARK 923 INTER-LIGAND FREE ENERGY PREDICTED BY IDOCK:   -6.95 KCAL/MOL
REMARK 924 INTRA-LIGAND FREE ENERGY PREDICTED BY IDOCK:   -0.78 KCAL/MOL
REMARK 927      BINDING AFFINITY PREDICTED BY RF-SCORE:    0.00 PKD
ROOT
HETATM    1  C   UNL     1     -14.335   7.322  71.764  1.00  0.00    -0.402 C  
HETATM    2  N   UNL     1     -13.672   8.503  72.314  1.00  0.00    -0.542 NA 
HETATM    3  H   UNL     1     -12.893   8.249  72.922  1.00  0.00     0.000 HD 
ENDROOT
BRANCH   2   4
HETATM    4  C   UNL     1     -13.249   9.413  71.243  1.00  0.00    -0.295 C  
BRANCH   4   5
HETATM    5  C   UNL     1     -11.734   9.678  71.224  1.00  0.00    -0.458 C  
BRANCH   5   6
HETATM    6  C   UNL     1     -11.139  10.199  69.905  1.00  0.00    -0.293 C  
BRANCH   6   7
HETATM    7  C   UNL     1     -10.731   9.075  68.970  1.00  0.00    -0.141 A  
HETATM    8  C   UNL     1      -9.996   6.886  68.073  1.00  0.00    -0.154 A  
HETATM    9  S   UNL     1     -10.288   7.543  69.622  1.00  0.00    -0.229 SA 
HETATM   10  C   UNL     1     -10.625   9.071  67.590  1.00  0.00    -0.298 A  
HETATM   11  C   UNL     1     -10.206   7.808  67.074  1.00  0.00    -0.375 A  
ENDBRANCH   6   7
BRANCH   6  12
HETATM   12  O   UNL     1     -12.138  10.979  69.195  1.00  0.00    -0.366 OA 
BRANCH  12  13
HETATM   13  C   UNL     1     -12.011  12.353  69.238  1.00  0.00    -0.253 A  
HETATM   14  C   UNL     1     -11.952  14.450  70.462  1.00  0.00    -0.395 A  
HETATM   15  C   UNL     1     -12.027  13.061  70.446  1.00  0.00    -0.337 A  
HETATM   16  C   UNL     1     -11.838  15.151  69.268  1.00  0.00    -0.347 A  
HETATM   17  C   UNL     1     -11.747  14.476  68.047  1.00  0.00    -0.373 A  
HETATM   18  C   UNL     1     -11.595  15.211  66.862  1.00  0.00    -0.160 A  
HETATM   19  C   UNL     1     -11.450  14.573  65.633  1.00  0.00    -0.341 A  
HETATM   20  C   UNL     1     -11.454  13.184  65.581  1.00  0.00    -0.351 A  
HETATM   21  C   UNL     1     -11.635  12.435  66.752  1.00  0.00    -0.444 A  
HETATM   22  C   UNL     1     -11.802  13.056  68.014  1.00  0.00    -0.391 A  
ENDBRANCH  12  13
ENDBRANCH   6  12
ENDBRANCH   5   6
ENDBRANCH   4   5
ENDBRANCH   2   4
TORSDOF 6
ENDMDL
MODEL       61
REMARK 921   NORMALIZED FREE ENERGY PREDICTED BY IDOCK:   -5.06 KCAL/MOL
REMARK 922        TOTAL FREE ENERGY PREDICTED BY IDOCK:   -7.73 KCAL/MOL
REMARK 923 INTER-LIGAND FREE ENERGY PREDICTED BY IDOCK:   -6.80 KCAL/MOL
REMARK 924 INTRA-LIGAND FREE ENERGY PREDICTED BY IDOCK:   -0.92 KCAL/MOL
REMARK 927      BINDING AFFINITY PREDICTED BY RF-SCORE:    0.00 PKD
ROOT
HETATM    1  C   UNL     1     -10.259  20.039  65.802  1.00  0.00    -0.351 C  
HETATM    2  N   UNL     1     -10.877  19.426  66.977  1.00  0.00    -0.473 NA 
HETATM    3  H   UNL     1     -10.962  18.415  66.873  1.00  0.00     0.000 HD 
ENDROOT
BRANCH   2   4
HETATM    4  C   UNL     1     -10.148  19.785  68.199  1.00  0.00    -0.452 C  
BRANCH   4   5
HETATM    5  C   UNL     1     -10.015  18.624  69.199  1.00  0.00    -0.237 C  
BRANCH   5   6
HETATM    6  C   UNL     1      -9.588  17.262  68.627  1.00  0.00    -0.284 C  
BRANCH   6   7
HETATM    7  C   UNL     1      -8.218  17.311  67.976  1.00  0.00    -0.223 A  
HETATM    8  C   UNL     1      -6.361  17.148  66.345  1.00  0.00    -0.182 A  
HETATM    9  S   UNL     1      -8.038  16.828  66.333  1.00  0.00    -0.331 SA 
HETATM   10  C   UNL     1      -6.999  17.683  68.515  1.00  0.00    -0.231 A  
HETATM   11  C   UNL     1      -5.930  17.594  67.574  1.00  0.00    -0.164 A  
ENDBRANCH   6   7
BRANCH   6  12
HETATM   12  O   UNL     1      -9.494  16.290  69.704  1.00  0.00    -0.146 OA 
BRANCH  12  13
HETATM   13  C   UNL     1     -10.370  15.224  69.667  1.00  0.00    -0.262 A  
HETATM   14  C   UNL     1     -11.174  13.161  68.669  1.00  0.00    -0.314 A  
HETATM   15  C   UNL     1     -10.248  14.197  68.723  1.00  0.00    -0.216 A  
HETATM   16  C   UNL     1     -12.226  13.124  69.577  1.00  0.00    -0.214 A  
HETATM   17  C   UNL     1     -12.341  14.093  70.579  1.00  0.00    -0.434 A  
HETATM   18  C   UNL     1     -13.393  14.008  71.502  1.00  0.00    -0.422 A  
HETATM   19  C   UNL     1     -13.511  14.923  72.545  1.00  0.00    -0.548 A  
HETATM   20  C   UNL     1     -12.569  15.936  72.673  1.00  0.00    -0.562 A  
HETATM   21  C   UNL     1     -11.528  16.054  71.740  1.00  0.00    -0.425 A  
HETATM   22  C   UNL     1     -11.392  15.148  70.660  1.00  0.00    -0.330 A  
ENDBRANCH  12  13
ENDBRANCH   6  12
ENDBRANCH   5   6
ENDBRANCH   4   5
ENDBRANCH   2   4
TORSDOF 6
ENDMDL
MODEL       62
REMARK 921   NORMALIZED FREE ENERGY PREDICTED BY IDOCK:   -5.04 KCAL/MOL
REMARK 922        TOTAL FREE ENERGY PREDICTED BY IDOCK:   -7.71 KCAL/MOL
REMARK 923 INTER-LIGAND FREE ENERGY PREDICTED BY IDOCK:   -7.00 KCAL/MOL
REMARK 924 INTRA-LIGAND FREE ENERGY PREDICTED BY IDOCK:   -0.71 KCAL/MOL
REMARK 927      BINDING AFFINITY PREDICTED BY RF-SCORE:    0.00 PKD
ROOT
HETATM    1  C   UNL     1     -10.549   7.340  68.551  1.00  0.00    -0.175 C  
HETATM    2  N   UNL     1     -10.799   8.539  67.753  1.00  0.00    -0.495 NA 
HETATM    3  H   UNL     1     -11.773   8.834  67.810  1.00  0.00     0.000 HD 
ENDROOT
BRANCH   2   4
HETATM    4  C   UNL     1      -9.883   9.621  68.131  1.00  0.00    -0.150 C  
BRANCH   4   5
HETATM    5  C   UNL     1     -10.390  10.474  69.306  1.00  0.00    -0.248 C  
BRANCH   5   6
HETATM    6  C   UNL     1     -11.412  11.574  68.973  1.00  0.00    -0.291 C  
BRANCH   6   7
HETATM    7  C   UNL     1     -12.162  12.058  70.201  1.00  0.00    -0.231 A  
HETATM    8  C   UNL     1     -13.197  13.493  71.934  1.00  0.00    -0.422 A  
HETATM    9  S   UNL     1     -12.292  13.747  70.509  1.00  0.00    -0.348 SA 
HETATM   10  C   UNL     1     -12.785  11.328  71.198  1.00  0.00    -0.492 A  
HETATM   11  C   UNL     1     -13.385  12.155  72.194  1.00  0.00    -0.438 A  
ENDBRANCH   6   7
BRANCH   6  12
HETATM   12  O   UNL     1     -10.721  12.733  68.433  1.00  0.00    -0.235 OA 
BRANCH  12  13
HETATM   13  C   UNL     1     -11.045  13.115  67.146  1.00  0.00    -0.279 A  
HETATM   14  C   UNL     1     -11.890  12.615  64.925  1.00  0.00    -0.436 A  
HETATM   15  C   UNL     1     -11.623  12.225  66.233  1.00  0.00    -0.446 A  
HETATM   16  C   UNL     1     -11.602  13.913  64.517  1.00  0.00    -0.409 A  
HETATM   17  C   UNL     1     -11.090  14.850  65.420  1.00  0.00    -0.366 A  
HETATM   18  C   UNL     1     -10.845  16.162  64.987  1.00  0.00    -0.380 A  
HETATM   19  C   UNL     1     -10.385  17.136  65.869  1.00  0.00    -0.294 A  
HETATM   20  C   UNL     1     -10.166  16.803  67.200  1.00  0.00    -0.295 A  
HETATM   21  C   UNL     1     -10.378  15.489  67.642  1.00  0.00    -0.269 A  
HETATM   22  C   UNL     1     -10.830  14.473  66.765  1.00  0.00    -0.305 A  
ENDBRANCH  12  13
ENDBRANCH   6  12
ENDBRANCH   5   6
ENDBRANCH   4   5
ENDBRANCH   2   4
TORSDOF 6
ENDMDL
MODEL       63
REMARK 921   NORMALIZED FREE ENERGY PREDICTED BY IDOCK:   -4.99 KCAL/MOL
REMARK 922        TOTAL FREE ENERGY PREDICTED BY IDOCK:   -7.64 KCAL/MOL
REMARK 923 INTER-LIGAND FREE ENERGY PREDICTED BY IDOCK:   -6.97 KCAL/MOL
REMARK 924 INTRA-LIGAND FREE ENERGY PREDICTED BY IDOCK:   -0.67 KCAL/MOL
REMARK 927      BINDING AFFINITY PREDICTED BY RF-SCORE:    0.00 PKD
ROOT
HETATM    1  C   UNL     1      -9.637  16.444  66.209  1.00  0.00    -0.311 C  
HETATM    2  N   UNL     1      -9.138  15.415  67.120  1.00  0.00    -0.210 NA 
HETATM    3  H   UNL     1      -8.121  15.348  67.093  1.00  0.00     0.000 HD 
ENDROOT
BRANCH   2   4
HETATM    4  C   UNL     1      -9.630  15.638  68.484  1.00  0.00    -0.199 C  
BRANCH   4   5
HETATM    5  C   UNL     1     -11.124  15.317  68.660  1.00  0.00    -0.282 C  
BRANCH   5   6
HETATM    6  C   UNL     1     -11.471  13.966  69.308  1.00  0.00    -0.297 C  
BRANCH   6   7
HETATM    7  C   UNL     1     -12.307  14.125  70.565  1.00  0.00    -0.364 A  
HETATM    8  C   UNL     1     -13.497  15.082  72.515  1.00  0.00    -0.444 A  
HETATM    9  S   UNL     1     -12.526  15.691  71.249  1.00  0.00    -0.457 SA 
HETATM   10  C   UNL     1     -12.951  13.164  71.323  1.00  0.00    -0.339 A  
HETATM   11  C   UNL     1     -13.641  13.716  72.444  1.00  0.00    -0.703 A  
ENDBRANCH   6   7
BRANCH   6  12
HETATM   12  O   UNL     1     -12.267  13.174  68.385  1.00  0.00    -0.248 OA 
BRANCH  12  13
HETATM   13  C   UNL     1     -11.591  12.278  67.580  1.00  0.00    -0.354 A  
HETATM   14  C   UNL     1     -10.631  11.640  65.443  1.00  0.00    -0.331 A  
HETATM   15  C   UNL     1     -11.263  12.578  66.252  1.00  0.00    -0.359 A  
HETATM   16  C   UNL     1     -10.297  10.393  65.959  1.00  0.00    -0.262 A  
HETATM   17  C   UNL     1     -10.545  10.083  67.299  1.00  0.00    -0.319 A  
HETATM   18  C   UNL     1     -10.163   8.829  67.800  1.00  0.00    -0.285 A  
HETATM   19  C   UNL     1     -10.346   8.504  69.141  1.00  0.00    -0.227 A  
HETATM   20  C   UNL     1     -10.915   9.437  69.998  1.00  0.00    -0.267 A  
HETATM   21  C   UNL     1     -11.330  10.684  69.508  1.00  0.00    -0.342 A  
HETATM   22  C   UNL     1     -11.173  11.038  68.146  1.00  0.00    -0.364 A  
ENDBRANCH  12  13
ENDBRANCH   6  12
ENDBRANCH   5   6
ENDBRANCH   4   5
ENDBRANCH   2   4
TORSDOF 6
ENDMDL
MODEL       64
REMARK 921   NORMALIZED FREE ENERGY PREDICTED BY IDOCK:   -4.99 KCAL/MOL
REMARK 922        TOTAL FREE ENERGY PREDICTED BY IDOCK:   -7.63 KCAL/MOL
REMARK 923 INTER-LIGAND FREE ENERGY PREDICTED BY IDOCK:   -7.28 KCAL/MOL
REMARK 924 INTRA-LIGAND FREE ENERGY PREDICTED BY IDOCK:   -0.35 KCAL/MOL
REMARK 927      BINDING AFFINITY PREDICTED BY RF-SCORE:    0.00 PKD
ROOT
HETATM    1  C   UNL     1      -9.796  17.985  68.546  1.00  0.00    -0.378 C  
HETATM    2  N   UNL     1     -10.898  17.162  68.048  1.00  0.00    -0.366 NA 
HETATM    3  H   UNL     1     -11.328  17.571  67.219  1.00  0.00     0.000 HD 
ENDROOT
BRANCH   2   4
HETATM    4  C   UNL     1     -10.455  15.785  67.805  1.00  0.00    -0.283 C  
BRANCH   4   5
HETATM    5  C   UNL     1     -11.613  14.790  67.618  1.00  0.00    -0.374 C  
BRANCH   5   6
HETATM    6  C   UNL     1     -11.416  13.379  68.198  1.00  0.00    -0.304 C  
BRANCH   6   7
HETATM    7  C   UNL     1     -12.008  13.238  69.588  1.00  0.00    -0.314 A  
HETATM    8  C   UNL     1     -12.873  12.303  71.713  1.00  0.00    -0.254 A  
HETATM    9  S   UNL     1     -12.223  11.669  70.267  1.00  0.00    -0.288 SA 
HETATM   10  C   UNL     1     -12.458  14.215  70.459  1.00  0.00    -0.431 A  
HETATM   11  C   UNL     1     -12.952  13.677  71.685  1.00  0.00    -0.448 A  
ENDBRANCH   6   7
BRANCH   6  12
HETATM   12  O   UNL     1     -12.101  12.409  67.361  1.00  0.00    -0.505 OA 
BRANCH  12  13
HETATM   13  C   UNL     1     -11.645  12.262  66.066  1.00  0.00    -0.393 A  
HETATM   14  C   UNL     1     -11.850  12.653  63.678  1.00  0.00    -0.606 A  
HETATM   15  C   UNL     1     -12.295  12.859  64.979  1.00  0.00    -0.541 A  
HETATM   16  C   UNL     1     -10.731  11.860  63.446  1.00  0.00    -0.476 A  
HETATM   17  C   UNL     1     -10.015  11.304  64.510  1.00  0.00    -0.334 A  
HETATM   18  C   UNL     1      -8.869  10.540  64.246  1.00  0.00    -0.209 A  
HETATM   19  C   UNL     1      -8.100  10.014  65.280  1.00  0.00    -0.145 A  
HETATM   20  C   UNL     1      -8.474  10.252  66.597  1.00  0.00    -0.124 A  
HETATM   21  C   UNL     1      -9.633  10.989  66.879  1.00  0.00    -0.205 A  
HETATM   22  C   UNL     1     -10.445  11.522  65.848  1.00  0.00    -0.303 A  
ENDBRANCH  12  13
ENDBRANCH   6  12
ENDBRANCH   5   6
ENDBRANCH   4   5
ENDBRANCH   2   4
TORSDOF 6
ENDMDL
MODEL       65
REMARK 921   NORMALIZED FREE ENERGY PREDICTED BY IDOCK:   -4.99 KCAL/MOL
REMARK 922        TOTAL FREE ENERGY PREDICTED BY IDOCK:   -7.63 KCAL/MOL
REMARK 923 INTER-LIGAND FREE ENERGY PREDICTED BY IDOCK:   -7.38 KCAL/MOL
REMARK 924 INTRA-LIGAND FREE ENERGY PREDICTED BY IDOCK:   -0.25 KCAL/MOL
REMARK 927      BINDING AFFINITY PREDICTED BY RF-SCORE:    0.00 PKD
ROOT
HETATM    1  C   UNL     1     -12.928  15.395  70.868  1.00  0.00    -0.478 C  
HETATM    2  N   UNL     1     -12.652  15.037  69.478  1.00  0.00    -0.595 NA 
HETATM    3  H   UNL     1     -13.324  15.463  68.839  1.00  0.00     0.000 HD 
ENDROOT
BRANCH   2   4
HETATM    4  C   UNL     1     -11.271  15.373  69.114  1.00  0.00    -0.287 C  
BRANCH   4   5
HETATM    5  C   UNL     1     -11.119  15.864  67.664  1.00  0.00    -0.266 C  
BRANCH   5   6
HETATM    6  C   UNL     1      -9.952  15.276  66.853  1.00  0.00    -0.239 C  
BRANCH   6   7
HETATM    7  C   UNL     1     -10.395  14.154  65.931  1.00  0.00    -0.316 A  
HETATM    8  C   UNL     1     -10.998  11.929  65.024  1.00  0.00    -0.312 A  
HETATM    9  S   UNL     1     -10.448  12.537  66.522  1.00  0.00    -0.241 SA 
HETATM   10  C   UNL     1     -10.770  14.203  64.600  1.00  0.00    -0.408 A  
HETATM   11  C   UNL     1     -11.121  12.922  64.079  1.00  0.00    -0.455 A  
ENDBRANCH   6   7
BRANCH   6  12
HETATM   12  O   UNL     1      -9.386  16.307  65.999  1.00  0.00    -0.315 OA 
BRANCH  12  13
HETATM   13  C   UNL     1      -9.374  17.596  66.493  1.00  0.00    -0.272 A  
HETATM   14  C   UNL     1     -10.284  19.845  66.600  1.00  0.00    -0.609 A  
HETATM   15  C   UNL     1     -10.347  18.537  66.133  1.00  0.00    -0.457 A  
HETATM   16  C   UNL     1      -9.256  20.228  67.453  1.00  0.00    -0.507 A  
HETATM   17  C   UNL     1      -8.306  19.300  67.890  1.00  0.00    -0.338 A  
HETATM   18  C   UNL     1      -7.301  19.708  68.780  1.00  0.00    -0.371 A  
HETATM   19  C   UNL     1      -6.369  18.801  69.278  1.00  0.00    -0.292 A  
HETATM   20  C   UNL     1      -6.437  17.470  68.888  1.00  0.00    -0.213 A  
HETATM   21  C   UNL     1      -7.416  17.051  67.975  1.00  0.00    -0.185 A  
HETATM   22  C   UNL     1      -8.367  17.953  67.438  1.00  0.00    -0.227 A  
ENDBRANCH  12  13
ENDBRANCH   6  12
ENDBRANCH   5   6
ENDBRANCH   4   5
ENDBRANCH   2   4
TORSDOF 6
ENDMDL
MODEL       66
REMARK 921   NORMALIZED FREE ENERGY PREDICTED BY IDOCK:   -4.97 KCAL/MOL
REMARK 922        TOTAL FREE ENERGY PREDICTED BY IDOCK:   -7.62 KCAL/MOL
REMARK 923 INTER-LIGAND FREE ENERGY PREDICTED BY IDOCK:   -7.07 KCAL/MOL
REMARK 924 INTRA-LIGAND FREE ENERGY PREDICTED BY IDOCK:   -0.55 KCAL/MOL
REMARK 927      BINDING AFFINITY PREDICTED BY RF-SCORE:    0.00 PKD
ROOT
HETATM    1  C   UNL     1     -10.271  10.919  63.889  1.00  0.00    -0.354 C  
HETATM    2  N   UNL     1     -11.343  11.912  63.920  1.00  0.00    -0.400 NA 
HETATM    3  H   UNL     1     -12.141  11.622  63.354  1.00  0.00     0.000 HD 
ENDROOT
BRANCH   2   4
HETATM    4  C   UNL     1     -11.738  12.214  65.300  1.00  0.00    -0.308 C  
BRANCH   4   5
HETATM    5  C   UNL     1     -10.669  11.844  66.341  1.00  0.00    -0.303 C  
BRANCH   5   6
HETATM    6  C   UNL     1     -11.173  11.330  67.700  1.00  0.00    -0.292 C  
BRANCH   6   7
HETATM    7  C   UNL     1     -10.767   9.891  67.962  1.00  0.00    -0.248 A  
HETATM    8  C   UNL     1     -10.127   7.774  69.077  1.00  0.00    -0.196 A  
HETATM    9  S   UNL     1     -10.520   9.357  69.581  1.00  0.00    -0.234 SA 
HETATM   10  C   UNL     1     -10.521   8.867  67.064  1.00  0.00    -0.326 A  
HETATM   11  C   UNL     1     -10.157   7.646  67.707  1.00  0.00    -0.237 A  
ENDBRANCH   6   7
BRANCH   6  12
HETATM   12  O   UNL     1     -10.586  12.122  68.768  1.00  0.00    -0.229 OA 
BRANCH  12  13
HETATM   13  C   UNL     1     -11.142  13.362  69.012  1.00  0.00    -0.249 A  
HETATM   14  C   UNL     1     -11.405  15.718  68.488  1.00  0.00    -0.374 A  
HETATM   15  C   UNL     1     -10.877  14.466  68.193  1.00  0.00    -0.251 A  
HETATM   16  C   UNL     1     -12.226  15.880  69.598  1.00  0.00    -0.133 A  
HETATM   17  C   UNL     1     -12.570  14.787  70.399  1.00  0.00    -0.399 A  
HETATM   18  C   UNL     1     -13.430  14.975  71.490  1.00  0.00    -0.520 A  
HETATM   19  C   UNL     1     -13.837  13.903  72.279  1.00  0.00    -0.669 A  
HETATM   20  C   UNL     1     -13.384  12.624  71.979  1.00  0.00    -0.555 A  
HETATM   21  C   UNL     1     -12.500  12.422  70.909  1.00  0.00    -0.367 A  
HETATM   22  C   UNL     1     -12.055  13.496  70.099  1.00  0.00    -0.425 A  
ENDBRANCH  12  13
ENDBRANCH   6  12
ENDBRANCH   5   6
ENDBRANCH   4   5
ENDBRANCH   2   4
TORSDOF 6
ENDMDL
MODEL       67
REMARK 921   NORMALIZED FREE ENERGY PREDICTED BY IDOCK:   -4.97 KCAL/MOL
REMARK 922        TOTAL FREE ENERGY PREDICTED BY IDOCK:   -7.61 KCAL/MOL
REMARK 923 INTER-LIGAND FREE ENERGY PREDICTED BY IDOCK:   -6.71 KCAL/MOL
REMARK 924 INTRA-LIGAND FREE ENERGY PREDICTED BY IDOCK:   -0.90 KCAL/MOL
REMARK 927      BINDING AFFINITY PREDICTED BY RF-SCORE:    0.00 PKD
ROOT
HETATM    1  C   UNL     1      -8.428   7.994  66.310  1.00  0.00    -0.133 C  
HETATM    2  N   UNL     1      -9.684   8.611  65.887  1.00  0.00    -0.457 NA 
HETATM    3  H   UNL     1     -10.322   8.742  66.672  1.00  0.00     0.000 HD 
ENDROOT
BRANCH   2   4
HETATM    4  C   UNL     1      -9.436   9.869  65.174  1.00  0.00    -0.275 C  
BRANCH   4   5
HETATM    5  C   UNL     1     -10.401  11.000  65.568  1.00  0.00    -0.321 C  
BRANCH   5   6
HETATM    6  C   UNL     1      -9.877  12.039  66.573  1.00  0.00    -0.209 C  
BRANCH   6   7
HETATM    7  C   UNL     1     -10.121  13.465  66.112  1.00  0.00    -0.302 A  
HETATM    8  C   UNL     1     -10.887  15.446  64.838  1.00  0.00    -0.425 A  
HETATM    9  S   UNL     1     -11.054  13.752  64.693  1.00  0.00    -0.386 SA 
HETATM   10  C   UNL     1      -9.675  14.656  66.657  1.00  0.00    -0.283 A  
HETATM   11  C   UNL     1     -10.121  15.797  65.925  1.00  0.00    -0.381 A  
ENDBRANCH   6   7
BRANCH   6  12
HETATM   12  O   UNL     1     -10.580  11.892  67.836  1.00  0.00    -0.192 OA 
BRANCH  12  13
HETATM   13  C   UNL     1     -10.028  11.037  68.769  1.00  0.00    -0.207 A  
HETATM   14  C   UNL     1      -8.139   9.810  69.677  1.00  0.00    -0.158 A  
HETATM   15  C   UNL     1      -8.665  10.716  68.763  1.00  0.00    -0.157 A  
HETATM   16  C   UNL     1      -8.969   9.226  70.629  1.00  0.00    -0.296 A  
HETATM   17  C   UNL     1     -10.320   9.575  70.711  1.00  0.00    -0.377 A  
HETATM   18  C   UNL     1     -11.123   8.996  71.705  1.00  0.00    -0.444 A  
HETATM   19  C   UNL     1     -12.459   9.357  71.851  1.00  0.00    -0.468 A  
HETATM   20  C   UNL     1     -13.006  10.308  70.999  1.00  0.00    -0.488 A  
HETATM   21  C   UNL     1     -12.226  10.874  69.980  1.00  0.00    -0.422 A  
HETATM   22  C   UNL     1     -10.869  10.515  69.796  1.00  0.00    -0.335 A  
ENDBRANCH  12  13
ENDBRANCH   6  12
ENDBRANCH   5   6
ENDBRANCH   4   5
ENDBRANCH   2   4
TORSDOF 6
ENDMDL
MODEL       68
REMARK 921   NORMALIZED FREE ENERGY PREDICTED BY IDOCK:   -4.96 KCAL/MOL
REMARK 922        TOTAL FREE ENERGY PREDICTED BY IDOCK:   -7.60 KCAL/MOL
REMARK 923 INTER-LIGAND FREE ENERGY PREDICTED BY IDOCK:   -6.89 KCAL/MOL
REMARK 924 INTRA-LIGAND FREE ENERGY PREDICTED BY IDOCK:   -0.71 KCAL/MOL
REMARK 927      BINDING AFFINITY PREDICTED BY RF-SCORE:    0.00 PKD
ROOT
HETATM    1  C   UNL     1      -8.150  13.488  67.459  1.00  0.00    -0.186 C  
HETATM    2  N   UNL     1      -7.564  12.244  66.962  1.00  0.00    -0.326 NA 
HETATM    3  H   UNL     1      -6.599  12.131  67.273  1.00  0.00     0.000 HD 
ENDROOT
BRANCH   2   4
HETATM    4  C   UNL     1      -8.391  11.090  67.333  1.00  0.00    -0.126 C  
BRANCH   4   5
HETATM    5  C   UNL     1      -9.464  11.416  68.386  1.00  0.00    -0.194 C  
BRANCH   5   6
HETATM    6  C   UNL     1     -10.646  10.437  68.495  1.00  0.00    -0.209 C  
BRANCH   6   7
HETATM    7  C   UNL     1     -10.816   9.890  69.901  1.00  0.00    -0.278 A  
HETATM    8  C   UNL     1     -10.399   8.814  72.092  1.00  0.00    -0.308 A  
HETATM    9  S   UNL     1      -9.491   9.112  70.677  1.00  0.00    -0.277 SA 
HETATM   10  C   UNL     1     -11.934   9.888  70.717  1.00  0.00    -0.410 A  
HETATM   11  C   UNL     1     -11.692   9.272  71.981  1.00  0.00    -0.336 A  
ENDBRANCH   6   7
BRANCH   6  12
HETATM   12  O   UNL     1     -11.882  11.131  68.174  1.00  0.00    -0.559 OA 
BRANCH  12  13
HETATM   13  C   UNL     1     -11.773  12.413  67.673  1.00  0.00    -0.346 A  
HETATM   14  C   UNL     1     -11.481  13.958  65.823  1.00  0.00    -0.324 A  
HETATM   15  C   UNL     1     -11.645  12.663  66.301  1.00  0.00    -0.440 A  
HETATM   16  C   UNL     1     -11.464  15.028  66.711  1.00  0.00    -0.252 A  
HETATM   17  C   UNL     1     -11.659  14.824  68.080  1.00  0.00    -0.356 A  
HETATM   18  C   UNL     1     -11.674  15.928  68.946  1.00  0.00    -0.376 A  
HETATM   19  C   UNL     1     -11.917  15.770  70.308  1.00  0.00    -0.383 A  
HETATM   20  C   UNL     1     -12.150  14.498  70.817  1.00  0.00    -0.398 A  
HETATM   21  C   UNL     1     -12.109  13.381  69.970  1.00  0.00    -0.404 A  
HETATM   22  C   UNL     1     -11.848  13.508  68.584  1.00  0.00    -0.404 A  
ENDBRANCH  12  13
ENDBRANCH   6  12
ENDBRANCH   5   6
ENDBRANCH   4   5
ENDBRANCH   2   4
TORSDOF 6
ENDMDL
MODEL       69
REMARK 921   NORMALIZED FREE ENERGY PREDICTED BY IDOCK:   -4.94 KCAL/MOL
REMARK 922        TOTAL FREE ENERGY PREDICTED BY IDOCK:   -7.58 KCAL/MOL
REMARK 923 INTER-LIGAND FREE ENERGY PREDICTED BY IDOCK:   -7.22 KCAL/MOL
REMARK 924 INTRA-LIGAND FREE ENERGY PREDICTED BY IDOCK:   -0.36 KCAL/MOL
REMARK 927      BINDING AFFINITY PREDICTED BY RF-SCORE:    0.00 PKD
ROOT
HETATM    1  C   UNL     1      -7.122  12.864  68.002  1.00  0.00    -0.111 C  
HETATM    2  N   UNL     1      -8.478  12.759  68.540  1.00  0.00    -0.323 NA 
HETATM    3  H   UNL     1      -8.479  12.376  69.485  1.00  0.00     0.000 HD 
ENDROOT
BRANCH   2   4
HETATM    4  C   UNL     1      -9.167  14.053  68.479  1.00  0.00    -0.170 C  
BRANCH   4   5
HETATM    5  C   UNL     1     -10.683  13.932  68.250  1.00  0.00    -0.261 C  
BRANCH   5   6
HETATM    6  C   UNL     1     -11.292  12.524  68.372  1.00  0.00    -0.291 C  
BRANCH   6   7
HETATM    7  C   UNL     1     -11.944  12.291  69.723  1.00  0.00    -0.295 A  
HETATM    8  C   UNL     1     -13.056  12.634  71.910  1.00  0.00    -0.366 A  
HETATM    9  S   UNL     1     -12.496  13.637  70.646  1.00  0.00    -0.321 SA 
HETATM   10  C   UNL     1     -12.170  11.105  70.400  1.00  0.00    -0.457 A  
HETATM   11  C   UNL     1     -12.815  11.303  71.657  1.00  0.00    -0.510 A  
ENDBRANCH   6   7
BRANCH   6  12
HETATM   12  O   UNL     1     -12.340  12.361  67.378  1.00  0.00    -0.343 OA 
BRANCH  12  13
HETATM   13  C   UNL     1     -11.981  12.516  66.054  1.00  0.00    -0.392 A  
HETATM   14  C   UNL     1     -12.130  13.685  63.931  1.00  0.00    -0.462 A  
HETATM   15  C   UNL     1     -12.461  13.578  65.277  1.00  0.00    -0.525 A  
HETATM   16  C   UNL     1     -11.295  12.740  63.345  1.00  0.00    -0.395 A  
HETATM   17  C   UNL     1     -10.740  11.707  64.106  1.00  0.00    -0.418 A  
HETATM   18  C   UNL     1      -9.871  10.791  63.494  1.00  0.00    -0.401 A  
HETATM   19  C   UNL     1      -9.258   9.780  64.229  1.00  0.00    -0.286 A  
HETATM   20  C   UNL     1      -9.511   9.677  65.592  1.00  0.00    -0.318 A  
HETATM   21  C   UNL     1     -10.400  10.566  66.213  1.00  0.00    -0.276 A  
HETATM   22  C   UNL     1     -11.052  11.594  65.488  1.00  0.00    -0.297 A  
ENDBRANCH  12  13
ENDBRANCH   6  12
ENDBRANCH   5   6
ENDBRANCH   4   5
ENDBRANCH   2   4
TORSDOF 6
ENDMDL
MODEL       70
REMARK 921   NORMALIZED FREE ENERGY PREDICTED BY IDOCK:   -4.92 KCAL/MOL
REMARK 922        TOTAL FREE ENERGY PREDICTED BY IDOCK:   -7.55 KCAL/MOL
REMARK 923 INTER-LIGAND FREE ENERGY PREDICTED BY IDOCK:   -6.79 KCAL/MOL
REMARK 924 INTRA-LIGAND FREE ENERGY PREDICTED BY IDOCK:   -0.76 KCAL/MOL
REMARK 927      BINDING AFFINITY PREDICTED BY RF-SCORE:    0.00 PKD
ROOT
HETATM    1  C   UNL     1     -11.462  12.234  66.241  1.00  0.00    -0.380 C  
HETATM    2  N   UNL     1     -11.867  12.208  67.645  1.00  0.00    -0.535 NA 
HETATM    3  H   UNL     1     -11.677  11.303  68.075  1.00  0.00     0.000 HD 
ENDROOT
BRANCH   2   4
HETATM    4  C   UNL     1     -11.240  13.304  68.392  1.00  0.00    -0.280 C  
BRANCH   4   5
HETATM    5  C   UNL     1     -12.011  14.631  68.301  1.00  0.00    -0.282 C  
BRANCH   5   6
HETATM    6  C   UNL     1     -11.753  15.661  69.414  1.00  0.00    -0.383 C  
BRANCH   6   7
HETATM    7  C   UNL     1     -12.416  15.275  70.724  1.00  0.00    -0.402 A  
HETATM    8  C   UNL     1     -13.037  15.144  73.118  1.00  0.00    -0.516 A  
HETATM    9  S   UNL     1     -11.917  16.036  72.186  1.00  0.00    -0.560 SA 
HETATM   10  C   UNL     1     -13.405  14.339  70.969  1.00  0.00    -0.326 A  
HETATM   11  C   UNL     1     -13.765  14.267  72.348  1.00  0.00    -0.616 A  
ENDBRANCH   6   7
BRANCH   6  12
HETATM   12  O   UNL     1     -10.327  15.738  69.683  1.00  0.00    -0.251 OA 
BRANCH  12  13
HETATM   13  C   UNL     1      -9.620  16.740  69.050  1.00  0.00    -0.230 A  
HETATM   14  C   UNL     1      -9.440  19.005  68.192  1.00  0.00    -0.387 A  
HETATM   15  C   UNL     1     -10.147  18.026  68.882  1.00  0.00    -0.352 A  
HETATM   16  C   UNL     1      -8.181  18.717  67.678  1.00  0.00    -0.274 A  
HETATM   17  C   UNL     1      -7.592  17.466  67.886  1.00  0.00    -0.196 A  
HETATM   18  C   UNL     1      -6.305  17.218  67.386  1.00  0.00    -0.171 A  
HETATM   19  C   UNL     1      -5.665  16.004  67.618  1.00  0.00    -0.169 A  
HETATM   20  C   UNL     1      -6.312  15.022  68.358  1.00  0.00    -0.107 A  
HETATM   21  C   UNL     1      -7.610  15.242  68.840  1.00  0.00    -0.152 A  
HETATM   22  C   UNL     1      -8.293  16.461  68.606  1.00  0.00    -0.221 A  
ENDBRANCH  12  13
ENDBRANCH   6  12
ENDBRANCH   5   6
ENDBRANCH   4   5
ENDBRANCH   2   4
TORSDOF 6
ENDMDL
MODEL       71
REMARK 921   NORMALIZED FREE ENERGY PREDICTED BY IDOCK:   -4.89 KCAL/MOL
REMARK 922        TOTAL FREE ENERGY PREDICTED BY IDOCK:   -7.50 KCAL/MOL
REMARK 923 INTER-LIGAND FREE ENERGY PREDICTED BY IDOCK:   -6.43 KCAL/MOL
REMARK 924 INTRA-LIGAND FREE ENERGY PREDICTED BY IDOCK:   -1.06 KCAL/MOL
REMARK 927      BINDING AFFINITY PREDICTED BY RF-SCORE:    0.00 PKD
ROOT
HETATM    1  C   UNL     1      -8.640   9.028  66.419  1.00  0.00    -0.125 C  
HETATM    2  N   UNL     1      -9.138   9.413  67.739  1.00  0.00    -0.126 NA 
HETATM    3  H   UNL     1      -8.894   8.723  68.449  1.00  0.00     0.000 HD 
ENDROOT
BRANCH   2   4
HETATM    4  C   UNL     1      -8.673  10.755  68.104  1.00  0.00    -0.130 C  
BRANCH   4   5
HETATM    5  C   UNL     1      -8.775  11.775  66.958  1.00  0.00    -0.181 C  
BRANCH   5   6
HETATM    6  C   UNL     1     -10.115  12.516  66.806  1.00  0.00    -0.223 C  
BRANCH   6   7
HETATM    7  C   UNL     1     -10.643  12.470  65.383  1.00  0.00    -0.281 A  
HETATM    8  C   UNL     1     -12.038  12.785  63.361  1.00  0.00    -0.534 A  
HETATM    9  S   UNL     1     -12.134  13.243  65.003  1.00  0.00    -0.437 SA 
HETATM   10  C   UNL     1     -10.110  11.854  64.264  1.00  0.00    -0.325 A  
HETATM   11  C   UNL     1     -10.911  12.040  63.099  1.00  0.00    -0.269 A  
ENDBRANCH   6   7
BRANCH   6  12
HETATM   12  O   UNL     1     -11.121  11.875  67.636  1.00  0.00    -0.226 OA 
BRANCH  12  13
HETATM   13  C   UNL     1     -11.627  12.610  68.690  1.00  0.00    -0.316 A  
HETATM   14  C   UNL     1     -12.139  14.731  69.755  1.00  0.00    -0.364 A  
HETATM   15  C   UNL     1     -11.675  14.009  68.662  1.00  0.00    -0.389 A  
HETATM   16  C   UNL     1     -12.584  14.061  70.890  1.00  0.00    -0.431 A  
HETATM   17  C   UNL     1     -12.617  12.664  70.928  1.00  0.00    -0.338 A  
HETATM   18  C   UNL     1     -13.106  12.017  72.073  1.00  0.00    -0.456 A  
HETATM   19  C   UNL     1     -13.203  10.629  72.129  1.00  0.00    -0.379 A  
HETATM   20  C   UNL     1     -12.811   9.873  71.032  1.00  0.00    -0.417 A  
HETATM   21  C   UNL     1     -12.292  10.502  69.890  1.00  0.00    -0.247 A  
HETATM   22  C   UNL     1     -12.165  11.910  69.811  1.00  0.00    -0.241 A  
ENDBRANCH  12  13
ENDBRANCH   6  12
ENDBRANCH   5   6
ENDBRANCH   4   5
ENDBRANCH   2   4
TORSDOF 6
ENDMDL
MODEL       72
REMARK 921   NORMALIZED FREE ENERGY PREDICTED BY IDOCK:   -4.88 KCAL/MOL
REMARK 922        TOTAL FREE ENERGY PREDICTED BY IDOCK:   -7.48 KCAL/MOL
REMARK 923 INTER-LIGAND FREE ENERGY PREDICTED BY IDOCK:   -6.88 KCAL/MOL
REMARK 924 INTRA-LIGAND FREE ENERGY PREDICTED BY IDOCK:   -0.61 KCAL/MOL
REMARK 927      BINDING AFFINITY PREDICTED BY RF-SCORE:    0.00 PKD
ROOT
HETATM    1  C   UNL     1     -10.603  12.478  63.888  1.00  0.00    -0.440 C  
HETATM    2  N   UNL     1     -10.260  13.664  64.671  1.00  0.00    -0.604 NA 
HETATM    3  H   UNL     1     -10.772  14.487  64.353  1.00  0.00     0.000 HD 
ENDROOT
BRANCH   2   4
HETATM    4  C   UNL     1     -10.460  13.423  66.104  1.00  0.00    -0.295 C  
BRANCH   4   5
HETATM    5  C   UNL     1     -11.516  12.347  66.405  1.00  0.00    -0.427 C  
BRANCH   5   6
HETATM    6  C   UNL     1     -11.125  11.255  67.416  1.00  0.00    -0.297 C  
BRANCH   6   7
HETATM    7  C   UNL     1     -10.017  10.356  66.896  1.00  0.00    -0.206 A  
HETATM    8  C   UNL     1      -7.816   9.286  66.514  1.00  0.00    -0.100 A  
HETATM    9  S   UNL     1      -8.413  10.552  67.493  1.00  0.00    -0.118 SA 
HETATM   10  C   UNL     1     -10.068   9.352  65.946  1.00  0.00    -0.243 A  
HETATM   11  C   UNL     1      -8.802   8.732  65.729  1.00  0.00    -0.233 A  
ENDBRANCH   6   7
BRANCH   6  12
HETATM   12  O   UNL     1     -10.615  11.874  68.627  1.00  0.00    -0.223 OA 
BRANCH  12  13
HETATM   13  C   UNL     1     -11.486  11.980  69.694  1.00  0.00    -0.252 A  
HETATM   14  C   UNL     1     -12.903  13.296  71.163  1.00  0.00    -0.363 A  
HETATM   15  C   UNL     1     -12.071  13.201  70.052  1.00  0.00    -0.375 A  
HETATM   16  C   UNL     1     -13.178  12.164  71.921  1.00  0.00    -0.474 A  
HETATM   17  C   UNL     1     -12.669  10.915  71.554  1.00  0.00    -0.533 A  
HETATM   18  C   UNL     1     -12.995   9.785  72.318  1.00  0.00    -0.420 A  
HETATM   19  C   UNL     1     -12.550   8.517  71.954  1.00  0.00    -0.400 A  
HETATM   20  C   UNL     1     -11.770   8.369  70.813  1.00  0.00    -0.219 A  
HETATM   21  C   UNL     1     -11.410   9.492  70.054  1.00  0.00    -0.204 A  
HETATM   22  C   UNL     1     -11.833  10.796  70.409  1.00  0.00    -0.450 A  
ENDBRANCH  12  13
ENDBRANCH   6  12
ENDBRANCH   5   6
ENDBRANCH   4   5
ENDBRANCH   2   4
TORSDOF 6
ENDMDL
MODEL       73
REMARK 921   NORMALIZED FREE ENERGY PREDICTED BY IDOCK:   -4.87 KCAL/MOL
REMARK 922        TOTAL FREE ENERGY PREDICTED BY IDOCK:   -7.48 KCAL/MOL
REMARK 923 INTER-LIGAND FREE ENERGY PREDICTED BY IDOCK:   -6.73 KCAL/MOL
REMARK 924 INTRA-LIGAND FREE ENERGY PREDICTED BY IDOCK:   -0.75 KCAL/MOL
REMARK 927      BINDING AFFINITY PREDICTED BY RF-SCORE:    0.00 PKD
ROOT
HETATM    1  C   UNL     1      -7.550   9.364  69.368  1.00  0.00    -0.083 C  
HETATM    2  N   UNL     1      -8.895   9.314  69.939  1.00  0.00    -0.168 NA 
HETATM    3  H   UNL     1      -8.876   9.390  70.955  1.00  0.00     0.000 HD 
ENDROOT
BRANCH   2   4
HETATM    4  C   UNL     1      -9.758  10.337  69.336  1.00  0.00    -0.222 C  
BRANCH   4   5
HETATM    5  C   UNL     1      -9.027  11.245  68.333  1.00  0.00    -0.167 C  
BRANCH   5   6
HETATM    6  C   UNL     1      -9.886  12.270  67.573  1.00  0.00    -0.193 C  
BRANCH   6   7
HETATM    7  C   UNL     1     -10.049  11.915  66.106  1.00  0.00    -0.228 A  
HETATM    8  C   UNL     1     -10.603  12.000  63.693  1.00  0.00    -0.454 A  
HETATM    9  S   UNL     1     -10.774  13.048  65.030  1.00  0.00    -0.331 SA 
HETATM   10  C   UNL     1      -9.713  10.749  65.439  1.00  0.00    -0.297 A  
HETATM   11  C   UNL     1     -10.028  10.801  64.048  1.00  0.00    -0.403 A  
ENDBRANCH   6   7
BRANCH   6  12
HETATM   12  O   UNL     1     -11.225  12.297  68.138  1.00  0.00    -0.232 OA 
BRANCH  12  13
HETATM   13  C   UNL     1     -11.618  13.461  68.768  1.00  0.00    -0.325 A  
HETATM   14  C   UNL     1     -11.785  15.882  68.860  1.00  0.00    -0.376 A  
HETATM   15  C   UNL     1     -11.431  14.719  68.184  1.00  0.00    -0.343 A  
HETATM   16  C   UNL     1     -12.354  15.801  70.126  1.00  0.00    -0.309 A  
HETATM   17  C   UNL     1     -12.621  14.560  70.712  1.00  0.00    -0.418 A  
HETATM   18  C   UNL     1     -13.230  14.511  71.975  1.00  0.00    -0.446 A  
HETATM   19  C   UNL     1     -13.559  13.296  72.568  1.00  0.00    -0.637 A  
HETATM   20  C   UNL     1     -13.281  12.112  71.897  1.00  0.00    -0.474 A  
HETATM   21  C   UNL     1     -12.646  12.141  70.647  1.00  0.00    -0.255 A  
HETATM   22  C   UNL     1     -12.284  13.362  70.026  1.00  0.00    -0.367 A  
ENDBRANCH  12  13
ENDBRANCH   6  12
ENDBRANCH   5   6
ENDBRANCH   4   5
ENDBRANCH   2   4
TORSDOF 6
ENDMDL
MODEL       74
REMARK 921   NORMALIZED FREE ENERGY PREDICTED BY IDOCK:   -4.87 KCAL/MOL
REMARK 922        TOTAL FREE ENERGY PREDICTED BY IDOCK:   -7.48 KCAL/MOL
REMARK 923 INTER-LIGAND FREE ENERGY PREDICTED BY IDOCK:   -6.95 KCAL/MOL
REMARK 924 INTRA-LIGAND FREE ENERGY PREDICTED BY IDOCK:   -0.53 KCAL/MOL
REMARK 927      BINDING AFFINITY PREDICTED BY RF-SCORE:    0.00 PKD
ROOT
HETATM    1  C   UNL     1      -7.181  12.626  68.578  1.00  0.00    -0.113 C  
HETATM    2  N   UNL     1      -7.582  11.568  67.653  1.00  0.00    -0.108 NA 
HETATM    3  H   UNL     1      -6.775  11.106  67.235  1.00  0.00     0.000 HD 
ENDROOT
BRANCH   2   4
HETATM    4  C   UNL     1      -8.474  10.607  68.311  1.00  0.00    -0.127 C  
BRANCH   4   5
HETATM    5  C   UNL     1      -9.811  10.407  67.578  1.00  0.00    -0.202 C  
BRANCH   5   6
HETATM    6  C   UNL     1     -10.648  11.668  67.305  1.00  0.00    -0.228 C  
BRANCH   6   7
HETATM    7  C   UNL     1     -10.773  11.971  65.823  1.00  0.00    -0.279 A  
HETATM    8  C   UNL     1     -11.594  12.773  63.628  1.00  0.00    -0.506 A  
HETATM    9  S   UNL     1     -12.153  12.822  65.241  1.00  0.00    -0.472 SA 
HETATM   10  C   UNL     1      -9.925  11.640  64.781  1.00  0.00    -0.292 A  
HETATM   11  C   UNL     1     -10.396  12.107  63.518  1.00  0.00    -0.473 A  
ENDBRANCH   6   7
BRANCH   6  12
HETATM   12  O   UNL     1     -12.001  11.470  67.798  1.00  0.00    -0.623 OA 
BRANCH  12  13
HETATM   13  C   UNL     1     -12.227  11.724  69.136  1.00  0.00    -0.108 A  
HETATM   14  C   UNL     1     -12.759  10.978  71.385  1.00  0.00    -0.534 A  
HETATM   15  C   UNL     1     -12.480  10.696  70.052  1.00  0.00    -0.294 A  
HETATM   16  C   UNL     1     -12.768  12.297  71.826  1.00  0.00    -0.257 A  
HETATM   17  C   UNL     1     -12.452  13.345  70.957  1.00  0.00    -0.437 A  
HETATM   18  C   UNL     1     -12.433  14.661  71.442  1.00  0.00    -0.410 A  
HETATM   19  C   UNL     1     -12.072  15.725  70.620  1.00  0.00    -0.424 A  
HETATM   20  C   UNL     1     -11.723  15.478  69.298  1.00  0.00    -0.380 A  
HETATM   21  C   UNL     1     -11.765  14.172  68.789  1.00  0.00    -0.380 A  
HETATM   22  C   UNL     1     -12.144  13.072  69.596  1.00  0.00    -0.304 A  
ENDBRANCH  12  13
ENDBRANCH   6  12
ENDBRANCH   5   6
ENDBRANCH   4   5
ENDBRANCH   2   4
TORSDOF 6
ENDMDL
MODEL       75
REMARK 921   NORMALIZED FREE ENERGY PREDICTED BY IDOCK:   -4.87 KCAL/MOL
REMARK 922        TOTAL FREE ENERGY PREDICTED BY IDOCK:   -7.48 KCAL/MOL
REMARK 923 INTER-LIGAND FREE ENERGY PREDICTED BY IDOCK:   -6.77 KCAL/MOL
REMARK 924 INTRA-LIGAND FREE ENERGY PREDICTED BY IDOCK:   -0.71 KCAL/MOL
REMARK 927      BINDING AFFINITY PREDICTED BY RF-SCORE:    0.00 PKD
ROOT
HETATM    1  C   UNL     1     -11.978  12.984  65.634  1.00  0.00    -0.429 C  
HETATM    2  N   UNL     1     -11.648  11.761  66.363  1.00  0.00    -0.485 NA 
HETATM    3  H   UNL     1     -12.481  11.211  66.572  1.00  0.00     0.000 HD 
ENDROOT
BRANCH   2   4
HETATM    4  C   UNL     1     -10.647  10.971  65.637  1.00  0.00    -0.197 C  
BRANCH   4   5
HETATM    5  C   UNL     1      -9.722  10.155  66.556  1.00  0.00    -0.252 C  
BRANCH   5   6
HETATM    6  C   UNL     1     -10.402   9.198  67.551  1.00  0.00    -0.261 C  
BRANCH   6   7
HETATM    7  C   UNL     1     -10.221   7.741  67.166  1.00  0.00    -0.295 A  
HETATM    8  C   UNL     1      -9.248   5.588  66.422  1.00  0.00    -0.150 A  
HETATM    9  S   UNL     1      -8.679   7.184  66.640  1.00  0.00    -0.134 SA 
HETATM   10  C   UNL     1     -11.149   6.714  67.143  1.00  0.00    -0.427 A  
HETATM   11  C   UNL     1     -10.587   5.473  66.719  1.00  0.00    -0.360 A  
ENDBRANCH   6   7
BRANCH   6  12
HETATM   12  O   UNL     1      -9.799   9.353  68.863  1.00  0.00    -0.163 OA 
BRANCH  12  13
HETATM   13  C   UNL     1     -10.600   9.097  69.958  1.00  0.00    -0.227 A  
HETATM   14  C   UNL     1     -11.441   7.605  71.680  1.00  0.00    -0.295 A  
HETATM   15  C   UNL     1     -10.586   7.859  70.613  1.00  0.00    -0.221 A  
HETATM   16  C   UNL     1     -12.310   8.595  72.123  1.00  0.00    -0.452 A  
HETATM   17  C   UNL     1     -12.303   9.866  71.540  1.00  0.00    -0.504 A  
HETATM   18  C   UNL     1     -13.166  10.856  72.034  1.00  0.00    -0.456 A  
HETATM   19  C   UNL     1     -13.151  12.148  71.515  1.00  0.00    -0.357 A  
HETATM   20  C   UNL     1     -12.266  12.461  70.491  1.00  0.00    -0.382 A  
HETATM   21  C   UNL     1     -11.417  11.476  69.965  1.00  0.00    -0.304 A  
HETATM   22  C   UNL     1     -11.421  10.149  70.461  1.00  0.00    -0.417 A  
ENDBRANCH  12  13
ENDBRANCH   6  12
ENDBRANCH   5   6
ENDBRANCH   4   5
ENDBRANCH   2   4
TORSDOF 6
ENDMDL
MODEL       76
REMARK 921   NORMALIZED FREE ENERGY PREDICTED BY IDOCK:   -4.87 KCAL/MOL
REMARK 922        TOTAL FREE ENERGY PREDICTED BY IDOCK:   -7.47 KCAL/MOL
REMARK 923 INTER-LIGAND FREE ENERGY PREDICTED BY IDOCK:   -6.81 KCAL/MOL
REMARK 924 INTRA-LIGAND FREE ENERGY PREDICTED BY IDOCK:   -0.66 KCAL/MOL
REMARK 927      BINDING AFFINITY PREDICTED BY RF-SCORE:    0.00 PKD
ROOT
HETATM    1  C   UNL     1      -8.800   6.242  65.692  1.00  0.00    -0.074 C  
HETATM    2  N   UNL     1     -10.025   5.695  66.271  1.00  0.00    -0.294 NA 
HETATM    3  H   UNL     1      -9.832   4.902  66.882  1.00  0.00     0.000 HD 
ENDROOT
BRANCH   2   4
HETATM    4  C   UNL     1     -10.789   6.738  66.964  1.00  0.00    -0.383 C  
BRANCH   4   5
HETATM    5  C   UNL     1      -9.941   7.955  67.370  1.00  0.00    -0.261 C  
BRANCH   5   6
HETATM    6  C   UNL     1     -10.673   9.303  67.483  1.00  0.00    -0.203 C  
BRANCH   6   7
HETATM    7  C   UNL     1     -11.011   9.659  68.920  1.00  0.00    -0.121 A  
HETATM    8  C   UNL     1     -11.185   9.633  71.391  1.00  0.00    -0.356 A  
HETATM    9  S   UNL     1     -10.471   8.640  70.199  1.00  0.00    -0.221 SA 
HETATM   10  C   UNL     1     -11.747  10.721  69.415  1.00  0.00    -0.378 A  
HETATM   11  C   UNL     1     -11.843  10.708  70.839  1.00  0.00    -0.433 A  
ENDBRANCH   6   7
BRANCH   6  12
HETATM   12  O   UNL     1      -9.813  10.366  66.991  1.00  0.00    -0.179 OA 
BRANCH  12  13
HETATM   13  C   UNL     1     -10.041  10.815  65.705  1.00  0.00    -0.267 A  
HETATM   14  C   UNL     1      -9.672  10.689  63.308  1.00  0.00    -0.385 A  
HETATM   15  C   UNL     1      -9.473  10.187  64.590  1.00  0.00    -0.357 A  
HETATM   16  C   UNL     1     -10.462  11.817  63.121  1.00  0.00    -0.359 A  
HETATM   17  C   UNL     1     -11.103  12.430  64.202  1.00  0.00    -0.425 A  
HETATM   18  C   UNL     1     -11.923  13.545  63.976  1.00  0.00    -0.501 A  
HETATM   19  C   UNL     1     -12.619  14.150  65.019  1.00  0.00    -0.399 A  
HETATM   20  C   UNL     1     -12.499  13.639  66.306  1.00  0.00    -0.420 A  
HETATM   21  C   UNL     1     -11.659  12.543  66.554  1.00  0.00    -0.447 A  
HETATM   22  C   UNL     1     -10.926  11.918  65.516  1.00  0.00    -0.347 A  
ENDBRANCH  12  13
ENDBRANCH   6  12
ENDBRANCH   5   6
ENDBRANCH   4   5
ENDBRANCH   2   4
TORSDOF 6
ENDMDL
MODEL       77
REMARK 921   NORMALIZED FREE ENERGY PREDICTED BY IDOCK:   -4.86 KCAL/MOL
REMARK 922        TOTAL FREE ENERGY PREDICTED BY IDOCK:   -7.47 KCAL/MOL
REMARK 923 INTER-LIGAND FREE ENERGY PREDICTED BY IDOCK:   -6.80 KCAL/MOL
REMARK 924 INTRA-LIGAND FREE ENERGY PREDICTED BY IDOCK:   -0.67 KCAL/MOL
REMARK 927      BINDING AFFINITY PREDICTED BY RF-SCORE:    0.00 PKD
ROOT
HETATM    1  C   UNL     1      -8.520  10.287  64.673  1.00  0.00    -0.175 C  
HETATM    2  N   UNL     1      -9.887   9.840  64.934  1.00  0.00    -0.421 NA 
HETATM    3  H   UNL     1     -10.170   9.098  64.293  1.00  0.00     0.000 HD 
ENDROOT
BRANCH   2   4
HETATM    4  C   UNL     1     -10.048   9.435  66.335  1.00  0.00    -0.262 C  
BRANCH   4   5
HETATM    5  C   UNL     1      -9.930  10.603  67.329  1.00  0.00    -0.224 C  
BRANCH   5   6
HETATM    6  C   UNL     1     -11.239  11.117  67.952  1.00  0.00    -0.302 C  
BRANCH   6   7
HETATM    7  C   UNL     1     -11.457  10.589  69.359  1.00  0.00    -0.262 A  
HETATM    8  C   UNL     1     -11.176   9.408  71.518  1.00  0.00    -0.386 A  
HETATM    9  S   UNL     1     -10.287   9.542  70.066  1.00  0.00    -0.267 SA 
HETATM   10  C   UNL     1     -12.516  10.799  70.225  1.00  0.00    -0.395 A  
HETATM   11  C   UNL     1     -12.351  10.123  71.471  1.00  0.00    -0.505 A  
ENDBRANCH   6   7
BRANCH   6  12
HETATM   12  O   UNL     1     -11.188  12.565  68.063  1.00  0.00    -0.236 OA 
BRANCH  12  13
HETATM   13  C   UNL     1     -11.386  13.292  66.905  1.00  0.00    -0.318 A  
HETATM   14  C   UNL     1     -12.285  13.519  64.661  1.00  0.00    -0.450 A  
HETATM   15  C   UNL     1     -12.145  12.794  65.839  1.00  0.00    -0.485 A  
HETATM   16  C   UNL     1     -11.684  14.767  64.540  1.00  0.00    -0.398 A  
HETATM   17  C   UNL     1     -10.978  15.328  65.608  1.00  0.00    -0.348 A  
HETATM   18  C   UNL     1     -10.414  16.605  65.468  1.00  0.00    -0.285 A  
HETATM   19  C   UNL     1      -9.748  17.217  66.526  1.00  0.00    -0.298 A  
HETATM   20  C   UNL     1      -9.642  16.553  67.741  1.00  0.00    -0.232 A  
HETATM   21  C   UNL     1     -10.174  15.263  67.890  1.00  0.00    -0.235 A  
HETATM   22  C   UNL     1     -10.841  14.608  66.826  1.00  0.00    -0.312 A  
ENDBRANCH  12  13
ENDBRANCH   6  12
ENDBRANCH   5   6
ENDBRANCH   4   5
ENDBRANCH   2   4
TORSDOF 6
ENDMDL
MODEL       78
REMARK 921   NORMALIZED FREE ENERGY PREDICTED BY IDOCK:   -4.85 KCAL/MOL
REMARK 922        TOTAL FREE ENERGY PREDICTED BY IDOCK:   -7.45 KCAL/MOL
REMARK 923 INTER-LIGAND FREE ENERGY PREDICTED BY IDOCK:   -7.44 KCAL/MOL
REMARK 924 INTRA-LIGAND FREE ENERGY PREDICTED BY IDOCK:   -0.02 KCAL/MOL
REMARK 927      BINDING AFFINITY PREDICTED BY RF-SCORE:    0.00 PKD
ROOT
HETATM    1  C   UNL     1     -12.290  13.130  63.096  1.00  0.00    -0.123 C  
HETATM    2  N   UNL     1     -12.179  14.077  64.204  1.00  0.00    -0.679 NA 
HETATM    3  H   UNL     1     -12.643  14.960  63.992  1.00  0.00     0.000 HD 
ENDROOT
BRANCH   2   4
HETATM    4  C   UNL     1     -12.682  13.487  65.450  1.00  0.00    -0.442 C  
BRANCH   4   5
HETATM    5  C   UNL     1     -12.027  14.069  66.714  1.00  0.00    -0.473 C  
BRANCH   5   6
HETATM    6  C   UNL     1     -10.539  13.747  66.934  1.00  0.00    -0.276 C  
BRANCH   6   7
HETATM    7  C   UNL     1      -9.649  14.962  66.740  1.00  0.00    -0.251 A  
HETATM    8  C   UNL     1      -8.828  17.239  66.218  1.00  0.00    -0.215 A  
HETATM    9  S   UNL     1     -10.333  16.434  66.164  1.00  0.00    -0.335 SA 
HETATM   10  C   UNL     1      -8.286  15.097  66.939  1.00  0.00    -0.267 A  
HETATM   11  C   UNL     1      -7.814  16.411  66.642  1.00  0.00    -0.316 A  
ENDBRANCH   6   7
BRANCH   6  12
HETATM   12  O   UNL     1     -10.335  13.305  68.304  1.00  0.00    -0.237 OA 
BRANCH  12  13
HETATM   13  C   UNL     1     -11.244  13.740  69.247  1.00  0.00    -0.242 A  
HETATM   14  C   UNL     1     -12.433  15.517  70.399  1.00  0.00    -0.443 A  
HETATM   15  C   UNL     1     -11.555  15.096  69.406  1.00  0.00    -0.343 A  
HETATM   16  C   UNL     1     -13.031  14.582  71.236  1.00  0.00    -0.403 A  
HETATM   17  C   UNL     1     -12.800  13.214  71.063  1.00  0.00    -0.295 A  
HETATM   18  C   UNL     1     -13.448  12.294  71.900  1.00  0.00    -0.339 A  
HETATM   19  C   UNL     1     -13.283  10.922  71.725  1.00  0.00    -0.513 A  
HETATM   20  C   UNL     1     -12.465  10.459  70.702  1.00  0.00    -0.437 A  
HETATM   21  C   UNL     1     -11.787  11.366  69.875  1.00  0.00    -0.435 A  
HETATM   22  C   UNL     1     -11.921  12.766  70.040  1.00  0.00    -0.371 A  
ENDBRANCH  12  13
ENDBRANCH   6  12
ENDBRANCH   5   6
ENDBRANCH   4   5
ENDBRANCH   2   4
TORSDOF 6
ENDMDL
MODEL       79
REMARK 921   NORMALIZED FREE ENERGY PREDICTED BY IDOCK:   -4.84 KCAL/MOL
REMARK 922        TOTAL FREE ENERGY PREDICTED BY IDOCK:   -7.43 KCAL/MOL
REMARK 923 INTER-LIGAND FREE ENERGY PREDICTED BY IDOCK:   -6.19 KCAL/MOL
REMARK 924 INTRA-LIGAND FREE ENERGY PREDICTED BY IDOCK:   -1.24 KCAL/MOL
REMARK 927      BINDING AFFINITY PREDICTED BY RF-SCORE:    0.00 PKD
ROOT
HETATM    1  C   UNL     1     -14.359   8.425  72.012  1.00  0.00    -0.464 C  
HETATM    2  N   UNL     1     -13.051   8.232  71.390  1.00  0.00    -0.464 NA 
HETATM    3  H   UNL     1     -12.881   8.914  70.650  1.00  0.00     0.000 HD 
ENDROOT
BRANCH   2   4
HETATM    4  C   UNL     1     -11.983   8.249  72.396  1.00  0.00    -0.384 C  
BRANCH   4   5
HETATM    5  C   UNL     1     -10.570   8.163  71.796  1.00  0.00    -0.313 C  
BRANCH   5   6
HETATM    6  C   UNL     1     -10.152   9.295  70.842  1.00  0.00    -0.302 C  
BRANCH   6   7
HETATM    7  C   UNL     1      -8.777   9.065  70.239  1.00  0.00    -0.184 A  
HETATM    8  C   UNL     1      -6.736   7.997  69.330  1.00  0.00    -0.040 A  
HETATM    9  S   UNL     1      -8.221   7.456  69.976  1.00  0.00    -0.133 SA 
HETATM   10  C   UNL     1      -7.817   9.985  69.857  1.00  0.00    -0.185 A  
HETATM   11  C   UNL     1      -6.643   9.370  69.329  1.00  0.00    -0.048 A  
ENDBRANCH   6   7
BRANCH   6  12
HETATM   12  O   UNL     1     -11.082   9.359  69.728  1.00  0.00    -0.233 OA 
BRANCH  12  13
HETATM   13  C   UNL     1     -11.331  10.606  69.188  1.00  0.00    -0.273 A  
HETATM   14  C   UNL     1     -12.151  12.883  69.379  1.00  0.00    -0.254 A  
HETATM   15  C   UNL     1     -11.856  11.653  69.955  1.00  0.00    -0.435 A  
HETATM   16  C   UNL     1     -11.904  13.092  68.027  1.00  0.00    -0.398 A  
HETATM   17  C   UNL     1     -11.316  12.094  67.244  1.00  0.00    -0.398 A  
HETATM   18  C   UNL     1     -11.046  12.348  65.891  1.00  0.00    -0.349 A  
HETATM   19  C   UNL     1     -10.414  11.398  65.093  1.00  0.00    -0.351 A  
HETATM   20  C   UNL     1     -10.044  10.179  65.647  1.00  0.00    -0.324 A  
HETATM   21  C   UNL     1     -10.333   9.897  66.991  1.00  0.00    -0.303 A  
HETATM   22  C   UNL     1     -10.990  10.837  67.822  1.00  0.00    -0.354 A  
ENDBRANCH  12  13
ENDBRANCH   6  12
ENDBRANCH   5   6
ENDBRANCH   4   5
ENDBRANCH   2   4
TORSDOF 6
ENDMDL
MODEL       80
REMARK 921   NORMALIZED FREE ENERGY PREDICTED BY IDOCK:   -4.82 KCAL/MOL
REMARK 922        TOTAL FREE ENERGY PREDICTED BY IDOCK:   -7.41 KCAL/MOL
REMARK 923 INTER-LIGAND FREE ENERGY PREDICTED BY IDOCK:   -6.42 KCAL/MOL
REMARK 924 INTRA-LIGAND FREE ENERGY PREDICTED BY IDOCK:   -0.99 KCAL/MOL
REMARK 927      BINDING AFFINITY PREDICTED BY RF-SCORE:    0.00 PKD
ROOT
HETATM    1  C   UNL     1      -7.171   9.900  65.819  1.00  0.00    -0.110 C  
HETATM    2  N   UNL     1      -8.423  10.207  66.508  1.00  0.00    -0.126 NA 
HETATM    3  H   UNL     1      -9.037   9.394  66.554  1.00  0.00     0.000 HD 
ENDROOT
BRANCH   2   4
HETATM    4  C   UNL     1      -8.165  10.767  67.839  1.00  0.00    -0.113 C  
BRANCH   4   5
HETATM    5  C   UNL     1      -8.860  12.117  68.084  1.00  0.00    -0.187 C  
BRANCH   5   6
HETATM    6  C   UNL     1     -10.372  12.077  68.363  1.00  0.00    -0.214 C  
BRANCH   6   7
HETATM    7  C   UNL     1     -11.189  12.589  67.190  1.00  0.00    -0.300 A  
HETATM    8  C   UNL     1     -12.514  14.031  65.673  1.00  0.00    -0.504 A  
HETATM    9  S   UNL     1     -11.756  14.216  67.192  1.00  0.00    -0.420 SA 
HETATM   10  C   UNL     1     -11.607  11.925  66.050  1.00  0.00    -0.296 A  
HETATM   11  C   UNL     1     -12.366  12.757  65.174  1.00  0.00    -0.555 A  
ENDBRANCH   6   7
BRANCH   6  12
HETATM   12  O   UNL     1     -10.790  10.703  68.584  1.00  0.00    -0.196 OA 
BRANCH  12  13
HETATM   13  C   UNL     1     -11.482  10.436  69.748  1.00  0.00    -0.280 A  
HETATM   14  C   UNL     1     -12.946  11.121  71.560  1.00  0.00    -0.542 A  
HETATM   15  C   UNL     1     -12.301  11.394  70.359  1.00  0.00    -0.404 A  
HETATM   16  C   UNL     1     -12.799   9.875  72.158  1.00  0.00    -0.435 A  
HETATM   17  C   UNL     1     -12.048   8.869  71.542  1.00  0.00    -0.395 A  
HETATM   18  C   UNL     1     -11.949   7.610  72.153  1.00  0.00    -0.344 A  
HETATM   19  C   UNL     1     -11.253   6.569  71.545  1.00  0.00    -0.322 A  
HETATM   20  C   UNL     1     -10.648   6.781  70.312  1.00  0.00    -0.251 A  
HETATM   21  C   UNL     1     -10.712   8.042  69.702  1.00  0.00    -0.207 A  
HETATM   22  C   UNL     1     -11.398   9.125  70.304  1.00  0.00    -0.217 A  
ENDBRANCH  12  13
ENDBRANCH   6  12
ENDBRANCH   5   6
ENDBRANCH   4   5
ENDBRANCH   2   4
TORSDOF 6
ENDMDL
MODEL       81
REMARK 921   NORMALIZED FREE ENERGY PREDICTED BY IDOCK:   -4.77 KCAL/MOL
REMARK 922        TOTAL FREE ENERGY PREDICTED BY IDOCK:   -7.35 KCAL/MOL
REMARK 923 INTER-LIGAND FREE ENERGY PREDICTED BY IDOCK:   -6.22 KCAL/MOL
REMARK 924 INTRA-LIGAND FREE ENERGY PREDICTED BY IDOCK:   -1.12 KCAL/MOL
REMARK 927      BINDING AFFINITY PREDICTED BY RF-SCORE:    0.00 PKD
ROOT
HETATM    1  C   UNL     1     -13.093   9.724  71.390  1.00  0.00    -0.400 C  
HETATM    2  N   UNL     1     -12.129   9.713  70.291  1.00  0.00    -0.470 NA 
HETATM    3  H   UNL     1     -12.222  10.539  69.700  1.00  0.00     0.000 HD 
ENDROOT
BRANCH   2   4
HETATM    4  C   UNL     1     -10.760   9.561  70.796  1.00  0.00    -0.321 C  
BRANCH   4   5
HETATM    5  C   UNL     1      -9.701   9.468  69.684  1.00  0.00    -0.215 C  
BRANCH   5   6
HETATM    6  C   UNL     1      -9.510  10.715  68.803  1.00  0.00    -0.183 C  
BRANCH   6   7
HETATM    7  C   UNL     1      -8.170  10.720  68.090  1.00  0.00    -0.119 A  
HETATM    8  C   UNL     1      -5.976  10.042  67.163  1.00  0.00    -0.051 A  
HETATM    9  S   UNL     1      -7.202   9.295  68.088  1.00  0.00    -0.078 SA 
HETATM   10  C   UNL     1      -7.536  11.746  67.412  1.00  0.00    -0.143 A  
HETATM   11  C   UNL     1      -6.274  11.354  66.874  1.00  0.00    -0.135 A  
ENDBRANCH   6   7
BRANCH   6  12
HETATM   12  O   UNL     1     -10.526  10.737  67.765  1.00  0.00    -0.186 OA 
BRANCH  12  13
HETATM   13  C   UNL     1     -11.052  11.968  67.425  1.00  0.00    -0.281 A  
HETATM   14  C   UNL     1     -11.913  14.156  68.031  1.00  0.00    -0.372 A  
HETATM   15  C   UNL     1     -11.333  12.945  68.389  1.00  0.00    -0.329 A  
HETATM   16  C   UNL     1     -12.202  14.419  66.696  1.00  0.00    -0.340 A  
HETATM   17  C   UNL     1     -11.872  13.497  65.698  1.00  0.00    -0.397 A  
HETATM   18  C   UNL     1     -12.143  13.806  64.357  1.00  0.00    -0.474 A  
HETATM   19  C   UNL     1     -11.782  12.937  63.331  1.00  0.00    -0.526 A  
HETATM   20  C   UNL     1     -11.141  11.744  63.641  1.00  0.00    -0.518 A  
HETATM   21  C   UNL     1     -10.889  11.406  64.979  1.00  0.00    -0.311 A  
HETATM   22  C   UNL     1     -11.260  12.262  66.045  1.00  0.00    -0.375 A  
ENDBRANCH  12  13
ENDBRANCH   6  12
ENDBRANCH   5   6
ENDBRANCH   4   5
ENDBRANCH   2   4
TORSDOF 6
ENDMDL
MODEL       82
REMARK 921   NORMALIZED FREE ENERGY PREDICTED BY IDOCK:   -4.77 KCAL/MOL
REMARK 922        TOTAL FREE ENERGY PREDICTED BY IDOCK:   -7.34 KCAL/MOL
REMARK 923 INTER-LIGAND FREE ENERGY PREDICTED BY IDOCK:   -6.47 KCAL/MOL
REMARK 924 INTRA-LIGAND FREE ENERGY PREDICTED BY IDOCK:   -0.87 KCAL/MOL
REMARK 927      BINDING AFFINITY PREDICTED BY RF-SCORE:    0.00 PKD
ROOT
HETATM    1  C   UNL     1     -10.548  11.509  63.622  1.00  0.00    -0.429 C  
HETATM    2  N   UNL     1      -9.234  11.664  64.243  1.00  0.00    -0.421 NA 
HETATM    3  H   UNL     1      -8.801  12.553  63.992  1.00  0.00     0.000 HD 
ENDROOT
BRANCH   2   4
HETATM    4  C   UNL     1      -9.317  11.494  65.698  1.00  0.00    -0.204 C  
BRANCH   4   5
HETATM    5  C   UNL     1      -9.822  12.745  66.435  1.00  0.00    -0.269 C  
BRANCH   5   6
HETATM    6  C   UNL     1      -9.919  12.654  67.968  1.00  0.00    -0.220 C  
BRANCH   6   7
HETATM    7  C   UNL     1     -10.673  13.826  68.570  1.00  0.00    -0.262 A  
HETATM    8  C   UNL     1     -11.228  15.989  69.643  1.00  0.00    -0.336 A  
HETATM    9  S   UNL     1      -9.797  15.172  69.193  1.00  0.00    -0.233 SA 
HETATM   10  C   UNL     1     -12.035  14.006  68.738  1.00  0.00    -0.382 A  
HETATM   11  C   UNL     1     -12.354  15.254  69.352  1.00  0.00    -0.168 A  
ENDBRANCH   6   7
BRANCH   6  12
HETATM   12  O   UNL     1     -10.658  11.459  68.338  1.00  0.00    -0.185 OA 
BRANCH  12  13
HETATM   13  C   UNL     1     -10.075  10.621  69.267  1.00  0.00    -0.206 A  
HETATM   14  C   UNL     1      -8.144   9.452  70.164  1.00  0.00    -0.167 A  
HETATM   15  C   UNL     1      -8.702  10.342  69.253  1.00  0.00    -0.160 A  
HETATM   16  C   UNL     1      -8.950   8.843  71.120  1.00  0.00    -0.305 A  
HETATM   17  C   UNL     1     -10.311   9.150  71.210  1.00  0.00    -0.405 A  
HETATM   18  C   UNL     1     -11.090   8.546  72.208  1.00  0.00    -0.430 A  
HETATM   19  C   UNL     1     -12.436   8.866  72.362  1.00  0.00    -0.405 A  
HETATM   20  C   UNL     1     -13.017   9.799  71.513  1.00  0.00    -0.504 A  
HETATM   21  C   UNL     1     -12.260  10.390  70.490  1.00  0.00    -0.412 A  
HETATM   22  C   UNL     1     -10.893  10.073  70.298  1.00  0.00    -0.370 A  
ENDBRANCH  12  13
ENDBRANCH   6  12
ENDBRANCH   5   6
ENDBRANCH   4   5
ENDBRANCH   2   4
TORSDOF 6
ENDMDL
MODEL       83
REMARK 921   NORMALIZED FREE ENERGY PREDICTED BY IDOCK:   -4.76 KCAL/MOL
REMARK 922        TOTAL FREE ENERGY PREDICTED BY IDOCK:   -7.33 KCAL/MOL
REMARK 923 INTER-LIGAND FREE ENERGY PREDICTED BY IDOCK:   -6.58 KCAL/MOL
REMARK 924 INTRA-LIGAND FREE ENERGY PREDICTED BY IDOCK:   -0.75 KCAL/MOL
REMARK 927      BINDING AFFINITY PREDICTED BY RF-SCORE:    0.00 PKD
ROOT
HETATM    1  C   UNL     1     -12.597  12.123  63.429  1.00  0.00    -0.463 C  
HETATM    2  N   UNL     1     -12.374  13.546  63.181  1.00  0.00    -1.024 NA 
HETATM    3  H   UNL     1     -13.213  14.001  62.821  1.00  0.00     0.000 HD 
ENDROOT
BRANCH   2   4
HETATM    4  C   UNL     1     -11.868  14.215  64.385  1.00  0.00    -0.428 C  
BRANCH   4   5
HETATM    5  C   UNL     1     -10.543  13.633  64.902  1.00  0.00    -0.421 C  
BRANCH   5   6
HETATM    6  C   UNL     1     -10.445  13.368  66.414  1.00  0.00    -0.286 C  
BRANCH   6   7
HETATM    7  C   UNL     1     -10.257  11.895  66.732  1.00  0.00    -0.206 A  
HETATM    8  C   UNL     1     -10.445   9.649  67.758  1.00  0.00    -0.256 A  
HETATM    9  S   UNL     1     -11.150  11.182  68.021  1.00  0.00    -0.301 SA 
HETATM   10  C   UNL     1      -9.419  10.966  66.142  1.00  0.00    -0.230 A  
HETATM   11  C   UNL     1      -9.531   9.671  66.730  1.00  0.00    -0.209 A  
ENDBRANCH   6   7
BRANCH   6  12
HETATM   12  O   UNL     1      -9.283  14.054  66.954  1.00  0.00    -0.241 OA 
BRANCH  12  13
HETATM   13  C   UNL     1      -9.514  15.207  67.679  1.00  0.00    -0.201 A  
HETATM   14  C   UNL     1     -10.836  16.507  69.246  1.00  0.00    -0.326 A  
HETATM   15  C   UNL     1     -10.590  15.319  68.567  1.00  0.00    -0.237 A  
HETATM   16  C   UNL     1      -9.993  17.597  69.062  1.00  0.00    -0.264 A  
HETATM   17  C   UNL     1      -8.868  17.501  68.237  1.00  0.00    -0.274 A  
HETATM   18  C   UNL     1      -8.016  18.607  68.101  1.00  0.00    -0.312 A  
HETATM   19  C   UNL     1      -6.859  18.533  67.330  1.00  0.00    -0.207 A  
HETATM   20  C   UNL     1      -6.542  17.342  66.687  1.00  0.00    -0.264 A  
HETATM   21  C   UNL     1      -7.399  16.236  66.789  1.00  0.00    -0.244 A  
HETATM   22  C   UNL     1      -8.591  16.287  67.551  1.00  0.00    -0.189 A  
ENDBRANCH  12  13
ENDBRANCH   6  12
ENDBRANCH   5   6
ENDBRANCH   4   5
ENDBRANCH   2   4
TORSDOF 6
ENDMDL
MODEL       84
REMARK 921   NORMALIZED FREE ENERGY PREDICTED BY IDOCK:   -4.76 KCAL/MOL
REMARK 922        TOTAL FREE ENERGY PREDICTED BY IDOCK:   -7.32 KCAL/MOL
REMARK 923 INTER-LIGAND FREE ENERGY PREDICTED BY IDOCK:   -6.85 KCAL/MOL
REMARK 924 INTRA-LIGAND FREE ENERGY PREDICTED BY IDOCK:   -0.47 KCAL/MOL
REMARK 927      BINDING AFFINITY PREDICTED BY RF-SCORE:    0.00 PKD
ROOT
HETATM    1  C   UNL     1      -8.213  13.493  67.433  1.00  0.00    -0.181 C  
HETATM    2  N   UNL     1      -7.726  12.222  66.902  1.00  0.00    -0.359 NA 
HETATM    3  H   UNL     1      -6.774  12.025  67.208  1.00  0.00     0.000 HD 
ENDROOT
BRANCH   2   4
HETATM    4  C   UNL     1      -8.641  11.126  67.242  1.00  0.00    -0.140 C  
BRANCH   4   5
HETATM    5  C   UNL     1      -9.609  11.467  68.387  1.00  0.00    -0.195 C  
BRANCH   5   6
HETATM    6  C   UNL     1     -10.854  10.575  68.531  1.00  0.00    -0.234 C  
BRANCH   6   7
HETATM    7  C   UNL     1     -10.936   9.911  69.894  1.00  0.00    -0.281 A  
HETATM    8  C   UNL     1     -10.401   8.613  71.935  1.00  0.00    -0.335 A  
HETATM    9  S   UNL     1      -9.603   8.986  70.471  1.00  0.00    -0.238 SA 
HETATM   10  C   UNL     1     -11.974   9.901  70.809  1.00  0.00    -0.410 A  
HETATM   11  C   UNL     1     -11.664   9.157  71.986  1.00  0.00    -0.384 A  
ENDBRANCH   6   7
BRANCH   6  12
HETATM   12  O   UNL     1     -12.052  11.387  68.400  1.00  0.00    -0.575 OA 
BRANCH  12  13
HETATM   13  C   UNL     1     -11.878  12.717  68.071  1.00  0.00    -0.336 A  
HETATM   14  C   UNL     1     -11.500  15.033  68.696  1.00  0.00    -0.329 A  
HETATM   15  C   UNL     1     -11.618  13.692  69.042  1.00  0.00    -0.356 A  
HETATM   16  C   UNL     1     -11.619  15.418  67.365  1.00  0.00    -0.135 A  
HETATM   17  C   UNL     1     -11.809  14.466  66.359  1.00  0.00    -0.402 A  
HETATM   18  C   UNL     1     -11.888  14.882  65.022  1.00  0.00    -0.299 A  
HETATM   19  C   UNL     1     -12.024  13.959  63.988  1.00  0.00    -0.425 A  
HETATM   20  C   UNL     1     -12.080  12.603  64.287  1.00  0.00    -0.502 A  
HETATM   21  C   UNL     1     -12.032  12.172  65.621  1.00  0.00    -0.280 A  
HETATM   22  C   UNL     1     -11.911  13.088  66.694  1.00  0.00    -0.453 A  
ENDBRANCH  12  13
ENDBRANCH   6  12
ENDBRANCH   5   6
ENDBRANCH   4   5
ENDBRANCH   2   4
TORSDOF 6
ENDMDL
MODEL       85
REMARK 921   NORMALIZED FREE ENERGY PREDICTED BY IDOCK:   -4.74 KCAL/MOL
REMARK 922        TOTAL FREE ENERGY PREDICTED BY IDOCK:   -7.29 KCAL/MOL
REMARK 923 INTER-LIGAND FREE ENERGY PREDICTED BY IDOCK:   -6.17 KCAL/MOL
REMARK 924 INTRA-LIGAND FREE ENERGY PREDICTED BY IDOCK:   -1.12 KCAL/MOL
REMARK 927      BINDING AFFINITY PREDICTED BY RF-SCORE:    0.00 PKD
ROOT
HETATM    1  C   UNL     1      -7.340  12.491  67.653  1.00  0.00    -0.134 C  
HETATM    2  N   UNL     1      -8.342  13.302  68.341  1.00  0.00    -0.229 NA 
HETATM    3  H   UNL     1      -7.911  14.019  68.924  1.00  0.00     0.000 HD 
ENDROOT
BRANCH   2   4
HETATM    4  C   UNL     1      -9.294  13.882  67.386  1.00  0.00    -0.228 C  
BRANCH   4   5
HETATM    5  C   UNL     1     -10.764  13.580  67.722  1.00  0.00    -0.262 C  
BRANCH   5   6
HETATM    6  C   UNL     1     -11.304  12.204  67.297  1.00  0.00    -0.334 C  
BRANCH   6   7
HETATM    7  C   UNL     1     -11.498  12.097  65.795  1.00  0.00    -0.361 A  
HETATM    8  C   UNL     1     -12.339  12.403  63.486  1.00  0.00    -0.546 A  
HETATM    9  S   UNL     1     -12.735  13.018  65.029  1.00  0.00    -0.284 SA 
HETATM   10  C   UNL     1     -10.822  11.318  64.872  1.00  0.00    -0.299 A  
HETATM   11  C   UNL     1     -11.304  11.499  63.541  1.00  0.00    -0.375 A  
ENDBRANCH   6   7
BRANCH   6  12
HETATM   12  O   UNL     1     -10.346  11.173  67.660  1.00  0.00    -0.182 OA 
BRANCH  12  13
HETATM   13  C   UNL     1     -10.685  10.340  68.708  1.00  0.00    -0.219 A  
HETATM   14  C   UNL     1     -11.328   9.983  71.022  1.00  0.00    -0.434 A  
HETATM   15  C   UNL     1     -11.044  10.841  69.965  1.00  0.00    -0.327 A  
HETATM   16  C   UNL     1     -11.279   8.607  70.830  1.00  0.00    -0.298 A  
HETATM   17  C   UNL     1     -10.993   8.070  69.571  1.00  0.00    -0.062 A  
HETATM   18  C   UNL     1     -10.987   6.678  69.400  1.00  0.00    -0.361 A  
HETATM   19  C   UNL     1     -10.758   6.107  68.151  1.00  0.00    -0.367 A  
HETATM   20  C   UNL     1     -10.534   6.931  67.055  1.00  0.00    -0.374 A  
HETATM   21  C   UNL     1     -10.507   8.324  67.214  1.00  0.00    -0.373 A  
HETATM   22  C   UNL     1     -10.719   8.933  68.475  1.00  0.00    -0.124 A  
ENDBRANCH  12  13
ENDBRANCH   6  12
ENDBRANCH   5   6
ENDBRANCH   4   5
ENDBRANCH   2   4
TORSDOF 6
ENDMDL
MODEL       86
REMARK 921   NORMALIZED FREE ENERGY PREDICTED BY IDOCK:   -4.72 KCAL/MOL
REMARK 922        TOTAL FREE ENERGY PREDICTED BY IDOCK:   -7.27 KCAL/MOL
REMARK 923 INTER-LIGAND FREE ENERGY PREDICTED BY IDOCK:   -6.37 KCAL/MOL
REMARK 924 INTRA-LIGAND FREE ENERGY PREDICTED BY IDOCK:   -0.90 KCAL/MOL
REMARK 927      BINDING AFFINITY PREDICTED BY RF-SCORE:    0.00 PKD
ROOT
HETATM    1  C   UNL     1     -12.192  13.835  65.272  1.00  0.00    -0.439 C  
HETATM    2  N   UNL     1     -12.514  13.058  66.468  1.00  0.00    -0.328 NA 
HETATM    3  H   UNL     1     -12.702  12.081  66.243  1.00  0.00     0.000 HD 
ENDROOT
BRANCH   2   4
HETATM    4  C   UNL     1     -11.457  13.187  67.477  1.00  0.00    -0.328 C  
BRANCH   4   5
HETATM    5  C   UNL     1     -10.397  12.076  67.404  1.00  0.00    -0.226 C  
BRANCH   5   6
HETATM    6  C   UNL     1     -10.747  10.738  68.079  1.00  0.00    -0.228 C  
BRANCH   6   7
HETATM    7  C   UNL     1     -10.018   9.565  67.450  1.00  0.00    -0.189 A  
HETATM    8  C   UNL     1      -8.300   8.145  66.368  1.00  0.00    -0.115 A  
HETATM    9  S   UNL     1      -8.405   9.770  66.881  1.00  0.00    -0.120 SA 
HETATM   10  C   UNL     1     -10.460   8.274  67.217  1.00  0.00    -0.373 A  
HETATM   11  C   UNL     1      -9.469   7.455  66.598  1.00  0.00    -0.240 A  
ENDBRANCH   6   7
BRANCH   6  12
HETATM   12  O   UNL     1     -10.337  10.775  69.472  1.00  0.00    -0.215 OA 
BRANCH  12  13
HETATM   13  C   UNL     1     -11.154  10.137  70.385  1.00  0.00    -0.324 A  
HETATM   14  C   UNL     1     -13.328   9.761  71.399  1.00  0.00    -0.449 A  
HETATM   15  C   UNL     1     -12.533  10.373  70.436  1.00  0.00    -0.348 A  
HETATM   16  C   UNL     1     -12.757   8.885  72.314  1.00  0.00    -0.464 A  
HETATM   17  C   UNL     1     -11.396   8.570  72.251  1.00  0.00    -0.441 A  
HETATM   18  C   UNL     1     -10.856   7.654  73.166  1.00  0.00    -0.440 A  
HETATM   19  C   UNL     1      -9.518   7.277  73.101  1.00  0.00    -0.228 A  
HETATM   20  C   UNL     1      -8.704   7.816  72.113  1.00  0.00    -0.169 A  
HETATM   21  C   UNL     1      -9.220   8.756  71.209  1.00  0.00    -0.309 A  
HETATM   22  C   UNL     1     -10.573   9.172  71.260  1.00  0.00    -0.399 A  
ENDBRANCH  12  13
ENDBRANCH   6  12
ENDBRANCH   5   6
ENDBRANCH   4   5
ENDBRANCH   2   4
TORSDOF 6
ENDMDL
MODEL       87
REMARK 921   NORMALIZED FREE ENERGY PREDICTED BY IDOCK:   -4.72 KCAL/MOL
REMARK 922        TOTAL FREE ENERGY PREDICTED BY IDOCK:   -7.27 KCAL/MOL
REMARK 923 INTER-LIGAND FREE ENERGY PREDICTED BY IDOCK:   -6.44 KCAL/MOL
REMARK 924 INTRA-LIGAND FREE ENERGY PREDICTED BY IDOCK:   -0.83 KCAL/MOL
REMARK 927      BINDING AFFINITY PREDICTED BY RF-SCORE:    0.00 PKD
ROOT
HETATM    1  C   UNL     1     -10.478  11.197  63.911  1.00  0.00    -0.381 C  
HETATM    2  N   UNL     1      -9.751  12.129  64.771  1.00  0.00    -0.449 NA 
HETATM    3  H   UNL     1     -10.123  13.076  64.700  1.00  0.00     0.000 HD 
ENDROOT
BRANCH   2   4
HETATM    4  C   UNL     1      -9.733  11.656  66.160  1.00  0.00    -0.229 C  
BRANCH   4   5
HETATM    5  C   UNL     1      -9.342  10.175  66.301  1.00  0.00    -0.214 C  
BRANCH   5   6
HETATM    6  C   UNL     1     -10.254   9.298  67.175  1.00  0.00    -0.257 C  
BRANCH   6   7
HETATM    7  C   UNL     1     -10.120   7.821  66.851  1.00  0.00    -0.286 A  
HETATM    8  C   UNL     1      -9.248   5.630  66.095  1.00  0.00    -0.159 A  
HETATM    9  S   UNL     1      -8.666   7.235  66.138  1.00  0.00    -0.150 SA 
HETATM   10  C   UNL     1     -11.033   6.795  67.020  1.00  0.00    -0.439 A  
HETATM   11  C   UNL     1     -10.529   5.532  66.588  1.00  0.00    -0.355 A  
ENDBRANCH   6   7
BRANCH   6  12
HETATM   12  O   UNL     1      -9.878   9.446  68.571  1.00  0.00    -0.150 OA 
BRANCH  12  13
HETATM   13  C   UNL     1     -10.849   9.903  69.440  1.00  0.00    -0.237 A  
HETATM   14  C   UNL     1     -12.225  11.685  70.349  1.00  0.00    -0.434 A  
HETATM   15  C   UNL     1     -11.286  11.234  69.429  1.00  0.00    -0.345 A  
HETATM   16  C   UNL     1     -12.760  10.805  71.282  1.00  0.00    -0.546 A  
HETATM   17  C   UNL     1     -12.402   9.453  71.278  1.00  0.00    -0.422 A  
HETATM   18  C   UNL     1     -12.987   8.582  72.209  1.00  0.00    -0.384 A  
HETATM   19  C   UNL     1     -12.695   7.221  72.203  1.00  0.00    -0.135 A  
HETATM   20  C   UNL     1     -11.810   6.717  71.257  1.00  0.00    -0.396 A  
HETATM   21  C   UNL     1     -11.193   7.579  70.339  1.00  0.00    -0.270 A  
HETATM   22  C   UNL     1     -11.457   8.971  70.332  1.00  0.00    -0.202 A  
ENDBRANCH  12  13
ENDBRANCH   6  12
ENDBRANCH   5   6
ENDBRANCH   4   5
ENDBRANCH   2   4
TORSDOF 6
ENDMDL
MODEL       88
REMARK 921   NORMALIZED FREE ENERGY PREDICTED BY IDOCK:   -4.71 KCAL/MOL
REMARK 922        TOTAL FREE ENERGY PREDICTED BY IDOCK:   -7.26 KCAL/MOL
REMARK 923 INTER-LIGAND FREE ENERGY PREDICTED BY IDOCK:   -6.33 KCAL/MOL
REMARK 924 INTRA-LIGAND FREE ENERGY PREDICTED BY IDOCK:   -0.93 KCAL/MOL
REMARK 927      BINDING AFFINITY PREDICTED BY RF-SCORE:    0.00 PKD
ROOT
HETATM    1  C   UNL     1     -10.681   5.883  66.850  1.00  0.00    -0.321 C  
HETATM    2  N   UNL     1     -10.152   6.913  67.742  1.00  0.00    -0.151 NA 
HETATM    3  H   UNL     1      -9.456   6.534  68.384  1.00  0.00     0.000 HD 
ENDROOT
BRANCH   2   4
HETATM    4  C   UNL     1      -9.623   8.048  66.978  1.00  0.00    -0.196 C  
BRANCH   4   5
HETATM    5  C   UNL     1     -10.486   9.317  67.084  1.00  0.00    -0.319 C  
BRANCH   5   6
HETATM    6  C   UNL     1     -10.410  10.098  68.407  1.00  0.00    -0.183 C  
BRANCH   6   7
HETATM    7  C   UNL     1      -9.073  10.793  68.593  1.00  0.00    -0.173 A  
HETATM    8  C   UNL     1      -6.789  11.374  69.354  1.00  0.00    -0.112 A  
HETATM    9  S   UNL     1      -7.918  10.136  69.688  1.00  0.00    -0.157 SA 
HETATM   10  C   UNL     1      -8.595  11.954  68.012  1.00  0.00    -0.168 A  
HETATM   11  C   UNL     1      -7.278  12.286  68.447  1.00  0.00    -0.102 A  
ENDBRANCH   6   7
BRANCH   6  12
HETATM   12  O   UNL     1     -11.419  11.144  68.412  1.00  0.00    -0.262 OA 
BRANCH  12  13
HETATM   13  C   UNL     1     -12.000  11.452  69.626  1.00  0.00    -0.348 A  
HETATM   14  C   UNL     1     -13.018  10.789  71.729  1.00  0.00    -0.568 A  
HETATM   15  C   UNL     1     -12.385  10.459  70.536  1.00  0.00    -0.410 A  
HETATM   16  C   UNL     1     -13.257  12.123  72.041  1.00  0.00    -0.496 A  
HETATM   17  C   UNL     1     -12.824  13.145  71.191  1.00  0.00    -0.349 A  
HETATM   18  C   UNL     1     -13.047  14.482  71.551  1.00  0.00    -0.413 A  
HETATM   19  C   UNL     1     -12.585  15.528  70.757  1.00  0.00    -0.505 A  
HETATM   20  C   UNL     1     -11.890  15.241  69.588  1.00  0.00    -0.363 A  
HETATM   21  C   UNL     1     -11.684  13.910  69.198  1.00  0.00    -0.382 A  
HETATM   22  C   UNL     1     -12.157  12.825  69.976  1.00  0.00    -0.355 A  
ENDBRANCH  12  13
ENDBRANCH   6  12
ENDBRANCH   5   6
ENDBRANCH   4   5
ENDBRANCH   2   4
TORSDOF 6
ENDMDL
MODEL       89
REMARK 921   NORMALIZED FREE ENERGY PREDICTED BY IDOCK:   -4.71 KCAL/MOL
REMARK 922        TOTAL FREE ENERGY PREDICTED BY IDOCK:   -7.26 KCAL/MOL
REMARK 923 INTER-LIGAND FREE ENERGY PREDICTED BY IDOCK:   -6.53 KCAL/MOL
REMARK 924 INTRA-LIGAND FREE ENERGY PREDICTED BY IDOCK:   -0.73 KCAL/MOL
REMARK 927      BINDING AFFINITY PREDICTED BY RF-SCORE:    0.00 PKD
ROOT
HETATM    1  C   UNL     1      -8.759  10.674  65.364  1.00  0.00    -0.185 C  
HETATM    2  N   UNL     1     -10.143  10.589  65.825  1.00  0.00    -0.260 NA 
HETATM    3  H   UNL     1     -10.687   9.933  65.264  1.00  0.00     0.000 HD 
ENDROOT
BRANCH   2   4
HETATM    4  C   UNL     1     -10.201  10.256  67.253  1.00  0.00    -0.218 C  
BRANCH   4   5
HETATM    5  C   UNL     1      -9.993  11.469  68.176  1.00  0.00    -0.197 C  
BRANCH   5   6
HETATM    6  C   UNL     1     -11.189  12.420  68.350  1.00  0.00    -0.273 C  
BRANCH   6   7
HETATM    7  C   UNL     1     -11.945  12.169  69.643  1.00  0.00    -0.284 A  
HETATM    8  C   UNL     1     -13.206  12.483  71.751  1.00  0.00    -0.344 A  
HETATM    9  S   UNL     1     -12.529  13.504  70.561  1.00  0.00    -0.262 SA 
HETATM   10  C   UNL     1     -12.249  10.972  70.267  1.00  0.00    -0.447 A  
HETATM   11  C   UNL     1     -12.979  11.154  71.479  1.00  0.00    -0.542 A  
ENDBRANCH   6   7
BRANCH   6  12
HETATM   12  O   UNL     1     -10.713  13.792  68.415  1.00  0.00    -0.240 OA 
BRANCH  12  13
HETATM   13  C   UNL     1     -10.890  14.573  67.290  1.00  0.00    -0.297 A  
HETATM   14  C   UNL     1     -11.439  14.826  64.938  1.00  0.00    -0.412 A  
HETATM   15  C   UNL     1     -11.320  14.031  66.072  1.00  0.00    -0.328 A  
HETATM   16  C   UNL     1     -11.150  16.184  65.010  1.00  0.00    -0.304 A  
HETATM   17  C   UNL     1     -10.786  16.775  66.224  1.00  0.00    -0.106 A  
HETATM   18  C   UNL     1     -10.536  18.154  66.273  1.00  0.00    -0.374 A  
HETATM   19  C   UNL     1     -10.222  18.787  67.472  1.00  0.00    -0.444 A  
HETATM   20  C   UNL     1     -10.157  18.039  68.641  1.00  0.00    -0.401 A  
HETATM   21  C   UNL     1     -10.374  16.653  68.606  1.00  0.00    -0.304 A  
HETATM   22  C   UNL     1     -10.679  15.979  67.398  1.00  0.00    -0.306 A  
ENDBRANCH  12  13
ENDBRANCH   6  12
ENDBRANCH   5   6
ENDBRANCH   4   5
ENDBRANCH   2   4
TORSDOF 6
ENDMDL
MODEL       90
REMARK 921   NORMALIZED FREE ENERGY PREDICTED BY IDOCK:   -4.69 KCAL/MOL
REMARK 922        TOTAL FREE ENERGY PREDICTED BY IDOCK:   -7.24 KCAL/MOL
REMARK 923 INTER-LIGAND FREE ENERGY PREDICTED BY IDOCK:   -6.39 KCAL/MOL
REMARK 924 INTRA-LIGAND FREE ENERGY PREDICTED BY IDOCK:   -0.85 KCAL/MOL
REMARK 927      BINDING AFFINITY PREDICTED BY RF-SCORE:    0.00 PKD
ROOT
HETATM    1  C   UNL     1     -10.317   7.168  73.702  1.00  0.00    -0.368 C  
HETATM    2  N   UNL     1     -10.781   7.304  72.322  1.00  0.00    -0.221 NA 
HETATM    3  H   UNL     1     -11.648   6.792  72.164  1.00  0.00     0.000 HD 
ENDROOT
BRANCH   2   4
HETATM    4  C   UNL     1     -10.910   8.717  71.949  1.00  0.00    -0.348 C  
BRANCH   4   5
HETATM    5  C   UNL     1      -9.745   9.236  71.090  1.00  0.00    -0.327 C  
BRANCH   5   6
HETATM    6  C   UNL     1     -10.037   9.477  69.599  1.00  0.00    -0.212 C  
BRANCH   6   7
HETATM    7  C   UNL     1     -10.124   8.184  68.810  1.00  0.00    -0.199 A  
HETATM    8  C   UNL     1      -9.757   5.872  68.000  1.00  0.00    -0.119 A  
HETATM    9  S   UNL     1      -9.118   6.854  69.242  1.00  0.00    -0.139 SA 
HETATM   10  C   UNL     1     -10.909   7.870  67.715  1.00  0.00    -0.094 A  
HETATM   11  C   UNL     1     -10.701   6.537  67.251  1.00  0.00    -0.427 A  
ENDBRANCH   6   7
BRANCH   6  12
HETATM   12  O   UNL     1     -11.327  10.131  69.456  1.00  0.00    -0.237 OA 
BRANCH  12  13
HETATM   13  C   UNL     1     -11.321  11.494  69.234  1.00  0.00    -0.288 A  
HETATM   14  C   UNL     1     -10.702  13.433  67.910  1.00  0.00    -0.259 A  
HETATM   15  C   UNL     1     -10.746  12.055  68.087  1.00  0.00    -0.246 A  
HETATM   16  C   UNL     1     -11.254  14.273  68.871  1.00  0.00    -0.289 A  
HETATM   17  C   UNL     1     -11.899  13.748  69.995  1.00  0.00    -0.377 A  
HETATM   18  C   UNL     1     -12.478  14.621  70.928  1.00  0.00    -0.406 A  
HETATM   19  C   UNL     1     -13.173  14.135  72.032  1.00  0.00    -0.488 A  
HETATM   20  C   UNL     1     -13.296  12.763  72.212  1.00  0.00    -0.563 A  
HETATM   21  C   UNL     1     -12.697  11.876  71.305  1.00  0.00    -0.401 A  
HETATM   22  C   UNL     1     -11.970  12.340  70.181  1.00  0.00    -0.377 A  
ENDBRANCH  12  13
ENDBRANCH   6  12
ENDBRANCH   5   6
ENDBRANCH   4   5
ENDBRANCH   2   4
TORSDOF 6
ENDMDL
MODEL       91
REMARK 921   NORMALIZED FREE ENERGY PREDICTED BY IDOCK:   -4.69 KCAL/MOL
REMARK 922        TOTAL FREE ENERGY PREDICTED BY IDOCK:   -7.23 KCAL/MOL
REMARK 923 INTER-LIGAND FREE ENERGY PREDICTED BY IDOCK:   -6.41 KCAL/MOL
REMARK 924 INTRA-LIGAND FREE ENERGY PREDICTED BY IDOCK:   -0.82 KCAL/MOL
REMARK 927      BINDING AFFINITY PREDICTED BY RF-SCORE:    0.00 PKD
ROOT
HETATM    1  C   UNL     1     -10.647   5.032  66.196  1.00  0.00    -0.265 C  
HETATM    2  N   UNL     1     -11.197   6.330  66.585  1.00  0.00    -0.753 NA 
HETATM    3  H   UNL     1     -12.217   6.314  66.609  1.00  0.00     0.000 HD 
ENDROOT
BRANCH   2   4
HETATM    4  C   UNL     1     -10.632   6.777  67.862  1.00  0.00    -0.242 C  
BRANCH   4   5
HETATM    5  C   UNL     1     -11.271   6.103  69.088  1.00  0.00    -0.409 C  
BRANCH   5   6
HETATM    6  C   UNL     1     -10.720   6.506  70.467  1.00  0.00    -0.254 C  
BRANCH   6   7
HETATM    7  C   UNL     1      -9.522   5.669  70.878  1.00  0.00    -0.166 A  
HETATM    8  C   UNL     1      -7.932   3.795  71.182  1.00  0.00    -0.063 A  
HETATM    9  S   UNL     1      -9.440   4.013  70.411  1.00  0.00    -0.194 SA 
HETATM   10  C   UNL     1      -8.418   6.022  71.634  1.00  0.00    -0.127 A  
HETATM   11  C   UNL     1      -7.500   4.943  71.805  1.00  0.00    -0.087 A  
ENDBRANCH   6   7
BRANCH   6  12
HETATM   12  O   UNL     1     -10.260   7.884  70.423  1.00  0.00    -0.194 OA 
BRANCH  12  13
HETATM   13  C   UNL     1     -11.149   8.857  70.834  1.00  0.00    -0.271 A  
HETATM   14  C   UNL     1     -12.945   9.630  72.275  1.00  0.00    -0.440 A  
HETATM   15  C   UNL     1     -12.020   8.657  71.912  1.00  0.00    -0.424 A  
HETATM   16  C   UNL     1     -12.997  10.830  71.576  1.00  0.00    -0.562 A  
HETATM   17  C   UNL     1     -12.097  11.095  70.540  1.00  0.00    -0.474 A  
HETATM   18  C   UNL     1     -12.151  12.331  69.878  1.00  0.00    -0.319 A  
HETATM   19  C   UNL     1     -11.238  12.652  68.877  1.00  0.00    -0.329 A  
HETATM   20  C   UNL     1     -10.257  11.732  68.529  1.00  0.00    -0.215 A  
HETATM   21  C   UNL     1     -10.207  10.480  69.159  1.00  0.00    -0.241 A  
HETATM   22  C   UNL     1     -11.132  10.119  70.169  1.00  0.00    -0.378 A  
ENDBRANCH  12  13
ENDBRANCH   6  12
ENDBRANCH   5   6
ENDBRANCH   4   5
ENDBRANCH   2   4
TORSDOF 6
ENDMDL
MODEL       92
REMARK 921   NORMALIZED FREE ENERGY PREDICTED BY IDOCK:   -4.66 KCAL/MOL
REMARK 922        TOTAL FREE ENERGY PREDICTED BY IDOCK:   -7.20 KCAL/MOL
REMARK 923 INTER-LIGAND FREE ENERGY PREDICTED BY IDOCK:   -6.30 KCAL/MOL
REMARK 924 INTRA-LIGAND FREE ENERGY PREDICTED BY IDOCK:   -0.90 KCAL/MOL
REMARK 927      BINDING AFFINITY PREDICTED BY RF-SCORE:    0.00 PKD
ROOT
HETATM    1  C   UNL     1     -12.009   7.483  72.131  1.00  0.00    -0.285 C  
HETATM    2  N   UNL     1     -12.405   8.890  72.132  1.00  0.00    -0.375 NA 
HETATM    3  H   UNL     1     -12.482   9.258  73.080  1.00  0.00     0.000 HD 
ENDROOT
BRANCH   2   4
HETATM    4  C   UNL     1     -11.492   9.693  71.311  1.00  0.00    -0.392 C  
BRANCH   4   5
HETATM    5  C   UNL     1     -12.211  10.601  70.300  1.00  0.00    -0.417 C  
BRANCH   5   6
HETATM    6  C   UNL     1     -11.352  11.657  69.584  1.00  0.00    -0.236 C  
BRANCH   6   7
HETATM    7  C   UNL     1     -10.496  11.058  68.483  1.00  0.00    -0.189 A  
HETATM    8  C   UNL     1      -8.592  10.495  67.002  1.00  0.00    -0.127 A  
HETATM    9  S   UNL     1      -8.838  11.508  68.354  1.00  0.00    -0.147 SA 
HETATM   10  C   UNL     1     -10.842  10.167  67.482  1.00  0.00    -0.349 A  
HETATM   11  C   UNL     1      -9.744   9.839  66.632  1.00  0.00    -0.257 A  
ENDBRANCH   6   7
BRANCH   6  12
HETATM   12  O   UNL     1     -12.217  12.633  68.942  1.00  0.00    -0.181 OA 
BRANCH  12  13
HETATM   13  C   UNL     1     -11.744  13.927  68.846  1.00  0.00    -0.337 A  
HETATM   14  C   UNL     1     -11.076  16.031  69.857  1.00  0.00    -0.352 A  
HETATM   15  C   UNL     1     -11.501  14.713  69.979  1.00  0.00    -0.313 A  
HETATM   16  C   UNL     1     -10.866  16.577  68.596  1.00  0.00    -0.345 A  
HETATM   17  C   UNL     1     -11.030  15.802  67.444  1.00  0.00    -0.279 A  
HETATM   18  C   UNL     1     -10.774  16.372  66.187  1.00  0.00    -0.174 A  
HETATM   19  C   UNL     1     -10.876  15.617  65.022  1.00  0.00    -0.468 A  
HETATM   20  C   UNL     1     -11.235  14.278  65.105  1.00  0.00    -0.345 A  
HETATM   21  C   UNL     1     -11.523  13.701  66.351  1.00  0.00    -0.358 A  
HETATM   22  C   UNL     1     -11.444  14.447  67.552  1.00  0.00    -0.370 A  
ENDBRANCH  12  13
ENDBRANCH   6  12
ENDBRANCH   5   6
ENDBRANCH   4   5
ENDBRANCH   2   4
TORSDOF 6
ENDMDL
MODEL       93
REMARK 921   NORMALIZED FREE ENERGY PREDICTED BY IDOCK:   -4.64 KCAL/MOL
REMARK 922        TOTAL FREE ENERGY PREDICTED BY IDOCK:   -7.17 KCAL/MOL
REMARK 923 INTER-LIGAND FREE ENERGY PREDICTED BY IDOCK:   -6.05 KCAL/MOL
REMARK 924 INTRA-LIGAND FREE ENERGY PREDICTED BY IDOCK:   -1.12 KCAL/MOL
REMARK 927      BINDING AFFINITY PREDICTED BY RF-SCORE:    0.00 PKD
ROOT
HETATM    1  C   UNL     1      -9.098   4.287  69.097  1.00  0.00    -0.126 C  
HETATM    2  N   UNL     1      -9.193   5.613  68.488  1.00  0.00    -0.120 NA 
HETATM    3  H   UNL     1      -8.622   5.683  67.646  1.00  0.00     0.000 HD 
ENDROOT
BRANCH   2   4
HETATM    4  C   UNL     1     -10.591   5.971  68.224  1.00  0.00    -0.261 C  
BRANCH   4   5
HETATM    5  C   UNL     1     -11.403   6.257  69.499  1.00  0.00    -0.475 C  
BRANCH   5   6
HETATM    6  C   UNL     1     -11.149   7.605  70.194  1.00  0.00    -0.218 C  
BRANCH   6   7
HETATM    7  C   UNL     1     -10.450   7.444  71.532  1.00  0.00    -0.201 A  
HETATM    8  C   UNL     1      -8.736   7.378  73.319  1.00  0.00    -0.151 A  
HETATM    9  S   UNL     1      -8.757   7.734  71.649  1.00  0.00    -0.124 SA 
HETATM   10  C   UNL     1     -10.968   7.055  72.756  1.00  0.00    -0.329 A  
HETATM   11  C   UNL     1      -9.981   7.022  73.785  1.00  0.00    -0.367 A  
ENDBRANCH   6   7
BRANCH   6  12
HETATM   12  O   UNL     1     -10.271   8.419  69.370  1.00  0.00    -0.198 OA 
BRANCH  12  13
HETATM   13  C   UNL     1     -10.735   9.666  68.998  1.00  0.00    -0.211 A  
HETATM   14  C   UNL     1     -11.805  11.783  69.519  1.00  0.00    -0.402 A  
HETATM   15  C   UNL     1     -11.295  10.554  69.925  1.00  0.00    -0.380 A  
HETATM   16  C   UNL     1     -11.742  12.151  68.180  1.00  0.00    -0.402 A  
HETATM   17  C   UNL     1     -11.127  11.321  67.237  1.00  0.00    -0.367 A  
HETATM   18  C   UNL     1     -11.047  11.737  65.900  1.00  0.00    -0.355 A  
HETATM   19  C   UNL     1     -10.397  10.962  64.943  1.00  0.00    -0.371 A  
HETATM   20  C   UNL     1      -9.817   9.757  65.321  1.00  0.00    -0.335 A  
HETATM   21  C   UNL     1      -9.914   9.312  66.647  1.00  0.00    -0.333 A  
HETATM   22  C   UNL     1     -10.583  10.070  67.639  1.00  0.00    -0.323 A  
ENDBRANCH  12  13
ENDBRANCH   6  12
ENDBRANCH   5   6
ENDBRANCH   4   5
ENDBRANCH   2   4
TORSDOF 6
ENDMDL
MODEL       94
REMARK 921   NORMALIZED FREE ENERGY PREDICTED BY IDOCK:   -4.62 KCAL/MOL
REMARK 922        TOTAL FREE ENERGY PREDICTED BY IDOCK:   -7.13 KCAL/MOL
REMARK 923 INTER-LIGAND FREE ENERGY PREDICTED BY IDOCK:   -6.41 KCAL/MOL
REMARK 924 INTRA-LIGAND FREE ENERGY PREDICTED BY IDOCK:   -0.72 KCAL/MOL
REMARK 927      BINDING AFFINITY PREDICTED BY RF-SCORE:    0.00 PKD
ROOT
HETATM    1  C   UNL     1     -11.555  13.036  63.559  1.00  0.00    -0.412 C  
HETATM    2  N   UNL     1     -11.321  13.445  64.943  1.00  0.00    -0.318 NA 
HETATM    3  H   UNL     1     -11.675  14.385  65.123  1.00  0.00     0.000 HD 
ENDROOT
BRANCH   2   4
HETATM    4  C   UNL     1     -11.882  12.466  65.881  1.00  0.00    -0.405 C  
BRANCH   4   5
HETATM    5  C   UNL     1     -10.924  11.308  66.207  1.00  0.00    -0.265 C  
BRANCH   5   6
HETATM    6  C   UNL     1     -11.130  10.597  67.555  1.00  0.00    -0.300 C  
BRANCH   6   7
HETATM    7  C   UNL     1     -10.480   9.225  67.591  1.00  0.00    -0.264 A  
HETATM    8  C   UNL     1      -9.607   7.034  68.348  1.00  0.00    -0.135 A  
HETATM    9  S   UNL     1     -10.402   8.358  69.077  1.00  0.00    -0.203 SA 
HETATM   10  C   UNL     1      -9.878   8.508  66.572  1.00  0.00    -0.342 A  
HETATM   11  C   UNL     1      -9.379   7.244  67.008  1.00  0.00    -0.181 A  
ENDBRANCH   6   7
BRANCH   6  12
HETATM   12  O   UNL     1     -10.506  11.372  68.614  1.00  0.00    -0.188 OA 
BRANCH  12  13
HETATM   13  C   UNL     1     -11.344  11.957  69.543  1.00  0.00    -0.236 A  
HETATM   14  C   UNL     1     -12.927  11.801  71.378  1.00  0.00    -0.408 A  
HETATM   15  C   UNL     1     -12.047  11.198  70.487  1.00  0.00    -0.474 A  
HETATM   16  C   UNL     1     -13.102  13.181  71.352  1.00  0.00    -0.352 A  
HETATM   17  C   UNL     1     -12.365  13.979  70.472  1.00  0.00    -0.437 A  
HETATM   18  C   UNL     1     -12.537  15.371  70.495  1.00  0.00    -0.471 A  
HETATM   19  C   UNL     1     -11.784  16.202  69.670  1.00  0.00    -0.193 A  
HETATM   20  C   UNL     1     -10.846  15.643  68.811  1.00  0.00    -0.262 A  
HETATM   21  C   UNL     1     -10.683  14.251  68.754  1.00  0.00    -0.262 A  
HETATM   22  C   UNL     1     -11.446  13.379  69.568  1.00  0.00    -0.308 A  
ENDBRANCH  12  13
ENDBRANCH   6  12
ENDBRANCH   5   6
ENDBRANCH   4   5
ENDBRANCH   2   4
TORSDOF 6
ENDMDL
MODEL       95
REMARK 921   NORMALIZED FREE ENERGY PREDICTED BY IDOCK:   -4.62 KCAL/MOL
REMARK 922        TOTAL FREE ENERGY PREDICTED BY IDOCK:   -7.13 KCAL/MOL
REMARK 923 INTER-LIGAND FREE ENERGY PREDICTED BY IDOCK:   -5.90 KCAL/MOL
REMARK 924 INTRA-LIGAND FREE ENERGY PREDICTED BY IDOCK:   -1.24 KCAL/MOL
REMARK 927      BINDING AFFINITY PREDICTED BY RF-SCORE:    0.00 PKD
ROOT
HETATM    1  C   UNL     1      -7.789  17.559  67.892  1.00  0.00    -0.218 C  
HETATM    2  N   UNL     1      -8.592  16.348  67.732  1.00  0.00    -0.168 NA 
HETATM    3  H   UNL     1      -9.416  16.360  68.333  1.00  0.00     0.000 HD 
ENDROOT
BRANCH   2   4
HETATM    4  C   UNL     1      -8.951  16.139  66.325  1.00  0.00    -0.344 C  
BRANCH   4   5
HETATM    5  C   UNL     1     -10.454  15.899  66.103  1.00  0.00    -0.336 C  
BRANCH   5   6
HETATM    6  C   UNL     1     -11.005  14.523  66.515  1.00  0.00    -0.321 C  
BRANCH   6   7
HETATM    7  C   UNL     1     -11.204  13.600  65.326  1.00  0.00    -0.299 A  
HETATM    8  C   UNL     1     -12.198  12.057  63.663  1.00  0.00    -0.538 A  
HETATM    9  S   UNL     1     -12.739  12.863  65.068  1.00  0.00    -0.253 SA 
HETATM   10  C   UNL     1     -10.299  13.203  64.358  1.00  0.00    -0.390 A  
HETATM   11  C   UNL     1     -10.873  12.317  63.397  1.00  0.00    -0.457 A  
ENDBRANCH   6   7
BRANCH   6  12
HETATM   12  O   UNL     1     -10.053  13.862  67.391  1.00  0.00    -0.240 OA 
BRANCH  12  13
HETATM   13  C   UNL     1     -10.538  12.853  68.200  1.00  0.00    -0.237 A  
HETATM   14  C   UNL     1     -12.116  12.016  69.846  1.00  0.00    -0.334 A  
HETATM   15  C   UNL     1     -11.676  13.026  68.998  1.00  0.00    -0.376 A  
HETATM   16  C   UNL     1     -11.433  10.805  69.892  1.00  0.00    -0.398 A  
HETATM   17  C   UNL     1     -10.335  10.570  69.060  1.00  0.00    -0.232 A  
HETATM   18  C   UNL     1      -9.691   9.325  69.104  1.00  0.00    -0.164 A  
HETATM   19  C   UNL     1      -8.627   9.035  68.254  1.00  0.00    -0.130 A  
HETATM   20  C   UNL     1      -8.199   9.995  67.345  1.00  0.00    -0.118 A  
HETATM   21  C   UNL     1      -8.812  11.255  67.309  1.00  0.00    -0.150 A  
HETATM   22  C   UNL     1      -9.885  11.585  68.172  1.00  0.00    -0.197 A  
ENDBRANCH  12  13
ENDBRANCH   6  12
ENDBRANCH   5   6
ENDBRANCH   4   5
ENDBRANCH   2   4
TORSDOF 6
ENDMDL
MODEL       96
REMARK 921   NORMALIZED FREE ENERGY PREDICTED BY IDOCK:   -4.60 KCAL/MOL
REMARK 922        TOTAL FREE ENERGY PREDICTED BY IDOCK:   -7.11 KCAL/MOL
REMARK 923 INTER-LIGAND FREE ENERGY PREDICTED BY IDOCK:   -6.37 KCAL/MOL
REMARK 924 INTRA-LIGAND FREE ENERGY PREDICTED BY IDOCK:   -0.74 KCAL/MOL
REMARK 927      BINDING AFFINITY PREDICTED BY RF-SCORE:    0.00 PKD
ROOT
HETATM    1  C   UNL     1      -6.494   8.892  72.038  1.00  0.00    -0.024 C  
HETATM    2  N   UNL     1      -7.490   9.577  71.215  1.00  0.00    -0.308 NA 
HETATM    3  H   UNL     1      -7.084   9.929  70.348  1.00  0.00     0.000 HD 
ENDROOT
BRANCH   2   4
HETATM    4  C   UNL     1      -8.645   8.709  70.959  1.00  0.00    -0.173 C  
BRANCH   4   5
HETATM    5  C   UNL     1      -9.939   9.192  71.634  1.00  0.00    -0.319 C  
BRANCH   5   6
HETATM    6  C   UNL     1     -11.168   9.373  70.726  1.00  0.00    -0.302 C  
BRANCH   6   7
HETATM    7  C   UNL     1     -12.405   8.692  71.284  1.00  0.00    -0.263 A  
HETATM    8  C   UNL     1     -14.161   7.025  71.807  1.00  0.00    -0.261 A  
HETATM    9  S   UNL     1     -12.740   7.056  70.861  1.00  0.00    -0.029 SA 
HETATM   10  C   UNL     1     -13.390   9.196  72.114  1.00  0.00    -0.525 A  
HETATM   11  C   UNL     1     -14.400   8.235  72.419  1.00  0.00    -0.345 A  
ENDBRANCH   6   7
BRANCH   6  12
HETATM   12  O   UNL     1     -11.492  10.786  70.622  1.00  0.00    -0.325 OA 
BRANCH  12  13
HETATM   13  C   UNL     1     -11.455  11.349  69.362  1.00  0.00    -0.310 A  
HETATM   14  C   UNL     1     -11.194  11.165  66.955  1.00  0.00    -0.258 A  
HETATM   15  C   UNL     1     -11.282  10.572  68.209  1.00  0.00    -0.354 A  
HETATM   16  C   UNL     1     -11.299  12.546  66.832  1.00  0.00    -0.383 A  
HETATM   17  C   UNL     1     -11.542  13.348  67.951  1.00  0.00    -0.374 A  
HETATM   18  C   UNL     1     -11.680  14.734  67.790  1.00  0.00    -0.368 A  
HETATM   19  C   UNL     1     -11.974  15.559  68.872  1.00  0.00    -0.306 A  
HETATM   20  C   UNL     1     -12.135  14.998  70.133  1.00  0.00    -0.378 A  
HETATM   21  C   UNL     1     -11.971  13.617  70.318  1.00  0.00    -0.397 A  
HETATM   22  C   UNL     1     -11.655  12.755  69.239  1.00  0.00    -0.372 A  
ENDBRANCH  12  13
ENDBRANCH   6  12
ENDBRANCH   5   6
ENDBRANCH   4   5
ENDBRANCH   2   4
TORSDOF 6
ENDMDL
MODEL       97
REMARK 921   NORMALIZED FREE ENERGY PREDICTED BY IDOCK:   -4.59 KCAL/MOL
REMARK 922        TOTAL FREE ENERGY PREDICTED BY IDOCK:   -7.10 KCAL/MOL
REMARK 923 INTER-LIGAND FREE ENERGY PREDICTED BY IDOCK:   -6.74 KCAL/MOL
REMARK 924 INTRA-LIGAND FREE ENERGY PREDICTED BY IDOCK:   -0.36 KCAL/MOL
REMARK 927      BINDING AFFINITY PREDICTED BY RF-SCORE:    0.00 PKD
ROOT
HETATM    1  C   UNL     1     -12.879  12.114  64.102  1.00  0.00    -0.236 C  
HETATM    2  N   UNL     1     -12.670  13.288  64.948  1.00  0.00    -0.690 NA 
HETATM    3  H   UNL     1     -12.842  13.079  65.931  1.00  0.00     0.000 HD 
ENDROOT
BRANCH   2   4
HETATM    4  C   UNL     1     -11.332  13.852  64.741  1.00  0.00    -0.363 C  
BRANCH   4   5
HETATM    5  C   UNL     1     -10.278  13.312  65.721  1.00  0.00    -0.296 C  
BRANCH   5   6
HETATM    6  C   UNL     1     -10.790  12.429  66.873  1.00  0.00    -0.251 C  
BRANCH   6   7
HETATM    7  C   UNL     1     -10.428  10.967  66.686  1.00  0.00    -0.256 A  
HETATM    8  C   UNL     1      -9.567   8.837  65.759  1.00  0.00    -0.120 A  
HETATM    9  S   UNL     1      -9.618  10.467  65.251  1.00  0.00    -0.284 SA 
HETATM   10  C   UNL     1     -10.670   9.886  67.516  1.00  0.00    -0.333 A  
HETATM   11  C   UNL     1     -10.170   8.660  66.983  1.00  0.00    -0.360 A  
ENDBRANCH   6   7
BRANCH   6  12
HETATM   12  O   UNL     1     -10.170  12.848  68.119  1.00  0.00    -0.226 OA 
BRANCH  12  13
HETATM   13  C   UNL     1     -10.552  14.073  68.631  1.00  0.00    -0.257 A  
HETATM   14  C   UNL     1     -10.470  16.500  68.631  1.00  0.00    -0.304 A  
HETATM   15  C   UNL     1     -10.118  15.279  68.066  1.00  0.00    -0.229 A  
HETATM   16  C   UNL     1     -11.282  16.533  69.759  1.00  0.00    -0.166 A  
HETATM   17  C   UNL     1     -11.792  15.353  70.309  1.00  0.00    -0.368 A  
HETATM   18  C   UNL     1     -12.638  15.421  71.426  1.00  0.00    -0.471 A  
HETATM   19  C   UNL     1     -13.206  14.273  71.970  1.00  0.00    -0.470 A  
HETATM   20  C   UNL     1     -12.932  13.038  71.395  1.00  0.00    -0.373 A  
HETATM   21  C   UNL     1     -12.064  12.948  70.296  1.00  0.00    -0.377 A  
HETATM   22  C   UNL     1     -11.457  14.097  69.732  1.00  0.00    -0.309 A  
ENDBRANCH  12  13
ENDBRANCH   6  12
ENDBRANCH   5   6
ENDBRANCH   4   5
ENDBRANCH   2   4
TORSDOF 6
ENDMDL
MODEL       98
REMARK 921   NORMALIZED FREE ENERGY PREDICTED BY IDOCK:   -4.57 KCAL/MOL
REMARK 922        TOTAL FREE ENERGY PREDICTED BY IDOCK:   -7.07 KCAL/MOL
REMARK 923 INTER-LIGAND FREE ENERGY PREDICTED BY IDOCK:   -6.36 KCAL/MOL
REMARK 924 INTRA-LIGAND FREE ENERGY PREDICTED BY IDOCK:   -0.71 KCAL/MOL
REMARK 927      BINDING AFFINITY PREDICTED BY RF-SCORE:    0.00 PKD
ROOT
HETATM    1  C   UNL     1     -12.179  14.194  65.598  1.00  0.00    -0.435 C  
HETATM    2  N   UNL     1     -12.335  12.998  66.423  1.00  0.00    -0.430 NA 
HETATM    3  H   UNL     1     -11.880  12.188  66.003  1.00  0.00     0.000 HD 
ENDROOT
BRANCH   2   4
HETATM    4  C   UNL     1     -11.859  13.238  67.790  1.00  0.00    -0.353 C  
BRANCH   4   5
HETATM    5  C   UNL     1     -10.503  12.579  68.094  1.00  0.00    -0.238 C  
BRANCH   5   6
HETATM    6  C   UNL     1     -10.463  11.041  68.083  1.00  0.00    -0.189 C  
BRANCH   6   7
HETATM    7  C   UNL     1      -9.670  10.491  66.911  1.00  0.00    -0.180 A  
HETATM    8  C   UNL     1      -7.822   9.844  65.394  1.00  0.00    -0.132 A  
HETATM    9  S   UNL     1      -7.953  10.632  66.903  1.00  0.00    -0.129 SA 
HETATM   10  C   UNL     1     -10.117   9.874  65.756  1.00  0.00    -0.317 A  
HETATM   11  C   UNL     1      -9.052   9.497  64.884  1.00  0.00    -0.276 A  
ENDBRANCH   6   7
BRANCH   6  12
HETATM   12  O   UNL     1      -9.800  10.564  69.284  1.00  0.00    -0.213 OA 
BRANCH  12  13
HETATM   13  C   UNL     1     -10.229   9.359  69.804  1.00  0.00    -0.220 A  
HETATM   14  C   UNL     1     -10.012   6.955  70.068  1.00  0.00    -0.190 A  
HETATM   15  C   UNL     1      -9.532   8.165  69.581  1.00  0.00    -0.159 A  
HETATM   16  C   UNL     1     -11.190   6.923  70.806  1.00  0.00    -0.338 A  
HETATM   17  C   UNL     1     -11.877   8.103  71.109  1.00  0.00    -0.303 A  
HETATM   18  C   UNL     1     -13.042   8.042  71.887  1.00  0.00    -0.336 A  
HETATM   19  C   UNL     1     -13.724   9.199  72.253  1.00  0.00    -0.548 A  
HETATM   20  C   UNL     1     -13.240  10.435  71.842  1.00  0.00    -0.535 A  
HETATM   21  C   UNL     1     -12.093  10.512  71.038  1.00  0.00    -0.492 A  
HETATM   22  C   UNL     1     -11.388   9.351  70.636  1.00  0.00    -0.352 A  
ENDBRANCH  12  13
ENDBRANCH   6  12
ENDBRANCH   5   6
ENDBRANCH   4   5
ENDBRANCH   2   4
TORSDOF 6
ENDMDL
MODEL       99
REMARK 921   NORMALIZED FREE ENERGY PREDICTED BY IDOCK:   -4.57 KCAL/MOL
REMARK 922        TOTAL FREE ENERGY PREDICTED BY IDOCK:   -7.07 KCAL/MOL
REMARK 923 INTER-LIGAND FREE ENERGY PREDICTED BY IDOCK:   -5.97 KCAL/MOL
REMARK 924 INTRA-LIGAND FREE ENERGY PREDICTED BY IDOCK:   -1.10 KCAL/MOL
REMARK 927      BINDING AFFINITY PREDICTED BY RF-SCORE:    0.00 PKD
ROOT
HETATM    1  C   UNL     1     -12.049  11.431  70.163  1.00  0.00    -0.357 C  
HETATM    2  N   UNL     1     -12.177  10.367  69.168  1.00  0.00    -0.695 NA 
HETATM    3  H   UNL     1     -12.344  10.741  68.235  1.00  0.00     0.000 HD 
ENDROOT
BRANCH   2   4
HETATM    4  C   UNL     1     -11.008   9.481  69.195  1.00  0.00    -0.125 C  
BRANCH   4   5
HETATM    5  C   UNL     1     -10.488   9.106  67.797  1.00  0.00    -0.306 C  
BRANCH   5   6
HETATM    6  C   UNL     1      -9.744  10.203  67.017  1.00  0.00    -0.180 C  
BRANCH   6   7
HETATM    7  C   UNL     1      -9.316   9.742  65.635  1.00  0.00    -0.227 A  
HETATM    8  C   UNL     1      -8.270   8.488  63.773  1.00  0.00    -0.125 A  
HETATM    9  S   UNL     1      -8.279   8.376  65.477  1.00  0.00    -0.147 SA 
HETATM   10  C   UNL     1      -9.617  10.277  64.395  1.00  0.00    -0.378 A  
HETATM   11  C   UNL     1      -9.018   9.551  63.322  1.00  0.00    -0.208 A  
ENDBRANCH   6   7
BRANCH   6  12
HETATM   12  O   UNL     1     -10.627  11.339  66.814  1.00  0.00    -0.237 OA 
BRANCH  12  13
HETATM   13  C   UNL     1     -10.050  12.593  66.815  1.00  0.00    -0.237 A  
HETATM   14  C   UNL     1      -8.363  14.160  67.586  1.00  0.00    -0.187 A  
HETATM   15  C   UNL     1      -8.896  12.876  67.556  1.00  0.00    -0.192 A  
HETATM   16  C   UNL     1      -8.966  15.178  66.857  1.00  0.00    -0.277 A  
HETATM   17  C   UNL     1     -10.078  14.919  66.050  1.00  0.00    -0.331 A  
HETATM   18  C   UNL     1     -10.642  15.959  65.296  1.00  0.00    -0.441 A  
HETATM   19  C   UNL     1     -11.717  15.728  64.442  1.00  0.00    -0.201 A  
HETATM   20  C   UNL     1     -12.238  14.445  64.333  1.00  0.00    -0.481 A  
HETATM   21  C   UNL     1     -11.706  13.399  65.101  1.00  0.00    -0.345 A  
HETATM   22  C   UNL     1     -10.624  13.607  65.992  1.00  0.00    -0.290 A  
ENDBRANCH  12  13
ENDBRANCH   6  12
ENDBRANCH   5   6
ENDBRANCH   4   5
ENDBRANCH   2   4
TORSDOF 6
ENDMDL
MODEL      100
REMARK 921   NORMALIZED FREE ENERGY PREDICTED BY IDOCK:   -4.56 KCAL/MOL
REMARK 922        TOTAL FREE ENERGY PREDICTED BY IDOCK:   -7.06 KCAL/MOL
REMARK 923 INTER-LIGAND FREE ENERGY PREDICTED BY IDOCK:   -6.32 KCAL/MOL
REMARK 924 INTRA-LIGAND FREE ENERGY PREDICTED BY IDOCK:   -0.75 KCAL/MOL
REMARK 927      BINDING AFFINITY PREDICTED BY RF-SCORE:    0.00 PKD
ROOT
HETATM    1  C   UNL     1      -9.477   5.205  65.930  1.00  0.00    -0.156 C  
HETATM    2  N   UNL     1     -10.882   5.444  66.257  1.00  0.00    -0.697 NA 
HETATM    3  H   UNL     1     -11.450   4.610  66.110  1.00  0.00     0.000 HD 
ENDROOT
BRANCH   2   4
HETATM    4  C   UNL     1     -11.022   5.960  67.624  1.00  0.00    -0.145 C  
BRANCH   4   5
HETATM    5  C   UNL     1      -9.977   7.028  67.988  1.00  0.00    -0.178 C  
BRANCH   5   6
HETATM    6  C   UNL     1     -10.510   8.352  68.561  1.00  0.00    -0.164 C  
BRANCH   6   7
HETATM    7  C   UNL     1     -10.502   8.370  70.079  1.00  0.00    -0.224 A  
HETATM    8  C   UNL     1      -9.796   8.585  72.444  1.00  0.00    -0.288 A  
HETATM    9  S   UNL     1      -9.049   8.758  70.918  1.00  0.00    -0.229 SA 
HETATM   10  C   UNL     1     -11.523   8.090  70.969  1.00  0.00    -0.300 A  
HETATM   11  C   UNL     1     -11.118   8.218  72.331  1.00  0.00    -0.447 A  
ENDBRANCH   6   7
BRANCH   6  12
HETATM   12  O   UNL     1      -9.653   9.446  68.134  1.00  0.00    -0.140 OA 
BRANCH  12  13
HETATM   13  C   UNL     1     -10.150  10.292  67.163  1.00  0.00    -0.210 A  
HETATM   14  C   UNL     1     -10.547  10.863  64.836  1.00  0.00    -0.304 A  
HETATM   15  C   UNL     1     -10.090   9.972  65.801  1.00  0.00    -0.320 A  
HETATM   16  C   UNL     1     -11.093  12.082  65.222  1.00  0.00    -0.367 A  
HETATM   17  C   UNL     1     -11.234  12.407  66.575  1.00  0.00    -0.368 A  
HETATM   18  C   UNL     1     -11.823  13.629  66.933  1.00  0.00    -0.451 A  
HETATM   19  C   UNL     1     -12.028  13.965  68.268  1.00  0.00    -0.392 A  
HETATM   20  C   UNL     1     -11.644  13.073  69.262  1.00  0.00    -0.367 A  
HETATM   21  C   UNL     1     -11.028  11.860  68.923  1.00  0.00    -0.285 A  
HETATM   22  C   UNL     1     -10.790  11.499  67.574  1.00  0.00    -0.285 A  
ENDBRANCH  12  13
ENDBRANCH   6  12
ENDBRANCH   5   6
ENDBRANCH   4   5
ENDBRANCH   2   4
TORSDOF 6
ENDMDL
MODEL      101
REMARK 921   NORMALIZED FREE ENERGY PREDICTED BY IDOCK:   -4.52 KCAL/MOL
REMARK 922        TOTAL FREE ENERGY PREDICTED BY IDOCK:   -7.01 KCAL/MOL
REMARK 923 INTER-LIGAND FREE ENERGY PREDICTED BY IDOCK:   -6.28 KCAL/MOL
REMARK 924 INTRA-LIGAND FREE ENERGY PREDICTED BY IDOCK:   -0.73 KCAL/MOL
REMARK 927      BINDING AFFINITY PREDICTED BY RF-SCORE:    0.00 PKD
ROOT
HETATM    1  C   UNL     1      -7.383   8.148  69.286  1.00  0.00    -0.077 C  
HETATM    2  N   UNL     1      -8.803   7.810  69.358  1.00  0.00    -0.139 NA 
HETATM    3  H   UNL     1      -9.132   7.766  70.322  1.00  0.00     0.000 HD 
ENDROOT
BRANCH   2   4
HETATM    4  C   UNL     1      -9.606   8.739  68.554  1.00  0.00    -0.150 C  
BRANCH   4   5
HETATM    5  C   UNL     1      -9.694  10.152  69.154  1.00  0.00    -0.225 C  
BRANCH   5   6
HETATM    6  C   UNL     1     -10.868  11.031  68.688  1.00  0.00    -0.215 C  
BRANCH   6   7
HETATM    7  C   UNL     1     -11.727  11.509  69.845  1.00  0.00    -0.343 A  
HETATM    8  C   UNL     1     -13.171  11.576  71.856  1.00  0.00    -0.374 A  
HETATM    9  S   UNL     1     -12.431  10.358  70.915  1.00  0.00    -0.414 SA 
HETATM   10  C   UNL     1     -12.086  12.797  70.202  1.00  0.00    -0.370 A  
HETATM   11  C   UNL     1     -12.914  12.835  71.364  1.00  0.00    -0.359 A  
ENDBRANCH   6   7
BRANCH   6  12
HETATM   12  O   UNL     1     -10.353  12.225  68.040  1.00  0.00    -0.202 OA 
BRANCH  12  13
HETATM   13  C   UNL     1     -10.850  12.525  66.787  1.00  0.00    -0.249 A  
HETATM   14  C   UNL     1     -12.421  13.680  65.339  1.00  0.00    -0.537 A  
HETATM   15  C   UNL     1     -11.899  13.435  66.604  1.00  0.00    -0.443 A  
HETATM   16  C   UNL     1     -11.885  13.033  64.231  1.00  0.00    -0.456 A  
HETATM   17  C   UNL     1     -10.792  12.172  64.365  1.00  0.00    -0.372 A  
HETATM   18  C   UNL     1     -10.250  11.563  63.223  1.00  0.00    -0.432 A  
HETATM   19  C   UNL     1      -9.130  10.740  63.309  1.00  0.00    -0.260 A  
HETATM   20  C   UNL     1      -8.539  10.520  64.547  1.00  0.00    -0.165 A  
HETATM   21  C   UNL     1      -9.086  11.097  65.703  1.00  0.00    -0.221 A  
HETATM   22  C   UNL     1     -10.234  11.925  65.649  1.00  0.00    -0.280 A  
ENDBRANCH  12  13
ENDBRANCH   6  12
ENDBRANCH   5   6
ENDBRANCH   4   5
ENDBRANCH   2   4
TORSDOF 6
ENDMDL
MODEL      102
REMARK 921   NORMALIZED FREE ENERGY PREDICTED BY IDOCK:   -4.52 KCAL/MOL
REMARK 922        TOTAL FREE ENERGY PREDICTED BY IDOCK:   -7.01 KCAL/MOL
REMARK 923 INTER-LIGAND FREE ENERGY PREDICTED BY IDOCK:   -6.39 KCAL/MOL
REMARK 924 INTRA-LIGAND FREE ENERGY PREDICTED BY IDOCK:   -0.62 KCAL/MOL
REMARK 927      BINDING AFFINITY PREDICTED BY RF-SCORE:    0.00 PKD
ROOT
HETATM    1  C   UNL     1     -12.227  15.840  70.507  1.00  0.00    -0.363 C  
HETATM    2  N   UNL     1     -12.537  14.613  69.776  1.00  0.00    -0.561 NA 
HETATM    3  H   UNL     1     -13.530  14.387  69.822  1.00  0.00     0.000 HD 
ENDROOT
BRANCH   2   4
HETATM    4  C   UNL     1     -12.065  14.695  68.389  1.00  0.00    -0.188 C  
BRANCH   4   5
HETATM    5  C   UNL     1     -10.991  15.774  68.168  1.00  0.00    -0.330 C  
BRANCH   5   6
HETATM    6  C   UNL     1     -10.393  15.878  66.754  1.00  0.00    -0.298 C  
BRANCH   6   7
HETATM    7  C   UNL     1      -9.587  17.149  66.559  1.00  0.00    -0.279 A  
HETATM    8  C   UNL     1      -8.935  19.514  66.219  1.00  0.00    -0.364 A  
HETATM    9  S   UNL     1     -10.403  18.654  66.367  1.00  0.00    -0.432 SA 
HETATM   10  C   UNL     1      -8.216  17.320  66.480  1.00  0.00    -0.311 A  
HETATM   11  C   UNL     1      -7.841  18.684  66.289  1.00  0.00    -0.288 A  
ENDBRANCH   6   7
BRANCH   6  12
HETATM   12  O   UNL     1      -9.475  14.773  66.533  1.00  0.00    -0.262 OA 
BRANCH  12  13
HETATM   13  C   UNL     1      -9.973  13.662  65.882  1.00  0.00    -0.291 A  
HETATM   14  C   UNL     1     -10.903  12.586  63.914  1.00  0.00    -0.472 A  
HETATM   15  C   UNL     1     -10.353  13.701  64.534  1.00  0.00    -0.355 A  
HETATM   16  C   UNL     1     -11.061  11.403  64.628  1.00  0.00    -0.277 A  
HETATM   17  C   UNL     1     -10.629  11.304  65.954  1.00  0.00    -0.309 A  
HETATM   18  C   UNL     1     -10.769  10.087  66.636  1.00  0.00    -0.128 A  
HETATM   19  C   UNL     1     -10.303   9.934  67.939  1.00  0.00    -0.256 A  
HETATM   20  C   UNL     1      -9.689  11.007  68.573  1.00  0.00    -0.189 A  
HETATM   21  C   UNL     1      -9.567  12.240  67.916  1.00  0.00    -0.203 A  
HETATM   22  C   UNL     1     -10.046  12.430  66.597  1.00  0.00    -0.234 A  
ENDBRANCH  12  13
ENDBRANCH   6  12
ENDBRANCH   5   6
ENDBRANCH   4   5
ENDBRANCH   2   4
TORSDOF 6
ENDMDL
MODEL      103
REMARK 921   NORMALIZED FREE ENERGY PREDICTED BY IDOCK:   -4.52 KCAL/MOL
REMARK 922        TOTAL FREE ENERGY PREDICTED BY IDOCK:   -7.01 KCAL/MOL
REMARK 923 INTER-LIGAND FREE ENERGY PREDICTED BY IDOCK:   -6.10 KCAL/MOL
REMARK 924 INTRA-LIGAND FREE ENERGY PREDICTED BY IDOCK:   -0.91 KCAL/MOL
REMARK 927      BINDING AFFINITY PREDICTED BY RF-SCORE:    0.00 PKD
ROOT
HETATM    1  C   UNL     1     -11.818  13.039  63.226  1.00  0.00    -0.364 C  
HETATM    2  N   UNL     1     -11.583  13.605  64.553  1.00  0.00    -0.374 NA 
HETATM    3  H   UNL     1     -11.839  14.591  64.593  1.00  0.00     0.000 HD 
ENDROOT
BRANCH   2   4
HETATM    4  C   UNL     1     -12.274  12.825  65.586  1.00  0.00    -0.444 C  
BRANCH   4   5
HETATM    5  C   UNL     1     -11.381  11.770  66.261  1.00  0.00    -0.350 C  
BRANCH   5   6
HETATM    6  C   UNL     1     -11.298  11.811  67.796  1.00  0.00    -0.289 C  
BRANCH   6   7
HETATM    7  C   UNL     1     -10.987  10.452  68.396  1.00  0.00    -0.264 A  
HETATM    8  C   UNL     1     -10.764   8.547  69.963  1.00  0.00    -0.232 A  
HETATM    9  S   UNL     1     -11.352  10.147  70.051  1.00  0.00    -0.294 SA 
HETATM   10  C   UNL     1     -10.401   9.343  67.810  1.00  0.00    -0.291 A  
HETATM   11  C   UNL     1     -10.277   8.245  68.712  1.00  0.00    -0.226 A  
ENDBRANCH   6   7
BRANCH   6  12
HETATM   12  O   UNL     1     -10.217  12.694  68.201  1.00  0.00    -0.226 OA 
BRANCH  12  13
HETATM   13  C   UNL     1     -10.567  13.943  68.672  1.00  0.00    -0.257 A  
HETATM   14  C   UNL     1     -11.689  15.375  70.281  1.00  0.00    -0.355 A  
HETATM   15  C   UNL     1     -11.300  14.110  69.853  1.00  0.00    -0.232 A  
HETATM   16  C   UNL     1     -11.332  16.497  69.541  1.00  0.00    -0.088 A  
HETATM   17  C   UNL     1     -10.541  16.376  68.394  1.00  0.00    -0.311 A  
HETATM   18  C   UNL     1     -10.166  17.529  67.690  1.00  0.00    -0.343 A  
HETATM   19  C   UNL     1      -9.337  17.454  66.575  1.00  0.00    -0.288 A  
HETATM   20  C   UNL     1      -8.872  16.214  66.153  1.00  0.00    -0.367 A  
HETATM   21  C   UNL     1      -9.262  15.048  66.827  1.00  0.00    -0.280 A  
HETATM   22  C   UNL     1     -10.118  15.092  67.955  1.00  0.00    -0.226 A  
ENDBRANCH  12  13
ENDBRANCH   6  12
ENDBRANCH   5   6
ENDBRANCH   4   5
ENDBRANCH   2   4
TORSDOF 6
ENDMDL
MODEL      104
REMARK 921   NORMALIZED FREE ENERGY PREDICTED BY IDOCK:   -4.52 KCAL/MOL
REMARK 922        TOTAL FREE ENERGY PREDICTED BY IDOCK:   -7.00 KCAL/MOL
REMARK 923 INTER-LIGAND FREE ENERGY PREDICTED BY IDOCK:   -6.15 KCAL/MOL
REMARK 924 INTRA-LIGAND FREE ENERGY PREDICTED BY IDOCK:   -0.85 KCAL/MOL
REMARK 927      BINDING AFFINITY PREDICTED BY RF-SCORE:    0.00 PKD
ROOT
HETATM    1  C   UNL     1      -8.886   9.559  62.392  1.00  0.00    -0.246 C  
HETATM    2  N   UNL     1      -9.972  10.508  62.632  1.00  0.00    -0.739 NA 
HETATM    3  H   UNL     1     -10.762  10.342  62.008  1.00  0.00     0.000 HD 
ENDROOT
BRANCH   2   4
HETATM    4  C   UNL     1     -10.383  10.488  64.040  1.00  0.00    -0.057 C  
BRANCH   4   5
HETATM    5  C   UNL     1      -9.370  11.155  64.986  1.00  0.00    -0.232 C  
BRANCH   5   6
HETATM    6  C   UNL     1      -9.859  11.479  66.408  1.00  0.00    -0.205 C  
BRANCH   6   7
HETATM    7  C   UNL     1     -10.627  12.787  66.472  1.00  0.00    -0.254 A  
HETATM    8  C   UNL     1     -11.252  15.154  66.851  1.00  0.00    -0.292 A  
HETATM    9  S   UNL     1      -9.861  14.195  67.100  1.00  0.00    -0.259 SA 
HETATM   10  C   UNL     1     -11.934  13.060  66.108  1.00  0.00    -0.488 A  
HETATM   11  C   UNL     1     -12.292  14.424  66.322  1.00  0.00    -0.325 A  
ENDBRANCH   6   7
BRANCH   6  12
HETATM   12  O   UNL     1     -10.776  10.444  66.855  1.00  0.00    -0.252 OA 
BRANCH  12  13
HETATM   13  C   UNL     1     -10.375   9.667  67.923  1.00  0.00    -0.224 A  
HETATM   14  C   UNL     1      -8.994   7.915  68.883  1.00  0.00    -0.141 A  
HETATM   15  C   UNL     1      -9.345   8.725  67.809  1.00  0.00    -0.157 A  
HETATM   16  C   UNL     1      -9.656   8.050  70.098  1.00  0.00    -0.175 A  
HETATM   17  C   UNL     1     -10.642   9.026  70.271  1.00  0.00    -0.250 A  
HETATM   18  C   UNL     1     -11.266   9.163  71.520  1.00  0.00    -0.430 A  
HETATM   19  C   UNL     1     -12.213  10.157  71.746  1.00  0.00    -0.338 A  
HETATM   20  C   UNL     1     -12.545  11.030  70.718  1.00  0.00    -0.463 A  
HETATM   21  C   UNL     1     -11.953  10.889  69.454  1.00  0.00    -0.393 A  
HETATM   22  C   UNL     1     -10.998   9.877  69.189  1.00  0.00    -0.233 A  
ENDBRANCH  12  13
ENDBRANCH   6  12
ENDBRANCH   5   6
ENDBRANCH   4   5
ENDBRANCH   2   4
TORSDOF 6
ENDMDL
MODEL      105
REMARK 921   NORMALIZED FREE ENERGY PREDICTED BY IDOCK:   -4.51 KCAL/MOL
REMARK 922        TOTAL FREE ENERGY PREDICTED BY IDOCK:   -7.00 KCAL/MOL
REMARK 923 INTER-LIGAND FREE ENERGY PREDICTED BY IDOCK:   -6.08 KCAL/MOL
REMARK 924 INTRA-LIGAND FREE ENERGY PREDICTED BY IDOCK:   -0.91 KCAL/MOL
REMARK 927      BINDING AFFINITY PREDICTED BY RF-SCORE:    0.00 PKD
ROOT
HETATM    1  C   UNL     1      -6.371  13.325  68.293  1.00  0.00    -0.099 C  
HETATM    2  N   UNL     1      -6.685  12.728  66.997  1.00  0.00    -0.440 NA 
HETATM    3  H   UNL     1      -5.855  12.639  66.412  1.00  0.00     0.000 HD 
ENDROOT
BRANCH   2   4
HETATM    4  C   UNL     1      -7.370  11.442  67.164  1.00  0.00    -0.138 C  
BRANCH   4   5
HETATM    5  C   UNL     1      -8.708  11.354  66.409  1.00  0.00    -0.185 C  
BRANCH   5   6
HETATM    6  C   UNL     1      -9.922  12.029  67.070  1.00  0.00    -0.204 C  
BRANCH   6   7
HETATM    7  C   UNL     1     -10.483  13.161  66.229  1.00  0.00    -0.285 A  
HETATM    8  C   UNL     1     -11.987  14.582  64.867  1.00  0.00    -0.422 A  
HETATM    9  S   UNL     1     -12.103  13.068  65.650  1.00  0.00    -0.468 SA 
HETATM   10  C   UNL     1      -9.873  14.325  65.797  1.00  0.00    -0.314 A  
HETATM   11  C   UNL     1     -10.741  15.146  65.016  1.00  0.00    -0.451 A  
ENDBRANCH   6   7
BRANCH   6  12
HETATM   12  O   UNL     1     -10.994  11.060  67.221  1.00  0.00    -0.267 OA 
BRANCH  12  13
HETATM   13  C   UNL     1     -11.239  10.585  68.494  1.00  0.00    -0.274 A  
HETATM   14  C   UNL     1     -12.122  10.867  70.739  1.00  0.00    -0.469 A  
HETATM   15  C   UNL     1     -11.934  11.342  69.446  1.00  0.00    -0.407 A  
HETATM   16  C   UNL     1     -11.635   9.614  71.094  1.00  0.00    -0.456 A  
HETATM   17  C   UNL     1     -10.998   8.800  70.152  1.00  0.00    -0.236 A  
HETATM   18  C   UNL     1     -10.550   7.526  70.532  1.00  0.00    -0.232 A  
HETATM   19  C   UNL     1      -9.958   6.667  69.610  1.00  0.00    -0.191 A  
HETATM   20  C   UNL     1      -9.811   7.079  68.291  1.00  0.00    -0.150 A  
HETATM   21  C   UNL     1     -10.226   8.361  67.901  1.00  0.00    -0.273 A  
HETATM   22  C   UNL     1     -10.815   9.263  68.820  1.00  0.00    -0.123 A  
ENDBRANCH  12  13
ENDBRANCH   6  12
ENDBRANCH   5   6
ENDBRANCH   4   5
ENDBRANCH   2   4
TORSDOF 6
ENDMDL
MODEL      106
REMARK 921   NORMALIZED FREE ENERGY PREDICTED BY IDOCK:   -4.48 KCAL/MOL
REMARK 922        TOTAL FREE ENERGY PREDICTED BY IDOCK:   -6.95 KCAL/MOL
REMARK 923 INTER-LIGAND FREE ENERGY PREDICTED BY IDOCK:   -6.05 KCAL/MOL
REMARK 924 INTRA-LIGAND FREE ENERGY PREDICTED BY IDOCK:   -0.90 KCAL/MOL
REMARK 927      BINDING AFFINITY PREDICTED BY RF-SCORE:    0.00 PKD
ROOT
HETATM    1  C   UNL     1     -12.029   6.892  71.804  1.00  0.00    -0.333 C  
HETATM    2  N   UNL     1     -12.289   6.946  70.366  1.00  0.00    -0.604 NA 
HETATM    3  H   UNL     1     -12.418   7.904  70.042  1.00  0.00     0.000 HD 
ENDROOT
BRANCH   2   4
HETATM    4  C   UNL     1     -11.233   6.258  69.616  1.00  0.00    -0.437 C  
BRANCH   4   5
HETATM    5  C   UNL     1     -10.928   6.902  68.252  1.00  0.00    -0.208 C  
BRANCH   5   6
HETATM    6  C   UNL     1     -10.211   8.262  68.272  1.00  0.00    -0.208 C  
BRANCH   6   7
HETATM    7  C   UNL     1      -8.877   8.224  67.549  1.00  0.00    -0.135 A  
HETATM    8  C   UNL     1      -6.844   7.451  66.365  1.00  0.00    -0.061 A  
HETATM    9  S   UNL     1      -8.229   6.712  67.038  1.00  0.00    -0.114 SA 
HETATM   10  C   UNL     1      -8.021   9.261  67.224  1.00  0.00    -0.106 A  
HETATM   11  C   UNL     1      -6.852   8.816  66.538  1.00  0.00    -0.072 A  
ENDBRANCH   6   7
BRANCH   6  12
HETATM   12  O   UNL     1     -11.023   9.250  67.581  1.00  0.00    -0.204 OA 
BRANCH  12  13
HETATM   13  C   UNL     1     -11.284  10.429  68.250  1.00  0.00    -0.267 A  
HETATM   14  C   UNL     1     -11.689  11.672  70.297  1.00  0.00    -0.355 A  
HETATM   15  C   UNL     1     -11.371  10.485  69.647  1.00  0.00    -0.345 A  
HETATM   16  C   UNL     1     -11.905  12.830  69.558  1.00  0.00    -0.379 A  
HETATM   17  C   UNL     1     -11.759  12.830  68.168  1.00  0.00    -0.392 A  
HETATM   18  C   UNL     1     -11.947  14.023  67.454  1.00  0.00    -0.439 A  
HETATM   19  C   UNL     1     -11.759  14.074  66.076  1.00  0.00    -0.378 A  
HETATM   20  C   UNL     1     -11.377  12.924  65.396  1.00  0.00    -0.336 A  
HETATM   21  C   UNL     1     -11.214  11.715  66.090  1.00  0.00    -0.314 A  
HETATM   22  C   UNL     1     -11.414  11.629  67.489  1.00  0.00    -0.360 A  
ENDBRANCH  12  13
ENDBRANCH   6  12
ENDBRANCH   5   6
ENDBRANCH   4   5
ENDBRANCH   2   4
TORSDOF 6
ENDMDL
MODEL      107
REMARK 921   NORMALIZED FREE ENERGY PREDICTED BY IDOCK:   -4.48 KCAL/MOL
REMARK 922        TOTAL FREE ENERGY PREDICTED BY IDOCK:   -6.94 KCAL/MOL
REMARK 923 INTER-LIGAND FREE ENERGY PREDICTED BY IDOCK:   -6.14 KCAL/MOL
REMARK 924 INTRA-LIGAND FREE ENERGY PREDICTED BY IDOCK:   -0.81 KCAL/MOL
REMARK 927      BINDING AFFINITY PREDICTED BY RF-SCORE:    0.00 PKD
ROOT
HETATM    1  C   UNL     1      -5.828   9.054  72.161  1.00  0.00    -0.072 C  
HETATM    2  N   UNL     1      -7.101   9.359  71.510  1.00  0.00    -0.324 NA 
HETATM    3  H   UNL     1      -6.993   9.467  70.502  1.00  0.00     0.000 HD 
ENDROOT
BRANCH   2   4
HETATM    4  C   UNL     1      -8.114   8.350  71.841  1.00  0.00    -0.145 C  
BRANCH   4   5
HETATM    5  C   UNL     1      -9.527   8.931  72.016  1.00  0.00    -0.249 C  
BRANCH   5   6
HETATM    6  C   UNL     1     -10.496   8.766  70.832  1.00  0.00    -0.221 C  
BRANCH   6   7
HETATM    7  C   UNL     1     -11.926   8.530  71.284  1.00  0.00    -0.294 A  
HETATM    8  C   UNL     1     -14.059   7.452  71.936  1.00  0.00    -0.301 A  
HETATM    9  S   UNL     1     -12.522   6.919  71.417  1.00  0.00    -0.338 SA 
HETATM   10  C   UNL     1     -12.910   9.446  71.610  1.00  0.00    -0.461 A  
HETATM   11  C   UNL     1     -14.137   8.825  71.990  1.00  0.00    -0.508 A  
ENDBRANCH   6   7
BRANCH   6  12
HETATM   12  O   UNL     1     -10.513   9.986  70.044  1.00  0.00    -0.256 OA 
BRANCH  12  13
HETATM   13  C   UNL     1     -10.275   9.864  68.689  1.00  0.00    -0.178 A  
HETATM   14  C   UNL     1      -9.424   8.628  66.780  1.00  0.00    -0.250 A  
HETATM   15  C   UNL     1      -9.706   8.709  68.139  1.00  0.00    -0.178 A  
HETATM   16  C   UNL     1      -9.729   9.697  65.945  1.00  0.00    -0.343 A  
HETATM   17  C   UNL     1     -10.362  10.838  66.445  1.00  0.00    -0.306 A  
HETATM   18  C   UNL     1     -10.689  11.885  65.571  1.00  0.00    -0.329 A  
HETATM   19  C   UNL     1     -11.366  13.015  66.022  1.00  0.00    -0.343 A  
HETATM   20  C   UNL     1     -11.723  13.106  67.361  1.00  0.00    -0.419 A  
HETATM   21  C   UNL     1     -11.377  12.082  68.256  1.00  0.00    -0.342 A  
HETATM   22  C   UNL     1     -10.674  10.929  67.829  1.00  0.00    -0.279 A  
ENDBRANCH  12  13
ENDBRANCH   6  12
ENDBRANCH   5   6
ENDBRANCH   4   5
ENDBRANCH   2   4
TORSDOF 6
ENDMDL
MODEL      108
REMARK 921   NORMALIZED FREE ENERGY PREDICTED BY IDOCK:   -4.46 KCAL/MOL
REMARK 922        TOTAL FREE ENERGY PREDICTED BY IDOCK:   -6.92 KCAL/MOL
REMARK 923 INTER-LIGAND FREE ENERGY PREDICTED BY IDOCK:   -6.40 KCAL/MOL
REMARK 924 INTRA-LIGAND FREE ENERGY PREDICTED BY IDOCK:   -0.52 KCAL/MOL
REMARK 927      BINDING AFFINITY PREDICTED BY RF-SCORE:    0.00 PKD
ROOT
HETATM    1  C   UNL     1     -13.117   8.573  71.803  1.00  0.00    -0.355 C  
HETATM    2  N   UNL     1     -12.822   9.442  70.665  1.00  0.00    -0.513 NA 
HETATM    3  H   UNL     1     -13.631  10.003  70.399  1.00  0.00     0.000 HD 
ENDROOT
BRANCH   2   4
HETATM    4  C   UNL     1     -11.647  10.279  70.935  1.00  0.00    -0.365 C  
BRANCH   4   5
HETATM    5  C   UNL     1     -11.314  11.257  69.795  1.00  0.00    -0.348 C  
BRANCH   5   6
HETATM    6  C   UNL     1     -10.331  10.760  68.721  1.00  0.00    -0.192 C  
BRANCH   6   7
HETATM    7  C   UNL     1      -9.432   9.648  69.230  1.00  0.00    -0.179 A  
HETATM    8  C   UNL     1      -8.483   7.422  69.761  1.00  0.00    -0.136 A  
HETATM    9  S   UNL     1      -9.883   8.005  68.975  1.00  0.00    -0.183 SA 
HETATM   10  C   UNL     1      -8.241   9.727  69.930  1.00  0.00    -0.196 A  
HETATM   11  C   UNL     1      -7.693   8.445  70.232  1.00  0.00    -0.080 A  
ENDBRANCH   6   7
BRANCH   6  12
HETATM   12  O   UNL     1     -11.074  10.206  67.602  1.00  0.00    -0.301 OA 
BRANCH  12  13
HETATM   13  C   UNL     1     -10.691  10.600  66.335  1.00  0.00    -0.129 A  
HETATM   14  C   UNL     1      -9.510  10.209  64.249  1.00  0.00    -0.366 A  
HETATM   15  C   UNL     1      -9.932   9.771  65.499  1.00  0.00    -0.329 A  
HETATM   16  C   UNL     1      -9.861  11.480  63.806  1.00  0.00    -0.348 A  
HETATM   17  C   UNL     1     -10.676  12.309  64.582  1.00  0.00    -0.347 A  
HETATM   18  C   UNL     1     -11.043  13.571  64.091  1.00  0.00    -0.302 A  
HETATM   19  C   UNL     1     -11.895  14.403  64.812  1.00  0.00    -0.439 A  
HETATM   20  C   UNL     1     -12.391  13.976  66.037  1.00  0.00    -0.504 A  
HETATM   21  C   UNL     1     -12.011  12.730  66.556  1.00  0.00    -0.428 A  
HETATM   22  C   UNL     1     -11.132  11.868  65.854  1.00  0.00    -0.365 A  
ENDBRANCH  12  13
ENDBRANCH   6  12
ENDBRANCH   5   6
ENDBRANCH   4   5
ENDBRANCH   2   4
TORSDOF 6
ENDMDL
MODEL      109
REMARK 921   NORMALIZED FREE ENERGY PREDICTED BY IDOCK:   -4.45 KCAL/MOL
REMARK 922        TOTAL FREE ENERGY PREDICTED BY IDOCK:   -6.91 KCAL/MOL
REMARK 923 INTER-LIGAND FREE ENERGY PREDICTED BY IDOCK:   -6.32 KCAL/MOL
REMARK 924 INTRA-LIGAND FREE ENERGY PREDICTED BY IDOCK:   -0.58 KCAL/MOL
REMARK 927      BINDING AFFINITY PREDICTED BY RF-SCORE:    0.00 PKD
ROOT
HETATM    1  C   UNL     1      -6.712  11.110  67.788  1.00  0.00    -0.065 C  
HETATM    2  N   UNL     1      -7.325  12.272  68.429  1.00  0.00    -0.102 NA 
HETATM    3  H   UNL     1      -6.622  12.913  68.798  1.00  0.00     0.000 HD 
ENDROOT
BRANCH   2   4
HETATM    4  C   UNL     1      -8.248  12.950  67.513  1.00  0.00    -0.184 C  
BRANCH   4   5
HETATM    5  C   UNL     1      -7.995  14.462  67.391  1.00  0.00    -0.220 C  
BRANCH   5   6
HETATM    6  C   UNL     1      -9.108  15.301  66.740  1.00  0.00    -0.256 C  
BRANCH   6   7
HETATM    7  C   UNL     1     -10.337  14.474  66.408  1.00  0.00    -0.293 A  
HETATM    8  C   UNL     1     -12.009  13.083  65.224  1.00  0.00    -0.407 A  
HETATM    9  S   UNL     1     -10.516  13.810  64.829  1.00  0.00    -0.395 SA 
HETATM   10  C   UNL     1     -11.426  14.156  67.201  1.00  0.00    -0.373 A  
HETATM   11  C   UNL     1     -12.387  13.350  66.520  1.00  0.00    -0.354 A  
ENDBRANCH   6   7
BRANCH   6  12
HETATM   12  O   UNL     1      -9.546  16.331  67.667  1.00  0.00    -0.224 OA 
BRANCH  12  13
HETATM   13  C   UNL     1      -9.558  17.631  67.204  1.00  0.00    -0.278 A  
HETATM   14  C   UNL     1     -10.545  19.412  65.881  1.00  0.00    -0.551 A  
HETATM   15  C   UNL     1     -10.582  18.115  66.381  1.00  0.00    -0.288 A  
HETATM   16  C   UNL     1      -9.491  20.254  66.216  1.00  0.00    -0.387 A  
HETATM   17  C   UNL     1      -8.487  19.830  67.092  1.00  0.00    -0.364 A  
HETATM   18  C   UNL     1      -7.456  20.716  67.440  1.00  0.00    -0.384 A  
HETATM   19  C   UNL     1      -6.468  20.348  68.349  1.00  0.00    -0.340 A  
HETATM   20  C   UNL     1      -6.505  19.082  68.921  1.00  0.00    -0.290 A  
HETATM   21  C   UNL     1      -7.511  18.174  68.562  1.00  0.00    -0.289 A  
HETATM   22  C   UNL     1      -8.520  18.514  67.627  1.00  0.00    -0.276 A  
ENDBRANCH  12  13
ENDBRANCH   6  12
ENDBRANCH   5   6
ENDBRANCH   4   5
ENDBRANCH   2   4
TORSDOF 6
ENDMDL
MODEL      110
REMARK 921   NORMALIZED FREE ENERGY PREDICTED BY IDOCK:   -4.45 KCAL/MOL
REMARK 922        TOTAL FREE ENERGY PREDICTED BY IDOCK:   -6.90 KCAL/MOL
REMARK 923 INTER-LIGAND FREE ENERGY PREDICTED BY IDOCK:   -6.03 KCAL/MOL
REMARK 924 INTRA-LIGAND FREE ENERGY PREDICTED BY IDOCK:   -0.87 KCAL/MOL
REMARK 927      BINDING AFFINITY PREDICTED BY RF-SCORE:    0.00 PKD
ROOT
HETATM    1  C   UNL     1      -9.819   4.585  70.127  1.00  0.00    -0.226 C  
HETATM    2  N   UNL     1     -10.539   5.816  69.807  1.00  0.00    -0.289 NA 
HETATM    3  H   UNL     1     -10.966   6.230  70.636  1.00  0.00     0.000 HD 
ENDROOT
BRANCH   2   4
HETATM    4  C   UNL     1      -9.666   6.769  69.114  1.00  0.00    -0.146 C  
BRANCH   4   5
HETATM    5  C   UNL     1      -9.644   8.165  69.759  1.00  0.00    -0.171 C  
BRANCH   5   6
HETATM    6  C   UNL     1     -10.629   9.205  69.196  1.00  0.00    -0.208 C  
BRANCH   6   7
HETATM    7  C   UNL     1     -11.588   9.724  70.251  1.00  0.00    -0.220 A  
HETATM    8  C   UNL     1     -13.183   9.867  72.141  1.00  0.00    -0.415 A  
HETATM    9  S   UNL     1     -12.333   8.619  71.343  1.00  0.00    -0.288 SA 
HETATM   10  C   UNL     1     -12.017  11.018  70.493  1.00  0.00    -0.474 A  
HETATM   11  C   UNL     1     -12.931  11.100  71.585  1.00  0.00    -0.548 A  
ENDBRANCH   6   7
BRANCH   6  12
HETATM   12  O   UNL     1      -9.891  10.359  68.710  1.00  0.00    -0.168 OA 
BRANCH  12  13
HETATM   13  C   UNL     1      -9.959  10.625  67.357  1.00  0.00    -0.181 A  
HETATM   14  C   UNL     1      -9.847   9.913  65.038  1.00  0.00    -0.323 A  
HETATM   15  C   UNL     1      -9.830   9.615  66.396  1.00  0.00    -0.309 A  
HETATM   16  C   UNL     1     -10.016  11.228  64.620  1.00  0.00    -0.331 A  
HETATM   17  C   UNL     1     -10.219  12.254  65.548  1.00  0.00    -0.296 A  
HETATM   18  C   UNL     1     -10.423  13.565  65.093  1.00  0.00    -0.375 A  
HETATM   19  C   UNL     1     -10.680  14.604  65.983  1.00  0.00    -0.313 A  
HETATM   20  C   UNL     1     -10.735  14.336  67.346  1.00  0.00    -0.282 A  
HETATM   21  C   UNL     1     -10.504  13.037  67.820  1.00  0.00    -0.232 A  
HETATM   22  C   UNL     1     -10.224  11.963  66.939  1.00  0.00    -0.233 A  
ENDBRANCH  12  13
ENDBRANCH   6  12
ENDBRANCH   5   6
ENDBRANCH   4   5
ENDBRANCH   2   4
TORSDOF 6
ENDMDL
MODEL      111
REMARK 921   NORMALIZED FREE ENERGY PREDICTED BY IDOCK:   -4.44 KCAL/MOL
REMARK 922        TOTAL FREE ENERGY PREDICTED BY IDOCK:   -6.90 KCAL/MOL
REMARK 923 INTER-LIGAND FREE ENERGY PREDICTED BY IDOCK:   -6.10 KCAL/MOL
REMARK 924 INTRA-LIGAND FREE ENERGY PREDICTED BY IDOCK:   -0.79 KCAL/MOL
REMARK 927      BINDING AFFINITY PREDICTED BY RF-SCORE:    0.00 PKD
ROOT
HETATM    1  C   UNL     1      -7.804  13.571  68.302  1.00  0.00    -0.145 C  
HETATM    2  N   UNL     1      -6.793  12.547  68.045  1.00  0.00    -0.082 NA 
HETATM    3  H   UNL     1      -6.035  12.586  68.727  1.00  0.00     0.000 HD 
ENDROOT
BRANCH   2   4
HETATM    4  C   UNL     1      -7.400  11.213  67.988  1.00  0.00    -0.088 C  
BRANCH   4   5
HETATM    5  C   UNL     1      -8.790  11.141  68.642  1.00  0.00    -0.155 C  
BRANCH   5   6
HETATM    6  C   UNL     1      -9.639   9.896  68.332  1.00  0.00    -0.148 C  
BRANCH   6   7
HETATM    7  C   UNL     1     -10.191   9.245  69.588  1.00  0.00    -0.208 A  
HETATM    8  C   UNL     1     -10.968   7.582  71.251  1.00  0.00    -0.242 A  
HETATM    9  S   UNL     1     -10.331   7.531  69.667  1.00  0.00    -0.229 SA 
HETATM   10  C   UNL     1     -10.655   9.830  70.753  1.00  0.00    -0.371 A  
HETATM   11  C   UNL     1     -11.098   8.872  71.712  1.00  0.00    -0.433 A  
ENDBRANCH   6   7
BRANCH   6  12
HETATM   12  O   UNL     1     -10.789  10.279  67.531  1.00  0.00    -0.276 OA 
BRANCH  12  13
HETATM   13  C   UNL     1     -10.548  10.652  66.223  1.00  0.00    -0.161 A  
HETATM   14  C   UNL     1      -9.581  10.237  64.034  1.00  0.00    -0.365 A  
HETATM   15  C   UNL     1      -9.860   9.820  65.331  1.00  0.00    -0.365 A  
HETATM   16  C   UNL     1     -10.006  11.489  63.603  1.00  0.00    -0.409 A  
HETATM   17  C   UNL     1     -10.757  12.318  64.442  1.00  0.00    -0.369 A  
HETATM   18  C   UNL     1     -11.203  13.560  63.965  1.00  0.00    -0.259 A  
HETATM   19  C   UNL     1     -11.996  14.390  64.752  1.00  0.00    -0.455 A  
HETATM   20  C   UNL     1     -12.352  13.981  66.031  1.00  0.00    -0.504 A  
HETATM   21  C   UNL     1     -11.889  12.756  66.535  1.00  0.00    -0.471 A  
HETATM   22  C   UNL     1     -11.068  11.898  65.764  1.00  0.00    -0.367 A  
ENDBRANCH  12  13
ENDBRANCH   6  12
ENDBRANCH   5   6
ENDBRANCH   4   5
ENDBRANCH   2   4
TORSDOF 6
ENDMDL
MODEL      112
REMARK 921   NORMALIZED FREE ENERGY PREDICTED BY IDOCK:   -4.43 KCAL/MOL
REMARK 922        TOTAL FREE ENERGY PREDICTED BY IDOCK:   -6.88 KCAL/MOL
REMARK 923 INTER-LIGAND FREE ENERGY PREDICTED BY IDOCK:   -5.96 KCAL/MOL
REMARK 924 INTRA-LIGAND FREE ENERGY PREDICTED BY IDOCK:   -0.92 KCAL/MOL
REMARK 927      BINDING AFFINITY PREDICTED BY RF-SCORE:    0.00 PKD
ROOT
HETATM    1  C   UNL     1     -11.524  16.414  68.668  1.00  0.00    -0.224 C  
HETATM    2  N   UNL     1     -12.253  15.156  68.518  1.00  0.00    -0.581 NA 
HETATM    3  H   UNL     1     -12.462  14.957  67.540  1.00  0.00     0.000 HD 
ENDROOT
BRANCH   2   4
HETATM    4  C   UNL     1     -11.527  14.050  69.152  1.00  0.00    -0.296 C  
BRANCH   4   5
HETATM    5  C   UNL     1     -11.303  12.847  68.221  1.00  0.00    -0.326 C  
BRANCH   5   6
HETATM    6  C   UNL     1     -10.367  13.065  67.020  1.00  0.00    -0.247 C  
BRANCH   6   7
HETATM    7  C   UNL     1     -11.101  12.988  65.693  1.00  0.00    -0.276 A  
HETATM    8  C   UNL     1     -12.261  13.586  63.588  1.00  0.00    -0.375 A  
HETATM    9  S   UNL     1     -11.550  14.441  64.883  1.00  0.00    -0.416 SA 
HETATM   10  C   UNL     1     -11.522  11.879  64.981  1.00  0.00    -0.306 A  
HETATM   11  C   UNL     1     -12.186  12.223  63.766  1.00  0.00    -0.642 A  
ENDBRANCH   6   7
BRANCH   6  12
HETATM   12  O   UNL     1      -9.787  14.395  67.090  1.00  0.00    -0.245 OA 
BRANCH  12  13
HETATM   13  C   UNL     1      -8.434  14.479  67.350  1.00  0.00    -0.205 A  
HETATM   14  C   UNL     1      -6.334  13.480  68.049  1.00  0.00    -0.136 A  
HETATM   15  C   UNL     1      -7.684  13.362  67.739  1.00  0.00    -0.161 A  
HETATM   16  C   UNL     1      -5.706  14.717  67.952  1.00  0.00    -0.133 A  
HETATM   17  C   UNL     1      -6.405  15.841  67.500  1.00  0.00    -0.192 A  
HETATM   18  C   UNL     1      -5.734  17.067  67.378  1.00  0.00    -0.172 A  
HETATM   19  C   UNL     1      -6.382  18.195  66.882  1.00  0.00    -0.200 A  
HETATM   20  C   UNL     1      -7.714  18.103  66.500  1.00  0.00    -0.280 A  
HETATM   21  C   UNL     1      -8.408  16.893  66.643  1.00  0.00    -0.289 A  
HETATM   22  C   UNL     1      -7.781  15.733  67.160  1.00  0.00    -0.255 A  
ENDBRANCH  12  13
ENDBRANCH   6  12
ENDBRANCH   5   6
ENDBRANCH   4   5
ENDBRANCH   2   4
TORSDOF 6
ENDMDL
MODEL      113
REMARK 921   NORMALIZED FREE ENERGY PREDICTED BY IDOCK:   -4.42 KCAL/MOL
REMARK 922        TOTAL FREE ENERGY PREDICTED BY IDOCK:   -6.86 KCAL/MOL
REMARK 923 INTER-LIGAND FREE ENERGY PREDICTED BY IDOCK:   -6.55 KCAL/MOL
REMARK 924 INTRA-LIGAND FREE ENERGY PREDICTED BY IDOCK:   -0.31 KCAL/MOL
REMARK 927      BINDING AFFINITY PREDICTED BY RF-SCORE:    0.00 PKD
ROOT
HETATM    1  C   UNL     1     -12.860   9.355  72.289  1.00  0.00    -0.375 C  
HETATM    2  N   UNL     1     -11.770   9.622  71.353  1.00  0.00    -0.380 NA 
HETATM    3  H   UNL     1     -11.651   8.859  70.686  1.00  0.00     0.000 HD 
ENDROOT
BRANCH   2   4
HETATM    4  C   UNL     1     -11.963  10.909  70.676  1.00  0.00    -0.368 C  
BRANCH   4   5
HETATM    5  C   UNL     1     -12.149  10.781  69.154  1.00  0.00    -0.227 C  
BRANCH   5   6
HETATM    6  C   UNL     1     -11.212  11.622  68.269  1.00  0.00    -0.260 C  
BRANCH   6   7
HETATM    7  C   UNL     1     -10.167  10.775  67.565  1.00  0.00    -0.196 A  
HETATM    8  C   UNL     1      -8.049   9.970  66.565  1.00  0.00    -0.119 A  
HETATM    9  S   UNL     1      -8.568  11.384  67.370  1.00  0.00    -0.147 SA 
HETATM   10  C   UNL     1     -10.288   9.520  66.994  1.00  0.00    -0.319 A  
HETATM   11  C   UNL     1      -9.066   9.055  66.422  1.00  0.00    -0.213 A  
ENDBRANCH   6   7
BRANCH   6  12
HETATM   12  O   UNL     1     -11.985  12.271  67.223  1.00  0.00    -0.546 OA 
BRANCH  12  13
HETATM   13  C   UNL     1     -11.504  13.470  66.738  1.00  0.00    -0.346 A  
HETATM   14  C   UNL     1     -10.702  14.862  64.916  1.00  0.00    -0.426 A  
HETATM   15  C   UNL     1     -11.238  13.665  65.376  1.00  0.00    -0.306 A  
HETATM   16  C   UNL     1     -10.444  15.895  65.811  1.00  0.00    -0.386 A  
HETATM   17  C   UNL     1     -10.761  15.763  67.166  1.00  0.00    -0.312 A  
HETATM   18  C   UNL     1     -10.522  16.836  68.038  1.00  0.00    -0.333 A  
HETATM   19  C   UNL     1     -10.872  16.762  69.383  1.00  0.00    -0.250 A  
HETATM   20  C   UNL     1     -11.470  15.606  69.870  1.00  0.00    -0.344 A  
HETATM   21  C   UNL     1     -11.689  14.513  69.019  1.00  0.00    -0.346 A  
HETATM   22  C   UNL     1     -11.328  14.552  67.650  1.00  0.00    -0.354 A  
ENDBRANCH  12  13
ENDBRANCH   6  12
ENDBRANCH   5   6
ENDBRANCH   4   5
ENDBRANCH   2   4
TORSDOF 6
ENDMDL
MODEL      114
REMARK 921   NORMALIZED FREE ENERGY PREDICTED BY IDOCK:   -4.42 KCAL/MOL
REMARK 922        TOTAL FREE ENERGY PREDICTED BY IDOCK:   -6.86 KCAL/MOL
REMARK 923 INTER-LIGAND FREE ENERGY PREDICTED BY IDOCK:   -6.01 KCAL/MOL
REMARK 924 INTRA-LIGAND FREE ENERGY PREDICTED BY IDOCK:   -0.86 KCAL/MOL
REMARK 927      BINDING AFFINITY PREDICTED BY RF-SCORE:    0.00 PKD
ROOT
HETATM    1  C   UNL     1     -11.482   6.647  72.014  1.00  0.00    -0.291 C  
HETATM    2  N   UNL     1     -12.070   7.111  70.759  1.00  0.00    -0.499 NA 
HETATM    3  H   UNL     1     -12.165   8.126  70.740  1.00  0.00     0.000 HD 
ENDROOT
BRANCH   2   4
HETATM    4  C   UNL     1     -11.306   6.618  69.607  1.00  0.00    -0.329 C  
BRANCH   4   5
HETATM    5  C   UNL     1     -10.738   7.738  68.720  1.00  0.00    -0.093 C  
BRANCH   5   6
HETATM    6  C   UNL     1     -10.342   9.047  69.425  1.00  0.00    -0.213 C  
BRANCH   6   7
HETATM    7  C   UNL     1      -8.887   9.413  69.190  1.00  0.00    -0.143 A  
HETATM    8  C   UNL     1      -6.430   9.295  68.898  1.00  0.00    -0.047 A  
HETATM    9  S   UNL     1      -7.683   8.181  69.223  1.00  0.00    -0.106 SA 
HETATM   10  C   UNL     1      -8.316  10.652  68.960  1.00  0.00    -0.153 A  
HETATM   11  C   UNL     1      -6.901  10.583  68.787  1.00  0.00    -0.060 A  
ENDBRANCH   6   7
BRANCH   6  12
HETATM   12  O   UNL     1     -11.131  10.144  68.892  1.00  0.00    -0.231 OA 
BRANCH  12  13
HETATM   13  C   UNL     1     -11.756  10.971  69.804  1.00  0.00    -0.335 A  
HETATM   14  C   UNL     1     -13.072  11.311  71.816  1.00  0.00    -0.527 A  
HETATM   15  C   UNL     1     -12.401  10.466  70.940  1.00  0.00    -0.480 A  
HETATM   16  C   UNL     1     -13.090  12.681  71.581  1.00  0.00    -0.421 A  
HETATM   17  C   UNL     1     -12.398  13.230  70.496  1.00  0.00    -0.389 A  
HETATM   18  C   UNL     1     -12.404  14.619  70.306  1.00  0.00    -0.406 A  
HETATM   19  C   UNL     1     -11.684  15.207  69.269  1.00  0.00    -0.352 A  
HETATM   20  C   UNL     1     -10.948  14.402  68.409  1.00  0.00    -0.261 A  
HETATM   21  C   UNL     1     -10.955  13.008  68.566  1.00  0.00    -0.290 A  
HETATM   22  C   UNL     1     -11.690  12.381  69.602  1.00  0.00    -0.377 A  
ENDBRANCH  12  13
ENDBRANCH   6  12
ENDBRANCH   5   6
ENDBRANCH   4   5
ENDBRANCH   2   4
TORSDOF 6
ENDMDL
MODEL      115
REMARK 921   NORMALIZED FREE ENERGY PREDICTED BY IDOCK:   -4.41 KCAL/MOL
REMARK 922        TOTAL FREE ENERGY PREDICTED BY IDOCK:   -6.86 KCAL/MOL
REMARK 923 INTER-LIGAND FREE ENERGY PREDICTED BY IDOCK:   -6.55 KCAL/MOL
REMARK 924 INTRA-LIGAND FREE ENERGY PREDICTED BY IDOCK:   -0.31 KCAL/MOL
REMARK 927      BINDING AFFINITY PREDICTED BY RF-SCORE:    0.00 PKD
ROOT
HETATM    1  C   UNL     1     -12.139  13.150  63.354  1.00  0.00    -0.486 C  
HETATM    2  N   UNL     1     -12.594  13.729  64.617  1.00  0.00    -0.652 NA 
HETATM    3  H   UNL     1     -13.559  14.052  64.558  1.00  0.00     0.000 HD 
ENDROOT
BRANCH   2   4
HETATM    4  C   UNL     1     -12.406  12.784  65.724  1.00  0.00    -0.323 C  
BRANCH   4   5
HETATM    5  C   UNL     1     -11.424  13.282  66.798  1.00  0.00    -0.387 C  
BRANCH   5   6
HETATM    6  C   UNL     1     -11.053  12.288  67.912  1.00  0.00    -0.243 C  
BRANCH   6   7
HETATM    7  C   UNL     1     -11.739  12.612  69.227  1.00  0.00    -0.322 A  
HETATM    8  C   UNL     1     -12.877  12.417  71.419  1.00  0.00    -0.260 A  
HETATM    9  S   UNL     1     -12.271  11.331  70.248  1.00  0.00    -0.337 SA 
HETATM   10  C   UNL     1     -12.054  13.842  69.778  1.00  0.00    -0.404 A  
HETATM   11  C   UNL     1     -12.705  13.729  71.042  1.00  0.00    -0.416 A  
ENDBRANCH   6   7
BRANCH   6  12
HETATM   12  O   UNL     1     -11.492  10.954  67.540  1.00  0.00    -0.483 OA 
BRANCH  12  13
HETATM   13  C   UNL     1     -10.522   9.977  67.440  1.00  0.00    -0.260 A  
HETATM   14  C   UNL     1      -9.165   8.216  68.418  1.00  0.00    -0.135 A  
HETATM   15  C   UNL     1     -10.183   9.157  68.524  1.00  0.00    -0.223 A  
HETATM   16  C   UNL     1      -8.483   8.066  67.216  1.00  0.00    -0.125 A  
HETATM   17  C   UNL     1      -8.840   8.817  66.092  1.00  0.00    -0.201 A  
HETATM   18  C   UNL     1      -8.157   8.616  64.883  1.00  0.00    -0.146 A  
HETATM   19  C   UNL     1      -8.518   9.307  63.730  1.00  0.00    -0.197 A  
HETATM   20  C   UNL     1      -9.573  10.209  63.777  1.00  0.00    -0.285 A  
HETATM   21  C   UNL     1     -10.247  10.444  64.984  1.00  0.00    -0.334 A  
HETATM   22  C   UNL     1      -9.892   9.769  66.178  1.00  0.00    -0.329 A  
ENDBRANCH  12  13
ENDBRANCH   6  12
ENDBRANCH   5   6
ENDBRANCH   4   5
ENDBRANCH   2   4
TORSDOF 6
ENDMDL
MODEL      116
REMARK 921   NORMALIZED FREE ENERGY PREDICTED BY IDOCK:   -4.40 KCAL/MOL
REMARK 922        TOTAL FREE ENERGY PREDICTED BY IDOCK:   -6.84 KCAL/MOL
REMARK 923 INTER-LIGAND FREE ENERGY PREDICTED BY IDOCK:   -5.86 KCAL/MOL
REMARK 924 INTRA-LIGAND FREE ENERGY PREDICTED BY IDOCK:   -0.98 KCAL/MOL
REMARK 927      BINDING AFFINITY PREDICTED BY RF-SCORE:    0.00 PKD
ROOT
HETATM    1  C   UNL     1      -7.288   8.309  72.296  1.00  0.00    -0.105 C  
HETATM    2  N   UNL     1      -8.499   8.512  73.090  1.00  0.00    -0.389 NA 
HETATM    3  H   UNL     1      -9.312   8.684  72.499  1.00  0.00     0.000 HD 
ENDROOT
BRANCH   2   4
HETATM    4  C   UNL     1      -8.722   7.386  74.004  1.00  0.00    -0.223 C  
BRANCH   4   5
HETATM    5  C   UNL     1     -10.020   6.612  73.720  1.00  0.00    -0.297 C  
BRANCH   5   6
HETATM    6  C   UNL     1     -10.051   5.754  72.443  1.00  0.00    -0.178 C  
BRANCH   6   7
HETATM    7  C   UNL     1     -10.364   4.297  72.732  1.00  0.00    -0.178 A  
HETATM    8  C   UNL     1     -10.401   1.822  72.663  1.00  0.00    -0.149 A  
HETATM    9  S   UNL     1      -9.604   3.063  71.802  1.00  0.00    -0.161 SA 
HETATM   10  C   UNL     1     -11.229   3.749  73.662  1.00  0.00    -0.288 A  
HETATM   11  C   UNL     1     -11.247   2.323  73.626  1.00  0.00    -0.316 A  
ENDBRANCH   6   7
BRANCH   6  12
HETATM   12  O   UNL     1     -11.103   6.232  71.563  1.00  0.00    -0.259 OA 
BRANCH  12  13
HETATM   13  C   UNL     1     -10.854   7.391  70.854  1.00  0.00    -0.240 A  
HETATM   14  C   UNL     1      -9.601   8.643  69.194  1.00  0.00    -0.163 A  
HETATM   15  C   UNL     1      -9.873   7.452  69.857  1.00  0.00    -0.178 A  
HETATM   16  C   UNL     1     -10.324   9.790  69.505  1.00  0.00    -0.247 A  
HETATM   17  C   UNL     1     -11.358   9.751  70.444  1.00  0.00    -0.362 A  
HETATM   18  C   UNL     1     -12.093  10.916  70.709  1.00  0.00    -0.469 A  
HETATM   19  C   UNL     1     -13.164  10.904  71.600  1.00  0.00    -0.471 A  
HETATM   20  C   UNL     1     -13.510   9.718  72.235  1.00  0.00    -0.443 A  
HETATM   21  C   UNL     1     -12.767   8.551  72.004  1.00  0.00    -0.421 A  
HETATM   22  C   UNL     1     -11.662   8.536  71.117  1.00  0.00    -0.322 A  
ENDBRANCH  12  13
ENDBRANCH   6  12
ENDBRANCH   5   6
ENDBRANCH   4   5
ENDBRANCH   2   4
TORSDOF 6
ENDMDL
MODEL      117
REMARK 921   NORMALIZED FREE ENERGY PREDICTED BY IDOCK:   -4.39 KCAL/MOL
REMARK 922        TOTAL FREE ENERGY PREDICTED BY IDOCK:   -6.82 KCAL/MOL
REMARK 923 INTER-LIGAND FREE ENERGY PREDICTED BY IDOCK:   -5.96 KCAL/MOL
REMARK 924 INTRA-LIGAND FREE ENERGY PREDICTED BY IDOCK:   -0.86 KCAL/MOL
REMARK 927      BINDING AFFINITY PREDICTED BY RF-SCORE:    0.00 PKD
ROOT
HETATM    1  C   UNL     1     -12.294  13.079  63.331  1.00  0.00    -0.394 C  
HETATM    2  N   UNL     1     -12.495  14.447  63.805  1.00  0.00    -1.058 NA 
HETATM    3  H   UNL     1     -13.482  14.704  63.806  1.00  0.00     0.000 HD 
ENDROOT
BRANCH   2   4
HETATM    4  C   UNL     1     -11.883  14.640  65.124  1.00  0.00    -0.351 C  
BRANCH   4   5
HETATM    5  C   UNL     1     -10.347  14.701  65.087  1.00  0.00    -0.431 C  
BRANCH   5   6
HETATM    6  C   UNL     1      -9.640  15.156  66.376  1.00  0.00    -0.284 C  
BRANCH   6   7
HETATM    7  C   UNL     1      -9.994  16.581  66.758  1.00  0.00    -0.276 A  
HETATM    8  C   UNL     1     -10.797  18.577  67.986  1.00  0.00    -0.120 A  
HETATM    9  S   UNL     1     -10.722  16.897  68.286  1.00  0.00    -0.363 SA 
HETATM   10  C   UNL     1      -9.844  17.751  66.034  1.00  0.00    -0.181 A  
HETATM   11  C   UNL     1     -10.302  18.901  66.744  1.00  0.00    -0.477 A  
ENDBRANCH   6   7
BRANCH   6  12
HETATM   12  O   UNL     1     -10.064  14.318  67.484  1.00  0.00    -0.233 OA 
BRANCH  12  13
HETATM   13  C   UNL     1      -9.143  13.417  67.981  1.00  0.00    -0.205 A  
HETATM   14  C   UNL     1      -6.997  12.906  68.996  1.00  0.00    -0.058 A  
HETATM   15  C   UNL     1      -7.934  13.832  68.552  1.00  0.00    -0.131 A  
HETATM   16  C   UNL     1      -7.266  11.546  68.894  1.00  0.00    -0.117 A  
HETATM   17  C   UNL     1      -8.491  11.094  68.395  1.00  0.00    -0.151 A  
HETATM   18  C   UNL     1      -8.747   9.715  68.340  1.00  0.00    -0.120 A  
HETATM   19  C   UNL     1      -9.974   9.229  67.898  1.00  0.00    -0.228 A  
HETATM   20  C   UNL     1     -10.962  10.124  67.506  1.00  0.00    -0.319 A  
HETATM   21  C   UNL     1     -10.712  11.504  67.527  1.00  0.00    -0.267 A  
HETATM   22  C   UNL     1      -9.468  12.028  67.955  1.00  0.00    -0.199 A  
ENDBRANCH  12  13
ENDBRANCH   6  12
ENDBRANCH   5   6
ENDBRANCH   4   5
ENDBRANCH   2   4
TORSDOF 6
ENDMDL
MODEL      118
REMARK 921   NORMALIZED FREE ENERGY PREDICTED BY IDOCK:   -4.37 KCAL/MOL
REMARK 922        TOTAL FREE ENERGY PREDICTED BY IDOCK:   -6.81 KCAL/MOL
REMARK 923 INTER-LIGAND FREE ENERGY PREDICTED BY IDOCK:   -5.91 KCAL/MOL
REMARK 924 INTRA-LIGAND FREE ENERGY PREDICTED BY IDOCK:   -0.90 KCAL/MOL
REMARK 927      BINDING AFFINITY PREDICTED BY RF-SCORE:    0.00 PKD
ROOT
HETATM    1  C   UNL     1      -5.876  13.142  68.136  1.00  0.00    -0.097 C  
HETATM    2  N   UNL     1      -6.105  12.509  66.839  1.00  0.00    -0.498 NA 
HETATM    3  H   UNL     1      -5.230  12.341  66.342  1.00  0.00     0.000 HD 
ENDROOT
BRANCH   2   4
HETATM    4  C   UNL     1      -6.889  11.278  66.987  1.00  0.00    -0.126 C  
BRANCH   4   5
HETATM    5  C   UNL     1      -8.383  11.458  66.671  1.00  0.00    -0.172 C  
BRANCH   5   6
HETATM    6  C   UNL     1      -9.319  11.705  67.867  1.00  0.00    -0.174 C  
BRANCH   6   7
HETATM    7  C   UNL     1     -10.020  13.049  67.785  1.00  0.00    -0.227 A  
HETATM    8  C   UNL     1     -11.672  14.838  67.329  1.00  0.00    -0.347 A  
HETATM    9  S   UNL     1     -11.572  13.156  67.047  1.00  0.00    -0.379 SA 
HETATM   10  C   UNL     1      -9.591  14.294  68.210  1.00  0.00    -0.221 A  
HETATM   11  C   UNL     1     -10.545  15.324  67.951  1.00  0.00    -0.260 A  
ENDBRANCH   6   7
BRANCH   6  12
HETATM   12  O   UNL     1     -10.366  10.698  67.881  1.00  0.00    -0.182 OA 
BRANCH  12  13
HETATM   13  C   UNL     1     -10.319   9.754  68.887  1.00  0.00    -0.210 A  
HETATM   14  C   UNL     1      -9.374   7.753  69.887  1.00  0.00    -0.157 A  
HETATM   15  C   UNL     1      -9.369   8.725  68.893  1.00  0.00    -0.145 A  
HETATM   16  C   UNL     1     -10.318   7.809  70.906  1.00  0.00    -0.208 A  
HETATM   17  C   UNL     1     -11.238   8.860  70.973  1.00  0.00    -0.342 A  
HETATM   18  C   UNL     1     -12.154   8.908  72.034  1.00  0.00    -0.442 A  
HETATM   19  C   UNL     1     -13.050   9.966  72.163  1.00  0.00    -0.497 A  
HETATM   20  C   UNL     1     -13.034  10.992  71.226  1.00  0.00    -0.472 A  
HETATM   21  C   UNL     1     -12.145  10.944  70.143  1.00  0.00    -0.431 A  
HETATM   22  C   UNL     1     -11.234   9.873  69.975  1.00  0.00    -0.327 A  
ENDBRANCH  12  13
ENDBRANCH   6  12
ENDBRANCH   5   6
ENDBRANCH   4   5
ENDBRANCH   2   4
TORSDOF 6
ENDMDL
MODEL      119
REMARK 921   NORMALIZED FREE ENERGY PREDICTED BY IDOCK:   -4.37 KCAL/MOL
REMARK 922        TOTAL FREE ENERGY PREDICTED BY IDOCK:   -6.80 KCAL/MOL
REMARK 923 INTER-LIGAND FREE ENERGY PREDICTED BY IDOCK:   -6.11 KCAL/MOL
REMARK 924 INTRA-LIGAND FREE ENERGY PREDICTED BY IDOCK:   -0.69 KCAL/MOL
REMARK 927      BINDING AFFINITY PREDICTED BY RF-SCORE:    0.00 PKD
ROOT
HETATM    1  C   UNL     1      -8.822   9.568  62.354  1.00  0.00    -0.246 C  
HETATM    2  N   UNL     1      -9.837  10.576  62.660  1.00  0.00    -0.697 NA 
HETATM    3  H   UNL     1     -10.624  10.526  62.013  1.00  0.00     0.000 HD 
ENDROOT
BRANCH   2   4
HETATM    4  C   UNL     1     -10.276  10.470  64.055  1.00  0.00    -0.168 C  
BRANCH   4   5
HETATM    5  C   UNL     1      -9.231  10.966  65.069  1.00  0.00    -0.233 C  
BRANCH   5   6
HETATM    6  C   UNL     1      -9.728  11.245  66.498  1.00  0.00    -0.202 C  
BRANCH   6   7
HETATM    7  C   UNL     1     -10.491  12.553  66.600  1.00  0.00    -0.233 A  
HETATM    8  C   UNL     1     -11.105  14.910  67.053  1.00  0.00    -0.338 A  
HETATM    9  S   UNL     1      -9.720  13.937  67.277  1.00  0.00    -0.252 SA 
HETATM   10  C   UNL     1     -11.795  12.845  66.240  1.00  0.00    -0.477 A  
HETATM   11  C   UNL     1     -12.147  14.203  66.497  1.00  0.00    -0.481 A  
ENDBRANCH   6   7
BRANCH   6  12
HETATM   12  O   UNL     1     -10.654  10.200  66.902  1.00  0.00    -0.238 OA 
BRANCH  12  13
HETATM   13  C   UNL     1     -10.374   9.532  68.078  1.00  0.00    -0.214 A  
HETATM   14  C   UNL     1      -9.846   9.525  70.448  1.00  0.00    -0.329 A  
HETATM   15  C   UNL     1     -10.180  10.212  69.287  1.00  0.00    -0.238 A  
HETATM   16  C   UNL     1      -9.722   8.140  70.423  1.00  0.00    -0.179 A  
HETATM   17  C   UNL     1      -9.977   7.421  69.251  1.00  0.00    -0.173 A  
HETATM   18  C   UNL     1      -9.879   6.021  69.267  1.00  0.00    -0.191 A  
HETATM   19  C   UNL     1     -10.176   5.267  68.135  1.00  0.00    -0.204 A  
HETATM   20  C   UNL     1     -10.577   5.912  66.971  1.00  0.00    -0.376 A  
HETATM   21  C   UNL     1     -10.651   7.312  66.930  1.00  0.00    -0.375 A  
HETATM   22  C   UNL     1     -10.339   8.107  68.060  1.00  0.00    -0.267 A  
ENDBRANCH  12  13
ENDBRANCH   6  12
ENDBRANCH   5   6
ENDBRANCH   4   5
ENDBRANCH   2   4
TORSDOF 6
ENDMDL
MODEL      120
REMARK 921   NORMALIZED FREE ENERGY PREDICTED BY IDOCK:   -4.36 KCAL/MOL
REMARK 922        TOTAL FREE ENERGY PREDICTED BY IDOCK:   -6.79 KCAL/MOL
REMARK 923 INTER-LIGAND FREE ENERGY PREDICTED BY IDOCK:   -6.53 KCAL/MOL
REMARK 924 INTRA-LIGAND FREE ENERGY PREDICTED BY IDOCK:   -0.26 KCAL/MOL
REMARK 927      BINDING AFFINITY PREDICTED BY RF-SCORE:    0.00 PKD
ROOT
HETATM    1  C   UNL     1      -8.635   7.490  65.702  1.00  0.00    -0.114 C  
HETATM    2  N   UNL     1      -9.979   7.802  66.184  1.00  0.00    -0.450 NA 
HETATM    3  H   UNL     1     -10.606   7.002  66.097  1.00  0.00     0.000 HD 
ENDROOT
BRANCH   2   4
HETATM    4  C   UNL     1      -9.937   8.310  67.560  1.00  0.00    -0.193 C  
BRANCH   4   5
HETATM    5  C   UNL     1     -10.914   9.470  67.818  1.00  0.00    -0.165 C  
BRANCH   5   6
HETATM    6  C   UNL     1     -10.301  10.874  67.954  1.00  0.00    -0.187 C  
BRANCH   6   7
HETATM    7  C   UNL     1     -11.079  11.922  67.178  1.00  0.00    -0.293 A  
HETATM    8  C   UNL     1     -12.132  13.224  65.353  1.00  0.00    -0.422 A  
HETATM    9  S   UNL     1     -11.171  11.816  65.462  1.00  0.00    -0.209 SA 
HETATM   10  C   UNL     1     -11.756  13.038  67.639  1.00  0.00    -0.415 A  
HETATM   11  C   UNL     1     -12.366  13.785  66.588  1.00  0.00    -0.403 A  
ENDBRANCH   6   7
BRANCH   6  12
HETATM   12  O   UNL     1     -10.337  11.287  69.347  1.00  0.00    -0.140 OA 
BRANCH  12  13
HETATM   13  C   UNL     1     -11.087  10.516  70.213  1.00  0.00    -0.285 A  
HETATM   14  C   UNL     1     -13.211   9.890  71.209  1.00  0.00    -0.465 A  
HETATM   15  C   UNL     1     -12.480  10.636  70.292  1.00  0.00    -0.381 A  
HETATM   16  C   UNL     1     -12.560   8.993  72.049  1.00  0.00    -0.464 A  
HETATM   17  C   UNL     1     -11.179   8.794  71.951  1.00  0.00    -0.438 A  
HETATM   18  C   UNL     1     -10.556   7.855  72.786  1.00  0.00    -0.418 A  
HETATM   19  C   UNL     1      -9.193   7.592  72.682  1.00  0.00    -0.217 A  
HETATM   20  C   UNL     1      -8.438   8.270  71.733  1.00  0.00    -0.207 A  
HETATM   21  C   UNL     1      -9.039   9.234  70.910  1.00  0.00    -0.288 A  
HETATM   22  C   UNL     1     -10.420   9.535  71.004  1.00  0.00    -0.377 A  
ENDBRANCH  12  13
ENDBRANCH   6  12
ENDBRANCH   5   6
ENDBRANCH   4   5
ENDBRANCH   2   4
TORSDOF 6
ENDMDL
MODEL      121
REMARK 921   NORMALIZED FREE ENERGY PREDICTED BY IDOCK:   -4.35 KCAL/MOL
REMARK 922        TOTAL FREE ENERGY PREDICTED BY IDOCK:   -6.77 KCAL/MOL
REMARK 923 INTER-LIGAND FREE ENERGY PREDICTED BY IDOCK:   -6.02 KCAL/MOL
REMARK 924 INTRA-LIGAND FREE ENERGY PREDICTED BY IDOCK:   -0.75 KCAL/MOL
REMARK 927      BINDING AFFINITY PREDICTED BY RF-SCORE:    0.00 PKD
ROOT
HETATM    1  C   UNL     1      -5.923   9.819  65.883  1.00  0.00    -0.068 C  
HETATM    2  N   UNL     1      -7.362   9.568  65.942  1.00  0.00    -0.095 NA 
HETATM    3  H   UNL     1      -7.609   8.687  65.492  1.00  0.00     0.000 HD 
ENDROOT
BRANCH   2   4
HETATM    4  C   UNL     1      -7.847   9.624  67.325  1.00  0.00    -0.095 C  
BRANCH   4   5
HETATM    5  C   UNL     1      -9.087  10.516  67.507  1.00  0.00    -0.144 C  
BRANCH   5   6
HETATM    6  C   UNL     1     -10.438   9.922  67.073  1.00  0.00    -0.230 C  
BRANCH   6   7
HETATM    7  C   UNL     1     -10.684   8.548  67.671  1.00  0.00    -0.119 A  
HETATM    8  C   UNL     1     -11.050   6.686  69.262  1.00  0.00    -0.289 A  
HETATM    9  S   UNL     1     -10.776   8.367  69.381  1.00  0.00    -0.092 SA 
HETATM   10  C   UNL     1     -10.837   7.327  67.039  1.00  0.00    -0.350 A  
HETATM   11  C   UNL     1     -11.052   6.255  67.956  1.00  0.00    -0.365 A  
ENDBRANCH   6   7
BRANCH   6  12
HETATM   12  O   UNL     1     -11.517  10.773  67.546  1.00  0.00    -0.475 OA 
BRANCH  12  13
HETATM   13  C   UNL     1     -11.565  12.061  67.052  1.00  0.00    -0.317 A  
HETATM   14  C   UNL     1     -11.552  13.635  65.202  1.00  0.00    -0.333 A  
HETATM   15  C   UNL     1     -11.559  12.328  65.677  1.00  0.00    -0.433 A  
HETATM   16  C   UNL     1     -11.574  14.697  66.098  1.00  0.00    -0.332 A  
HETATM   17  C   UNL     1     -11.652  14.471  67.476  1.00  0.00    -0.403 A  
HETATM   18  C   UNL     1     -11.709  15.564  68.353  1.00  0.00    -0.323 A  
HETATM   19  C   UNL     1     -11.840  15.379  69.726  1.00  0.00    -0.367 A  
HETATM   20  C   UNL     1     -11.915  14.089  70.236  1.00  0.00    -0.409 A  
HETATM   21  C   UNL     1     -11.829  12.984  69.377  1.00  0.00    -0.380 A  
HETATM   22  C   UNL     1     -11.679  13.141  67.977  1.00  0.00    -0.394 A  
ENDBRANCH  12  13
ENDBRANCH   6  12
ENDBRANCH   5   6
ENDBRANCH   4   5
ENDBRANCH   2   4
TORSDOF 6
ENDMDL
MODEL      122
REMARK 921   NORMALIZED FREE ENERGY PREDICTED BY IDOCK:   -4.34 KCAL/MOL
REMARK 922        TOTAL FREE ENERGY PREDICTED BY IDOCK:   -6.77 KCAL/MOL
REMARK 923 INTER-LIGAND FREE ENERGY PREDICTED BY IDOCK:   -5.95 KCAL/MOL
REMARK 924 INTRA-LIGAND FREE ENERGY PREDICTED BY IDOCK:   -0.82 KCAL/MOL
REMARK 927      BINDING AFFINITY PREDICTED BY RF-SCORE:    0.00 PKD
ROOT
HETATM    1  C   UNL     1      -6.881   7.764  72.609  1.00  0.00    -0.073 C  
HETATM    2  N   UNL     1      -7.969   8.700  72.887  1.00  0.00    -0.400 NA 
HETATM    3  H   UNL     1      -8.293   9.164  72.038  1.00  0.00     0.000 HD 
ENDROOT
BRANCH   2   4
HETATM    4  C   UNL     1      -9.069   8.032  73.592  1.00  0.00    -0.231 C  
BRANCH   4   5
HETATM    5  C   UNL     1     -10.319   7.821  72.722  1.00  0.00    -0.374 C  
BRANCH   5   6
HETATM    6  C   UNL     1     -10.096   7.696  71.205  1.00  0.00    -0.186 C  
BRANCH   6   7
HETATM    7  C   UNL     1      -9.936   6.253  70.762  1.00  0.00    -0.187 A  
HETATM    8  C   UNL     1      -9.701   4.208  69.383  1.00  0.00    -0.163 A  
HETATM    9  S   UNL     1      -9.887   5.879  69.081  1.00  0.00    -0.167 SA 
HETATM   10  C   UNL     1      -9.837   5.102  71.524  1.00  0.00    -0.234 A  
HETATM   11  C   UNL     1      -9.697   3.925  70.729  1.00  0.00    -0.255 A  
ENDBRANCH   6   7
BRANCH   6  12
HETATM   12  O   UNL     1     -11.255   8.214  70.499  1.00  0.00    -0.264 OA 
BRANCH  12  13
HETATM   13  C   UNL     1     -11.121   9.447  69.890  1.00  0.00    -0.200 A  
HETATM   14  C   UNL     1     -10.187  10.881  68.168  1.00  0.00    -0.197 A  
HETATM   15  C   UNL     1     -10.352   9.622  68.733  1.00  0.00    -0.233 A  
HETATM   16  C   UNL     1     -10.807  11.985  68.742  1.00  0.00    -0.267 A  
HETATM   17  C   UNL     1     -11.639  11.839  69.857  1.00  0.00    -0.351 A  
HETATM   18  C   UNL     1     -12.281  12.967  70.391  1.00  0.00    -0.381 A  
HETATM   19  C   UNL     1     -13.157  12.854  71.467  1.00  0.00    -0.390 A  
HETATM   20  C   UNL     1     -13.400  11.603  72.019  1.00  0.00    -0.405 A  
HETATM   21  C   UNL     1     -12.744  10.469  71.517  1.00  0.00    -0.558 A  
HETATM   22  C   UNL     1     -11.835  10.555  70.434  1.00  0.00    -0.431 A  
ENDBRANCH  12  13
ENDBRANCH   6  12
ENDBRANCH   5   6
ENDBRANCH   4   5
ENDBRANCH   2   4
TORSDOF 6
ENDMDL
MODEL      123
REMARK 921   NORMALIZED FREE ENERGY PREDICTED BY IDOCK:   -4.34 KCAL/MOL
REMARK 922        TOTAL FREE ENERGY PREDICTED BY IDOCK:   -6.76 KCAL/MOL
REMARK 923 INTER-LIGAND FREE ENERGY PREDICTED BY IDOCK:   -6.31 KCAL/MOL
REMARK 924 INTRA-LIGAND FREE ENERGY PREDICTED BY IDOCK:   -0.45 KCAL/MOL
REMARK 927      BINDING AFFINITY PREDICTED BY RF-SCORE:    0.00 PKD
ROOT
HETATM    1  C   UNL     1      -7.331  12.339  68.017  1.00  0.00    -0.105 C  
HETATM    2  N   UNL     1      -7.806  11.449  69.075  1.00  0.00    -0.304 NA 
HETATM    3  H   UNL     1      -7.845  11.923  69.977  1.00  0.00     0.000 HD 
ENDROOT
BRANCH   2   4
HETATM    4  C   UNL     1      -9.100  10.855  68.720  1.00  0.00    -0.171 C  
BRANCH   4   5
HETATM    5  C   UNL     1     -10.283  11.440  69.510  1.00  0.00     0.212 C  
BRANCH   5   6
HETATM    6  C   UNL     1     -11.639  10.731  69.353  1.00  0.00    -0.308 C  
BRANCH   6   7
HETATM    7  C   UNL     1     -11.899   9.728  70.462  1.00  0.00    -0.240 A  
HETATM    8  C   UNL     1     -11.881   7.685  71.863  1.00  0.00    -0.294 A  
HETATM    9  S   UNL     1     -11.170   8.169  70.388  1.00  0.00    -0.172 SA 
HETATM   10  C   UNL     1     -12.691   9.846  71.591  1.00  0.00    -0.527 A  
HETATM   11  C   UNL     1     -12.677   8.671  72.400  1.00  0.00    -0.423 A  
ENDBRANCH   6   7
BRANCH   6  12
HETATM   12  O   UNL     1     -12.711  11.710  69.428  1.00  0.00     0.059 OA 
BRANCH  12  13
HETATM   13  C   UNL     1     -12.355  13.041  69.335  1.00  0.00     0.027 A  
HETATM   14  C   UNL     1     -11.493  14.931  68.078  1.00  0.00    -0.355 A  
HETATM   15  C   UNL     1     -11.898  13.602  68.136  1.00  0.00    -0.407 A  
HETATM   16  C   UNL     1     -11.561  15.727  69.216  1.00  0.00    -0.380 A  
HETATM   17  C   UNL     1     -12.078  15.221  70.413  1.00  0.00    -0.388 A  
HETATM   18  C   UNL     1     -12.168  16.059  71.534  1.00  0.00    -0.478 A  
HETATM   19  C   UNL     1     -12.724  15.608  72.727  1.00  0.00    -0.538 A  
HETATM   20  C   UNL     1     -13.200  14.305  72.808  1.00  0.00    -0.614 A  
HETATM   21  C   UNL     1     -13.091  13.444  71.706  1.00  0.00    -0.479 A  
HETATM   22  C   UNL     1     -12.514  13.870  70.484  1.00  0.00    -0.422 A  
ENDBRANCH  12  13
ENDBRANCH   6  12
ENDBRANCH   5   6
ENDBRANCH   4   5
ENDBRANCH   2   4
TORSDOF 6
ENDMDL
MODEL      124
REMARK 921   NORMALIZED FREE ENERGY PREDICTED BY IDOCK:   -4.33 KCAL/MOL
REMARK 922        TOTAL FREE ENERGY PREDICTED BY IDOCK:   -6.75 KCAL/MOL
REMARK 923 INTER-LIGAND FREE ENERGY PREDICTED BY IDOCK:   -5.87 KCAL/MOL
REMARK 924 INTRA-LIGAND FREE ENERGY PREDICTED BY IDOCK:   -0.89 KCAL/MOL
REMARK 927      BINDING AFFINITY PREDICTED BY RF-SCORE:    0.00 PKD
ROOT
HETATM    1  C   UNL     1      -8.723   9.577  65.542  1.00  0.00    -0.154 C  
HETATM    2  N   UNL     1      -9.482   8.329  65.605  1.00  0.00    -0.430 NA 
HETATM    3  H   UNL     1      -9.224   7.692  64.851  1.00  0.00     0.000 HD 
ENDROOT
BRANCH   2   4
HETATM    4  C   UNL     1      -9.340   7.695  66.921  1.00  0.00    -0.161 C  
BRANCH   4   5
HETATM    5  C   UNL     1     -10.679   7.264  67.544  1.00  0.00    -0.326 C  
BRANCH   5   6
HETATM    6  C   UNL     1     -10.754   7.246  69.080  1.00  0.00    -0.166 C  
BRANCH   6   7
HETATM    7  C   UNL     1      -9.937   6.119  69.685  1.00  0.00    -0.168 A  
HETATM    8  C   UNL     1      -8.207   4.839  70.911  1.00  0.00    -0.087 A  
HETATM    9  S   UNL     1      -8.527   6.487  70.602  1.00  0.00    -0.135 SA 
HETATM   10  C   UNL     1     -10.128   4.750  69.606  1.00  0.00    -0.275 A  
HETATM   11  C   UNL     1      -9.134   4.014  70.317  1.00  0.00    -0.181 A  
ENDBRANCH   6   7
BRANCH   6  12
HETATM   12  O   UNL     1     -10.202   8.481  69.609  1.00  0.00    -0.198 OA 
BRANCH  12  13
HETATM   13  C   UNL     1     -11.079   9.346  70.234  1.00  0.00    -0.257 A  
HETATM   14  C   UNL     1     -12.760   9.823  71.919  1.00  0.00    -0.501 A  
HETATM   15  C   UNL     1     -11.844   8.953  71.339  1.00  0.00    -0.383 A  
HETATM   16  C   UNL     1     -12.911  11.109  71.414  1.00  0.00    -0.544 A  
HETATM   17  C   UNL     1     -12.115  11.560  70.356  1.00  0.00    -0.471 A  
HETATM   18  C   UNL     1     -12.265  12.876  69.893  1.00  0.00    -0.258 A  
HETATM   19  C   UNL     1     -11.455  13.377  68.877  1.00  0.00    -0.347 A  
HETATM   20  C   UNL     1     -10.482  12.561  68.315  1.00  0.00    -0.243 A  
HETATM   21  C   UNL     1     -10.339  11.234  68.746  1.00  0.00    -0.223 A  
HETATM   22  C   UNL     1     -11.159  10.690  69.765  1.00  0.00    -0.358 A  
ENDBRANCH  12  13
ENDBRANCH   6  12
ENDBRANCH   5   6
ENDBRANCH   4   5
ENDBRANCH   2   4
TORSDOF 6
ENDMDL
MODEL      125
REMARK 921   NORMALIZED FREE ENERGY PREDICTED BY IDOCK:   -4.33 KCAL/MOL
REMARK 922        TOTAL FREE ENERGY PREDICTED BY IDOCK:   -6.74 KCAL/MOL
REMARK 923 INTER-LIGAND FREE ENERGY PREDICTED BY IDOCK:   -6.07 KCAL/MOL
REMARK 924 INTRA-LIGAND FREE ENERGY PREDICTED BY IDOCK:   -0.67 KCAL/MOL
REMARK 927      BINDING AFFINITY PREDICTED BY RF-SCORE:    0.00 PKD
ROOT
HETATM    1  C   UNL     1      -6.273  12.393  67.507  1.00  0.00    -0.148 C  
HETATM    2  N   UNL     1      -6.591  11.724  66.247  1.00  0.00    -0.375 NA 
HETATM    3  H   UNL     1      -5.755  11.565  65.684  1.00  0.00     0.000 HD 
ENDROOT
BRANCH   2   4
HETATM    4  C   UNL     1      -7.328  10.478  66.485  1.00  0.00    -0.125 C  
BRANCH   4   5
HETATM    5  C   UNL     1      -8.655  10.391  65.712  1.00  0.00    -0.172 C  
BRANCH   5   6
HETATM    6  C   UNL     1      -9.922  10.842  66.458  1.00  0.00    -0.213 C  
BRANCH   6   7
HETATM    7  C   UNL     1     -10.850  11.661  65.579  1.00  0.00    -0.279 A  
HETATM    8  C   UNL     1     -11.894  12.787  63.635  1.00  0.00    -0.532 A  
HETATM    9  S   UNL     1     -10.520  11.806  63.895  1.00  0.00    -0.437 SA 
HETATM   10  C   UNL     1     -11.982  12.381  65.922  1.00  0.00    -0.434 A  
HETATM   11  C   UNL     1     -12.585  13.025  64.801  1.00  0.00    -0.460 A  
ENDBRANCH   6   7
BRANCH   6  12
HETATM   12  O   UNL     1     -10.681   9.675  66.876  1.00  0.00    -0.203 OA 
BRANCH  12  13
HETATM   13  C   UNL     1     -10.391   9.149  68.120  1.00  0.00    -0.216 A  
HETATM   14  C   UNL     1      -9.174   7.610  69.551  1.00  0.00    -0.150 A  
HETATM   15  C   UNL     1      -9.411   8.165  68.298  1.00  0.00    -0.148 A  
HETATM   16  C   UNL     1      -9.902   8.049  70.651  1.00  0.00    -0.192 A  
HETATM   17  C   UNL     1     -10.838   9.079  70.526  1.00  0.00    -0.296 A  
HETATM   18  C   UNL     1     -11.529   9.525  71.662  1.00  0.00    -0.433 A  
HETATM   19  C   UNL     1     -12.431  10.583  71.587  1.00  0.00    -0.443 A  
HETATM   20  C   UNL     1     -12.649  11.208  70.365  1.00  0.00    -0.328 A  
HETATM   21  C   UNL     1     -11.989  10.755  69.213  1.00  0.00    -0.334 A  
HETATM   22  C   UNL     1     -11.079   9.670  69.256  1.00  0.00    -0.149 A  
ENDBRANCH  12  13
ENDBRANCH   6  12
ENDBRANCH   5   6
ENDBRANCH   4   5
ENDBRANCH   2   4
TORSDOF 6
ENDMDL
MODEL      126
REMARK 921   NORMALIZED FREE ENERGY PREDICTED BY IDOCK:   -4.30 KCAL/MOL
REMARK 922        TOTAL FREE ENERGY PREDICTED BY IDOCK:   -6.70 KCAL/MOL
REMARK 923 INTER-LIGAND FREE ENERGY PREDICTED BY IDOCK:   -5.77 KCAL/MOL
REMARK 924 INTRA-LIGAND FREE ENERGY PREDICTED BY IDOCK:   -0.93 KCAL/MOL
REMARK 927      BINDING AFFINITY PREDICTED BY RF-SCORE:    0.00 PKD
ROOT
HETATM    1  C   UNL     1     -12.388  12.763  64.584  1.00  0.00    -0.459 C  
HETATM    2  N   UNL     1     -11.180  13.582  64.663  1.00  0.00    -0.347 NA 
HETATM    3  H   UNL     1     -10.925  13.966  63.753  1.00  0.00     0.000 HD 
ENDROOT
BRANCH   2   4
HETATM    4  C   UNL     1     -11.326  14.635  65.673  1.00  0.00    -0.338 C  
BRANCH   4   5
HETATM    5  C   UNL     1     -12.042  14.167  66.951  1.00  0.00    -0.466 C  
BRANCH   5   6
HETATM    6  C   UNL     1     -11.150  13.699  68.114  1.00  0.00    -0.256 C  
BRANCH   6   7
HETATM    7  C   UNL     1     -11.784  13.954  69.469  1.00  0.00    -0.313 A  
HETATM    8  C   UNL     1     -12.756  15.059  71.462  1.00  0.00    -0.340 A  
HETATM    9  S   UNL     1     -12.090  15.572  69.975  1.00  0.00    -0.344 SA 
HETATM   10  C   UNL     1     -12.168  13.053  70.447  1.00  0.00    -0.386 A  
HETATM   11  C   UNL     1     -12.731  13.690  71.593  1.00  0.00    -0.396 A  
ENDBRANCH   6   7
BRANCH   6  12
HETATM   12  O   UNL     1     -10.945  12.264  68.022  1.00  0.00    -0.206 OA 
BRANCH  12  13
HETATM   13  C   UNL     1      -9.685  11.830  67.660  1.00  0.00    -0.182 A  
HETATM   14  C   UNL     1      -7.331  12.245  67.232  1.00  0.00    -0.140 A  
HETATM   15  C   UNL     1      -8.580  12.689  67.652  1.00  0.00    -0.180 A  
HETATM   16  C   UNL     1      -7.165  10.924  66.831  1.00  0.00    -0.124 A  
HETATM   17  C   UNL     1      -8.228  10.018  66.892  1.00  0.00    -0.121 A  
HETATM   18  C   UNL     1      -8.019   8.683  66.516  1.00  0.00    -0.099 A  
HETATM   19  C   UNL     1      -9.040   7.740  66.612  1.00  0.00    -0.195 A  
HETATM   20  C   UNL     1     -10.285   8.130  67.089  1.00  0.00    -0.366 A  
HETATM   21  C   UNL     1     -10.520   9.467  67.441  1.00  0.00    -0.343 A  
HETATM   22  C   UNL     1      -9.506  10.451  67.338  1.00  0.00    -0.170 A  
ENDBRANCH  12  13
ENDBRANCH   6  12
ENDBRANCH   5   6
ENDBRANCH   4   5
ENDBRANCH   2   4
TORSDOF 6
ENDMDL
MODEL      127
REMARK 921   NORMALIZED FREE ENERGY PREDICTED BY IDOCK:   -4.27 KCAL/MOL
REMARK 922        TOTAL FREE ENERGY PREDICTED BY IDOCK:   -6.67 KCAL/MOL
REMARK 923 INTER-LIGAND FREE ENERGY PREDICTED BY IDOCK:   -5.70 KCAL/MOL
REMARK 924 INTRA-LIGAND FREE ENERGY PREDICTED BY IDOCK:   -0.98 KCAL/MOL
REMARK 927      BINDING AFFINITY PREDICTED BY RF-SCORE:    0.00 PKD
ROOT
HETATM    1  C   UNL     1      -9.164  10.602  62.462  1.00  0.00    -0.295 C  
HETATM    2  N   UNL     1      -9.210  11.870  63.187  1.00  0.00    -0.661 NA 
HETATM    3  H   UNL     1      -9.040  12.664  62.569  1.00  0.00     0.000 HD 
ENDROOT
BRANCH   2   4
HETATM    4  C   UNL     1     -10.476  12.012  63.915  1.00  0.00    -0.402 C  
BRANCH   4   5
HETATM    5  C   UNL     1     -10.531  11.198  65.218  1.00  0.00    -0.326 C  
BRANCH   5   6
HETATM    6  C   UNL     1     -10.049  11.903  66.498  1.00  0.00    -0.203 C  
BRANCH   6   7
HETATM    7  C   UNL     1      -8.709  11.377  66.979  1.00  0.00    -0.160 A  
HETATM    8  C   UNL     1      -6.654  10.023  67.253  1.00  0.00    -0.069 A  
HETATM    9  S   UNL     1      -8.040   9.964  66.257  1.00  0.00    -0.116 SA 
HETATM   10  C   UNL     1      -7.883  11.855  67.982  1.00  0.00    -0.140 A  
HETATM   11  C   UNL     1      -6.697  11.077  68.136  1.00  0.00    -0.062 A  
ENDBRANCH   6   7
BRANCH   6  12
HETATM   12  O   UNL     1      -9.861  13.319  66.230  1.00  0.00    -0.277 OA 
BRANCH  12  13
HETATM   13  C   UNL     1     -10.389  14.208  67.145  1.00  0.00    -0.265 A  
HETATM   14  C   UNL     1     -12.009  14.790  68.858  1.00  0.00    -0.298 A  
HETATM   15  C   UNL     1     -11.457  13.862  67.983  1.00  0.00    -0.339 A  
HETATM   16  C   UNL     1     -11.486  16.076  68.924  1.00  0.00    -0.362 A  
HETATM   17  C   UNL     1     -10.376  16.438  68.155  1.00  0.00    -0.283 A  
HETATM   18  C   UNL     1      -9.848  17.733  68.272  1.00  0.00    -0.340 A  
HETATM   19  C   UNL     1      -8.713  18.114  67.562  1.00  0.00    -0.249 A  
HETATM   20  C   UNL     1      -8.092  17.195  66.725  1.00  0.00    -0.278 A  
HETATM   21  C   UNL     1      -8.624  15.906  66.573  1.00  0.00    -0.345 A  
HETATM   22  C   UNL     1      -9.787  15.495  67.270  1.00  0.00    -0.224 A  
ENDBRANCH  12  13
ENDBRANCH   6  12
ENDBRANCH   5   6
ENDBRANCH   4   5
ENDBRANCH   2   4
TORSDOF 6
ENDMDL
MODEL      128
REMARK 921   NORMALIZED FREE ENERGY PREDICTED BY IDOCK:   -4.26 KCAL/MOL
REMARK 922        TOTAL FREE ENERGY PREDICTED BY IDOCK:   -6.65 KCAL/MOL
REMARK 923 INTER-LIGAND FREE ENERGY PREDICTED BY IDOCK:   -5.86 KCAL/MOL
REMARK 924 INTRA-LIGAND FREE ENERGY PREDICTED BY IDOCK:   -0.79 KCAL/MOL
REMARK 927      BINDING AFFINITY PREDICTED BY RF-SCORE:    0.00 PKD
ROOT
HETATM    1  C   UNL     1     -14.268   7.429  71.477  1.00  0.00    -0.427 C  
HETATM    2  N   UNL     1     -14.315   8.788  72.014  1.00  0.00    -0.408 NA 
HETATM    3  H   UNL     1     -14.162   8.800  73.023  1.00  0.00     0.000 HD 
ENDROOT
BRANCH   2   4
HETATM    4  C   UNL     1     -13.368   9.662  71.313  1.00  0.00    -0.330 C  
BRANCH   4   5
HETATM    5  C   UNL     1     -11.934   9.582  71.863  1.00  0.00    -0.381 C  
BRANCH   5   6
HETATM    6  C   UNL     1     -10.815   9.306  70.843  1.00  0.00    -0.296 C  
BRANCH   6   7
HETATM    7  C   UNL     1     -10.713   7.836  70.480  1.00  0.00    -0.236 A  
HETATM    8  C   UNL     1     -10.474   5.374  70.607  1.00  0.00    -0.259 A  
HETATM    9  S   UNL     1     -10.483   6.666  71.723  1.00  0.00    -0.211 SA 
HETATM   10  C   UNL     1     -10.752   7.230  69.237  1.00  0.00    -0.212 A  
HETATM   11  C   UNL     1     -10.619   5.811  69.311  1.00  0.00    -0.376 A  
ENDBRANCH   6   7
BRANCH   6  12
HETATM   12  O   UNL     1     -11.101  10.014  69.606  1.00  0.00    -0.242 OA 
BRANCH  12  13
HETATM   13  C   UNL     1     -10.084  10.778  69.069  1.00  0.00    -0.211 A  
HETATM   14  C   UNL     1      -7.727  11.217  68.681  1.00  0.00    -0.136 A  
HETATM   15  C   UNL     1      -8.739  10.405  69.181  1.00  0.00    -0.173 A  
HETATM   16  C   UNL     1      -8.049  12.409  68.041  1.00  0.00    -0.162 A  
HETATM   17  C   UNL     1      -9.383  12.781  67.849  1.00  0.00    -0.208 A  
HETATM   18  C   UNL     1      -9.675  13.971  67.166  1.00  0.00    -0.242 A  
HETATM   19  C   UNL     1     -10.990  14.349  66.910  1.00  0.00    -0.308 A  
HETATM   20  C   UNL     1     -12.030  13.532  67.336  1.00  0.00    -0.398 A  
HETATM   21  C   UNL     1     -11.756  12.353  68.046  1.00  0.00    -0.414 A  
HETATM   22  C   UNL     1     -10.429  11.952  68.336  1.00  0.00    -0.231 A  
ENDBRANCH  12  13
ENDBRANCH   6  12
ENDBRANCH   5   6
ENDBRANCH   4   5
ENDBRANCH   2   4
TORSDOF 6
ENDMDL
MODEL      129
REMARK 921   NORMALIZED FREE ENERGY PREDICTED BY IDOCK:   -4.26 KCAL/MOL
REMARK 922        TOTAL FREE ENERGY PREDICTED BY IDOCK:   -6.65 KCAL/MOL
REMARK 923 INTER-LIGAND FREE ENERGY PREDICTED BY IDOCK:   -6.39 KCAL/MOL
REMARK 924 INTRA-LIGAND FREE ENERGY PREDICTED BY IDOCK:   -0.26 KCAL/MOL
REMARK 927      BINDING AFFINITY PREDICTED BY RF-SCORE:    0.00 PKD
ROOT
HETATM    1  C   UNL     1     -12.255  13.428  64.069  1.00  0.00    -0.405 C  
HETATM    2  N   UNL     1     -12.537  12.938  65.417  1.00  0.00    -0.597 NA 
HETATM    3  H   UNL     1     -13.454  12.495  65.472  1.00  0.00     0.000 HD 
ENDROOT
BRANCH   2   4
HETATM    4  C   UNL     1     -11.474  12.041  65.882  1.00  0.00    -0.333 C  
BRANCH   4   5
HETATM    5  C   UNL     1     -11.688  11.524  67.315  1.00  0.00    -0.193 C  
BRANCH   5   6
HETATM    6  C   UNL     1     -10.823  12.158  68.417  1.00  0.00    -0.224 C  
BRANCH   6   7
HETATM    7  C   UNL     1     -11.656  12.718  69.556  1.00  0.00    -0.276 A  
HETATM    8  C   UNL     1     -12.824  14.260  71.103  1.00  0.00    -0.359 A  
HETATM    9  S   UNL     1     -11.838  14.423  69.718  1.00  0.00    -0.339 SA 
HETATM   10  C   UNL     1     -12.323  12.054  70.570  1.00  0.00    -0.369 A  
HETATM   11  C   UNL     1     -13.000  12.942  71.458  1.00  0.00    -0.388 A  
ENDBRANCH   6   7
BRANCH   6  12
HETATM   12  O   UNL     1      -9.960  11.144  69.002  1.00  0.00    -0.199 OA 
BRANCH  12  13
HETATM   13  C   UNL     1      -9.855   9.944  68.328  1.00  0.00    -0.147 A  
HETATM   14  C   UNL     1      -9.144   8.633  66.411  1.00  0.00    -0.218 A  
HETATM   15  C   UNL     1      -9.192   9.840  67.099  1.00  0.00    -0.159 A  
HETATM   16  C   UNL     1      -9.742   7.502  66.955  1.00  0.00    -0.257 A  
HETATM   17  C   UNL     1     -10.352   7.549  68.213  1.00  0.00    -0.233 A  
HETATM   18  C   UNL     1     -10.915   6.383  68.751  1.00  0.00    -0.404 A  
HETATM   19  C   UNL     1     -11.484   6.378  70.021  1.00  0.00    -0.496 A  
HETATM   20  C   UNL     1     -11.494   7.550  70.768  1.00  0.00    -0.305 A  
HETATM   21  C   UNL     1     -10.963   8.732  70.233  1.00  0.00    -0.255 A  
HETATM   22  C   UNL     1     -10.392   8.772  68.938  1.00  0.00    -0.229 A  
ENDBRANCH  12  13
ENDBRANCH   6  12
ENDBRANCH   5   6
ENDBRANCH   4   5
ENDBRANCH   2   4
TORSDOF 6
ENDMDL
MODEL      130
REMARK 921   NORMALIZED FREE ENERGY PREDICTED BY IDOCK:   -4.25 KCAL/MOL
REMARK 922        TOTAL FREE ENERGY PREDICTED BY IDOCK:   -6.64 KCAL/MOL
REMARK 923 INTER-LIGAND FREE ENERGY PREDICTED BY IDOCK:   -6.34 KCAL/MOL
REMARK 924 INTRA-LIGAND FREE ENERGY PREDICTED BY IDOCK:   -0.30 KCAL/MOL
REMARK 927      BINDING AFFINITY PREDICTED BY RF-SCORE:    0.00 PKD
ROOT
HETATM    1  C   UNL     1     -10.768  20.145  65.367  1.00  0.00     0.017 C  
HETATM    2  N   UNL     1      -9.935  19.454  66.350  1.00  0.00    -0.382 NA 
HETATM    3  H   UNL     1      -9.107  19.998  66.591  1.00  0.00     0.000 HD 
ENDROOT
BRANCH   2   4
HETATM    4  C   UNL     1     -10.715  19.099  67.541  1.00  0.00    -0.458 C  
BRANCH   4   5
HETATM    5  C   UNL     1      -9.893  18.378  68.622  1.00  0.00    -0.403 C  
BRANCH   5   6
HETATM    6  C   UNL     1      -8.549  17.772  68.182  1.00  0.00    -0.262 C  
BRANCH   6   7
HETATM    7  C   UNL     1      -7.363  18.466  68.827  1.00  0.00    -0.287 A  
HETATM    8  C   UNL     1      -5.200  18.912  69.948  1.00  0.00    -0.207 A  
HETATM    9  S   UNL     1      -6.054  17.525  69.434  1.00  0.00    -0.253 SA 
HETATM   10  C   UNL     1      -7.143  19.814  69.047  1.00  0.00    -0.358 A  
HETATM   11  C   UNL     1      -5.895  20.071  69.689  1.00  0.00    -0.344 A  
ENDBRANCH   6   7
BRANCH   6  12
HETATM   12  O   UNL     1      -8.484  16.381  68.597  1.00  0.00    -0.206 OA 
BRANCH  12  13
HETATM   13  C   UNL     1      -9.678  15.692  68.678  1.00  0.00    -0.204 A  
HETATM   14  C   UNL     1     -11.595  14.895  69.939  1.00  0.00    -0.328 A  
HETATM   15  C   UNL     1     -10.423  15.640  69.863  1.00  0.00    -0.327 A  
HETATM   16  C   UNL     1     -12.052  14.208  68.820  1.00  0.00    -0.326 A  
HETATM   17  C   UNL     1     -11.374  14.294  67.600  1.00  0.00    -0.344 A  
HETATM   18  C   UNL     1     -11.881  13.618  66.480  1.00  0.00    -0.441 A  
HETATM   19  C   UNL     1     -11.263  13.722  65.237  1.00  0.00    -0.311 A  
HETATM   20  C   UNL     1     -10.126  14.509  65.104  1.00  0.00    -0.361 A  
HETATM   21  C   UNL     1      -9.588  15.167  66.220  1.00  0.00    -0.325 A  
HETATM   22  C   UNL     1     -10.185  15.067  67.501  1.00  0.00    -0.234 A  
ENDBRANCH  12  13
ENDBRANCH   6  12
ENDBRANCH   5   6
ENDBRANCH   4   5
ENDBRANCH   2   4
TORSDOF 6
ENDMDL
MODEL      131
REMARK 921   NORMALIZED FREE ENERGY PREDICTED BY IDOCK:   -4.25 KCAL/MOL
REMARK 922        TOTAL FREE ENERGY PREDICTED BY IDOCK:   -6.64 KCAL/MOL
REMARK 923 INTER-LIGAND FREE ENERGY PREDICTED BY IDOCK:   -6.14 KCAL/MOL
REMARK 924 INTRA-LIGAND FREE ENERGY PREDICTED BY IDOCK:   -0.50 KCAL/MOL
REMARK 927      BINDING AFFINITY PREDICTED BY RF-SCORE:    0.00 PKD
ROOT
HETATM    1  C   UNL     1      -9.036   7.391  65.859  1.00  0.00    -0.077 C  
HETATM    2  N   UNL     1      -9.905   6.259  66.178  1.00  0.00    -0.387 NA 
HETATM    3  H   UNL     1      -9.367   5.415  66.375  1.00  0.00     0.000 HD 
ENDROOT
BRANCH   2   4
HETATM    4  C   UNL     1     -10.814   6.592  67.281  1.00  0.00    -0.390 C  
BRANCH   4   5
HETATM    5  C   UNL     1     -10.342   6.067  68.647  1.00  0.00    -0.264 C  
BRANCH   5   6
HETATM    6  C   UNL     1     -10.858   6.810  69.891  1.00  0.00    -0.266 C  
BRANCH   6   7
HETATM    7  C   UNL     1     -10.894   5.923  71.122  1.00  0.00    -0.269 A  
HETATM    8  C   UNL     1     -10.401   4.154  72.784  1.00  0.00    -0.175 A  
HETATM    9  S   UNL     1      -9.775   4.620  71.266  1.00  0.00    -0.192 SA 
HETATM   10  C   UNL     1     -11.740   5.966  72.216  1.00  0.00    -0.309 A  
HETATM   11  C   UNL     1     -11.453   4.950  73.175  1.00  0.00    -0.362 A  
ENDBRANCH   6   7
BRANCH   6  12
HETATM   12  O   UNL     1      -9.961   7.910  70.206  1.00  0.00    -0.188 OA 
BRANCH  12  13
HETATM   13  C   UNL     1     -10.306   9.159  69.728  1.00  0.00    -0.215 A  
HETATM   14  C   UNL     1     -10.060  10.969  68.129  1.00  0.00    -0.195 A  
HETATM   15  C   UNL     1      -9.740   9.688  68.562  1.00  0.00    -0.161 A  
HETATM   16  C   UNL     1     -10.971  11.736  68.847  1.00  0.00    -0.288 A  
HETATM   17  C   UNL     1     -11.610  11.216  69.977  1.00  0.00    -0.421 A  
HETATM   18  C   UNL     1     -12.552  12.000  70.658  1.00  0.00    -0.255 A  
HETATM   19  C   UNL     1     -13.247  11.499  71.756  1.00  0.00    -0.456 A  
HETATM   20  C   UNL     1     -13.003  10.199  72.181  1.00  0.00    -0.436 A  
HETATM   21  C   UNL     1     -12.043   9.411  71.530  1.00  0.00    -0.456 A  
HETATM   22  C   UNL     1     -11.309   9.900  70.421  1.00  0.00    -0.376 A  
ENDBRANCH  12  13
ENDBRANCH   6  12
ENDBRANCH   5   6
ENDBRANCH   4   5
ENDBRANCH   2   4
TORSDOF 6
ENDMDL
MODEL      132
REMARK 921   NORMALIZED FREE ENERGY PREDICTED BY IDOCK:   -4.24 KCAL/MOL
REMARK 922        TOTAL FREE ENERGY PREDICTED BY IDOCK:   -6.62 KCAL/MOL
REMARK 923 INTER-LIGAND FREE ENERGY PREDICTED BY IDOCK:   -5.83 KCAL/MOL
REMARK 924 INTRA-LIGAND FREE ENERGY PREDICTED BY IDOCK:   -0.79 KCAL/MOL
REMARK 927      BINDING AFFINITY PREDICTED BY RF-SCORE:    0.00 PKD
ROOT
HETATM    1  C   UNL     1     -12.427  10.913  70.710  1.00  0.00    -0.394 C  
HETATM    2  N   UNL     1     -13.301   9.742  70.759  1.00  0.00    -0.606 NA 
HETATM    3  H   UNL     1     -13.155   9.130  69.956  1.00  0.00     0.000 HD 
ENDROOT
BRANCH   2   4
HETATM    4  C   UNL     1     -13.140   9.020  72.026  1.00  0.00    -0.414 C  
BRANCH   4   5
HETATM    5  C   UNL     1     -12.804   7.530  71.847  1.00  0.00    -0.306 C  
BRANCH   5   6
HETATM    6  C   UNL     1     -11.377   7.192  71.382  1.00  0.00    -0.259 C  
BRANCH   6   7
HETATM    7  C   UNL     1     -10.371   7.247  72.518  1.00  0.00    -0.218 A  
HETATM    8  C   UNL     1      -9.074   6.728  74.563  1.00  0.00    -0.199 A  
HETATM    9  S   UNL     1     -10.385   6.021  73.728  1.00  0.00    -0.285 SA 
HETATM   10  C   UNL     1      -9.390   8.187  72.782  1.00  0.00    -0.344 A  
HETATM   11  C   UNL     1      -8.640   7.884  73.958  1.00  0.00    -0.322 A  
ENDBRANCH   6   7
BRANCH   6  12
HETATM   12  O   UNL     1     -11.341   5.833  70.870  1.00  0.00    -0.213 OA 
BRANCH  12  13
HETATM   13  C   UNL     1     -10.873   5.658  69.582  1.00  0.00    -0.295 A  
HETATM   14  C   UNL     1     -10.788   6.300  67.242  1.00  0.00    -0.457 A  
HETATM   15  C   UNL     1     -11.227   6.526  68.542  1.00  0.00    -0.287 A  
HETATM   16  C   UNL     1      -9.968   5.211  66.967  1.00  0.00    -0.222 A  
HETATM   17  C   UNL     1      -9.537   4.363  67.991  1.00  0.00    -0.204 A  
HETATM   18  C   UNL     1      -8.680   3.295  67.688  1.00  0.00    -0.138 A  
HETATM   19  C   UNL     1      -8.187   2.461  68.688  1.00  0.00    -0.074 A  
HETATM   20  C   UNL     1      -8.550   2.692  70.009  1.00  0.00    -0.108 A  
HETATM   21  C   UNL     1      -9.429   3.738  70.327  1.00  0.00    -0.257 A  
HETATM   22  C   UNL     1      -9.960   4.592  69.329  1.00  0.00    -0.231 A  
ENDBRANCH  12  13
ENDBRANCH   6  12
ENDBRANCH   5   6
ENDBRANCH   4   5
ENDBRANCH   2   4
TORSDOF 6
ENDMDL
MODEL      133
REMARK 921   NORMALIZED FREE ENERGY PREDICTED BY IDOCK:   -4.23 KCAL/MOL
REMARK 922        TOTAL FREE ENERGY PREDICTED BY IDOCK:   -6.62 KCAL/MOL
REMARK 923 INTER-LIGAND FREE ENERGY PREDICTED BY IDOCK:   -5.71 KCAL/MOL
REMARK 924 INTRA-LIGAND FREE ENERGY PREDICTED BY IDOCK:   -0.90 KCAL/MOL
REMARK 927      BINDING AFFINITY PREDICTED BY RF-SCORE:    0.00 PKD
ROOT
HETATM    1  C   UNL     1     -10.306   7.207  73.758  1.00  0.00    -0.347 C  
HETATM    2  N   UNL     1     -10.713   7.245  72.354  1.00  0.00    -0.232 NA 
HETATM    3  H   UNL     1     -11.579   6.730  72.199  1.00  0.00     0.000 HD 
ENDROOT
BRANCH   2   4
HETATM    4  C   UNL     1     -10.813   8.628  71.875  1.00  0.00    -0.348 C  
BRANCH   4   5
HETATM    5  C   UNL     1      -9.622   9.065  71.005  1.00  0.00    -0.348 C  
BRANCH   5   6
HETATM    6  C   UNL     1      -9.824   9.023  69.481  1.00  0.00    -0.180 C  
BRANCH   6   7
HETATM    7  C   UNL     1      -9.788   7.609  68.932  1.00  0.00    -0.164 A  
HETATM    8  C   UNL     1     -10.377   5.498  67.777  1.00  0.00    -0.189 A  
HETATM    9  S   UNL     1     -11.119   7.018  68.012  1.00  0.00     0.049 SA 
HETATM   10  C   UNL     1      -8.814   6.635  69.067  1.00  0.00    -0.128 A  
HETATM   11  C   UNL     1      -9.152   5.421  68.398  1.00  0.00    -0.119 A  
ENDBRANCH   6   7
BRANCH   6  12
HETATM   12  O   UNL     1     -11.134   9.557  69.150  1.00  0.00    -0.171 OA 
BRANCH  12  13
HETATM   13  C   UNL     1     -11.181  10.842  68.646  1.00  0.00    -0.267 A  
HETATM   14  C   UNL     1     -10.729  12.460  66.892  1.00  0.00    -0.269 A  
HETATM   15  C   UNL     1     -10.723  11.150  67.359  1.00  0.00    -0.294 A  
HETATM   16  C   UNL     1     -11.214  13.481  67.701  1.00  0.00    -0.304 A  
HETATM   17  C   UNL     1     -11.745  13.203  68.964  1.00  0.00    -0.367 A  
HETATM   18  C   UNL     1     -12.261  14.251  69.742  1.00  0.00    -0.390 A  
HETATM   19  C   UNL     1     -12.844  14.006  70.982  1.00  0.00    -0.410 A  
HETATM   20  C   UNL     1     -12.917  12.703  71.457  1.00  0.00    -0.380 A  
HETATM   21  C   UNL     1     -12.379  11.647  70.706  1.00  0.00    -0.454 A  
HETATM   22  C   UNL     1     -11.764  11.867  69.449  1.00  0.00    -0.401 A  
ENDBRANCH  12  13
ENDBRANCH   6  12
ENDBRANCH   5   6
ENDBRANCH   4   5
ENDBRANCH   2   4
TORSDOF 6
ENDMDL
MODEL      134
REMARK 921   NORMALIZED FREE ENERGY PREDICTED BY IDOCK:   -4.22 KCAL/MOL
REMARK 922        TOTAL FREE ENERGY PREDICTED BY IDOCK:   -6.60 KCAL/MOL
REMARK 923 INTER-LIGAND FREE ENERGY PREDICTED BY IDOCK:   -5.77 KCAL/MOL
REMARK 924 INTRA-LIGAND FREE ENERGY PREDICTED BY IDOCK:   -0.83 KCAL/MOL
REMARK 927      BINDING AFFINITY PREDICTED BY RF-SCORE:    0.00 PKD
ROOT
HETATM    1  C   UNL     1     -10.584  20.051  65.681  1.00  0.00    -0.275 C  
HETATM    2  N   UNL     1     -10.299  18.707  66.180  1.00  0.00    -0.453 NA 
HETATM    3  H   UNL     1      -9.312  18.471  66.084  1.00  0.00     0.000 HD 
ENDROOT
BRANCH   2   4
HETATM    4  C   UNL     1     -10.760  18.553  67.565  1.00  0.00    -0.377 C  
BRANCH   4   5
HETATM    5  C   UNL     1     -10.091  17.385  68.310  1.00  0.00    -0.339 C  
BRANCH   5   6
HETATM    6  C   UNL     1      -9.312  16.372  67.453  1.00  0.00    -0.221 C  
BRANCH   6   7
HETATM    7  C   UNL     1      -7.880  16.197  67.924  1.00  0.00    -0.141 A  
HETATM    8  C   UNL     1      -5.405  16.184  68.034  1.00  0.00    -0.116 A  
HETATM    9  S   UNL     1      -6.581  16.634  66.880  1.00  0.00    -0.179 SA 
HETATM   10  C   UNL     1      -7.400  15.692  69.120  1.00  0.00    -0.187 A  
HETATM   11  C   UNL     1      -5.975  15.689  69.184  1.00  0.00    -0.110 A  
ENDBRANCH   6   7
BRANCH   6  12
HETATM   12  O   UNL     1      -9.939  15.065  67.556  1.00  0.00    -0.225 OA 
BRANCH  12  13
HETATM   13  C   UNL     1     -10.489  14.539  66.405  1.00  0.00    -0.295 A  
HETATM   14  C   UNL     1     -11.851  14.751  64.405  1.00  0.00    -0.393 A  
HETATM   15  C   UNL     1     -11.261  15.315  65.531  1.00  0.00    -0.277 A  
HETATM   16  C   UNL     1     -11.660  13.403  64.124  1.00  0.00    -0.440 A  
HETATM   17  C   UNL     1     -10.839  12.613  64.934  1.00  0.00    -0.329 A  
HETATM   18  C   UNL     1     -10.635  11.265  64.604  1.00  0.00    -0.392 A  
HETATM   19  C   UNL     1      -9.783  10.460  65.355  1.00  0.00    -0.325 A  
HETATM   20  C   UNL     1      -9.123  11.002  66.451  1.00  0.00    -0.191 A  
HETATM   21  C   UNL     1      -9.338  12.340  66.813  1.00  0.00    -0.218 A  
HETATM   22  C   UNL     1     -10.212  13.178  66.078  1.00  0.00    -0.287 A  
ENDBRANCH  12  13
ENDBRANCH   6  12
ENDBRANCH   5   6
ENDBRANCH   4   5
ENDBRANCH   2   4
TORSDOF 6
ENDMDL
MODEL      135
REMARK 921   NORMALIZED FREE ENERGY PREDICTED BY IDOCK:   -4.22 KCAL/MOL
REMARK 922        TOTAL FREE ENERGY PREDICTED BY IDOCK:   -6.60 KCAL/MOL
REMARK 923 INTER-LIGAND FREE ENERGY PREDICTED BY IDOCK:   -5.61 KCAL/MOL
REMARK 924 INTRA-LIGAND FREE ENERGY PREDICTED BY IDOCK:   -0.99 KCAL/MOL
REMARK 927      BINDING AFFINITY PREDICTED BY RF-SCORE:    0.00 PKD
ROOT
HETATM    1  C   UNL     1      -8.169   8.662  69.027  1.00  0.00    -0.122 C  
HETATM    2  N   UNL     1      -8.874   9.662  68.227  1.00  0.00    -0.120 NA 
HETATM    3  H   UNL     1      -9.169  10.458  68.793  1.00  0.00     0.000 HD 
ENDROOT
BRANCH   2   4
HETATM    4  C   UNL     1      -8.061  10.085  67.081  1.00  0.00    -0.117 C  
BRANCH   4   5
HETATM    5  C   UNL     1      -8.881  10.718  65.944  1.00  0.00    -0.191 C  
BRANCH   5   6
HETATM    6  C   UNL     1      -9.279  12.194  66.115  1.00  0.00    -0.155 C  
BRANCH   6   7
HETATM    7  C   UNL     1     -10.432  12.591  65.211  1.00  0.00    -0.287 A  
HETATM    8  C   UNL     1     -12.215  12.562  63.491  1.00  0.00    -0.558 A  
HETATM    9  S   UNL     1     -11.036  11.464  64.057  1.00  0.00    -0.297 SA 
HETATM   10  C   UNL     1     -11.116  13.791  65.130  1.00  0.00    -0.330 A  
HETATM   11  C   UNL     1     -12.146  13.773  64.143  1.00  0.00    -0.478 A  
ENDBRANCH   6   7
BRANCH   6  12
HETATM   12  O   UNL     1      -9.731  12.421  67.477  1.00  0.00    -0.186 OA 
BRANCH  12  13
HETATM   13  C   UNL     1      -9.479  13.663  68.026  1.00  0.00    -0.209 A  
HETATM   14  C   UNL     1      -8.073  15.623  68.301  1.00  0.00    -0.134 A  
HETATM   15  C   UNL     1      -8.335  14.399  67.696  1.00  0.00    -0.186 A  
HETATM   16  C   UNL     1      -8.966  16.141  69.232  1.00  0.00    -0.200 A  
HETATM   17  C   UNL     1     -10.154  15.468  69.535  1.00  0.00    -0.278 A  
HETATM   18  C   UNL     1     -11.053  16.034  70.451  1.00  0.00    -0.376 A  
HETATM   19  C   UNL     1     -12.269  15.421  70.739  1.00  0.00    -0.430 A  
HETATM   20  C   UNL     1     -12.598  14.228  70.107  1.00  0.00    -0.338 A  
HETATM   21  C   UNL     1     -11.698  13.633  69.210  1.00  0.00    -0.376 A  
HETATM   22  C   UNL     1     -10.446  14.225  68.910  1.00  0.00    -0.241 A  
ENDBRANCH  12  13
ENDBRANCH   6  12
ENDBRANCH   5   6
ENDBRANCH   4   5
ENDBRANCH   2   4
TORSDOF 6
ENDMDL
MODEL      136
REMARK 921   NORMALIZED FREE ENERGY PREDICTED BY IDOCK:   -4.22 KCAL/MOL
REMARK 922        TOTAL FREE ENERGY PREDICTED BY IDOCK:   -6.59 KCAL/MOL
REMARK 923 INTER-LIGAND FREE ENERGY PREDICTED BY IDOCK:   -5.92 KCAL/MOL
REMARK 924 INTRA-LIGAND FREE ENERGY PREDICTED BY IDOCK:   -0.67 KCAL/MOL
REMARK 927      BINDING AFFINITY PREDICTED BY RF-SCORE:    0.00 PKD
ROOT
HETATM    1  C   UNL     1     -10.519   6.927  73.735  1.00  0.00    -0.357 C  
HETATM    2  N   UNL     1      -9.638   7.729  72.888  1.00  0.00    -0.215 NA 
HETATM    3  H   UNL     1      -8.974   7.147  72.378  1.00  0.00     0.000 HD 
ENDROOT
BRANCH   2   4
HETATM    4  C   UNL     1     -10.416   8.583  71.983  1.00  0.00    -0.336 C  
BRANCH   4   5
HETATM    5  C   UNL     1      -9.562   9.278  70.909  1.00  0.00    -0.339 C  
BRANCH   5   6
HETATM    6  C   UNL     1      -9.546   8.634  69.512  1.00  0.00    -0.170 C  
BRANCH   6   7
HETATM    7  C   UNL     1      -9.537   7.118  69.574  1.00  0.00    -0.154 A  
HETATM    8  C   UNL     1     -10.234   4.741  69.576  1.00  0.00    -0.110 A  
HETATM    9  S   UNL     1     -11.017   6.250  69.419  1.00  0.00    -0.403 SA 
HETATM   10  C   UNL     1      -8.477   6.250  69.769  1.00  0.00    -0.126 A  
HETATM   11  C   UNL     1      -8.878   4.880  69.765  1.00  0.00    -0.129 A  
ENDBRANCH   6   7
BRANCH   6  12
HETATM   12  O   UNL     1     -10.752   9.007  68.791  1.00  0.00    -0.195 OA 
BRANCH  12  13
HETATM   13  C   UNL     1     -10.589   9.712  67.615  1.00  0.00    -0.275 A  
HETATM   14  C   UNL     1      -9.897   9.848  65.292  1.00  0.00    -0.373 A  
HETATM   15  C   UNL     1     -10.104   9.106  66.449  1.00  0.00    -0.345 A  
HETATM   16  C   UNL     1     -10.193  11.206  65.276  1.00  0.00    -0.337 A  
HETATM   17  C   UNL     1     -10.745  11.831  66.398  1.00  0.00    -0.306 A  
HETATM   18  C   UNL     1     -11.068  13.195  66.340  1.00  0.00    -0.311 A  
HETATM   19  C   UNL     1     -11.667  13.840  67.418  1.00  0.00    -0.417 A  
HETATM   20  C   UNL     1     -11.950  13.119  68.572  1.00  0.00    -0.324 A  
HETATM   21  C   UNL     1     -11.607  11.762  68.659  1.00  0.00    -0.367 A  
HETATM   22  C   UNL     1     -10.982  11.083  67.584  1.00  0.00    -0.332 A  
ENDBRANCH  12  13
ENDBRANCH   6  12
ENDBRANCH   5   6
ENDBRANCH   4   5
ENDBRANCH   2   4
TORSDOF 6
ENDMDL
MODEL      137
REMARK 921   NORMALIZED FREE ENERGY PREDICTED BY IDOCK:   -4.21 KCAL/MOL
REMARK 922        TOTAL FREE ENERGY PREDICTED BY IDOCK:   -6.58 KCAL/MOL
REMARK 923 INTER-LIGAND FREE ENERGY PREDICTED BY IDOCK:   -6.03 KCAL/MOL
REMARK 924 INTRA-LIGAND FREE ENERGY PREDICTED BY IDOCK:   -0.55 KCAL/MOL
REMARK 927      BINDING AFFINITY PREDICTED BY RF-SCORE:    0.00 PKD
ROOT
HETATM    1  C   UNL     1      -9.790   5.274  66.492  1.00  0.00    -0.185 C  
HETATM    2  N   UNL     1     -11.022   6.059  66.425  1.00  0.00    -0.714 NA 
HETATM    3  H   UNL     1     -11.803   5.571  66.862  1.00  0.00     0.000 HD 
ENDROOT
BRANCH   2   4
HETATM    4  C   UNL     1     -10.826   7.393  67.003  1.00  0.00    -0.237 C  
BRANCH   4   5
HETATM    5  C   UNL     1      -9.468   7.566  67.705  1.00  0.00    -0.157 C  
BRANCH   5   6
HETATM    6  C   UNL     1      -8.703   8.870  67.423  1.00  0.00    -0.125 C  
BRANCH   6   7
HETATM    7  C   UNL     1      -9.152   9.537  66.135  1.00  0.00    -0.166 A  
HETATM    8  C   UNL     1      -9.365  10.201  63.758  1.00  0.00    -0.288 A  
HETATM    9  S   UNL     1      -8.380   9.129  64.651  1.00  0.00    -0.181 SA 
HETATM   10  C   UNL     1     -10.127  10.499  65.934  1.00  0.00    -0.323 A  
HETATM   11  C   UNL     1     -10.252  10.877  64.564  1.00  0.00    -0.422 A  
ENDBRANCH   6   7
BRANCH   6  12
HETATM   12  O   UNL     1      -8.959   9.825  68.488  1.00  0.00    -0.122 OA 
BRANCH  12  13
HETATM   13  C   UNL     1      -9.214   9.312  69.745  1.00  0.00    -0.181 A  
HETATM   14  C   UNL     1      -8.527   8.078  71.720  1.00  0.00    -0.164 A  
HETATM   15  C   UNL     1      -8.233   8.634  70.480  1.00  0.00    -0.127 A  
HETATM   16  C   UNL     1      -9.804   8.210  72.254  1.00  0.00    -0.329 A  
HETATM   17  C   UNL     1     -10.789   8.940  71.582  1.00  0.00    -0.420 A  
HETATM   18  C   UNL     1     -12.057   9.087  72.164  1.00  0.00    -0.412 A  
HETATM   19  C   UNL     1     -13.046   9.849  71.549  1.00  0.00    -0.516 A  
HETATM   20  C   UNL     1     -12.773  10.475  70.340  1.00  0.00    -0.325 A  
HETATM   21  C   UNL     1     -11.520  10.315  69.729  1.00  0.00    -0.320 A  
HETATM   22  C   UNL     1     -10.499   9.532  70.322  1.00  0.00    -0.319 A  
ENDBRANCH  12  13
ENDBRANCH   6  12
ENDBRANCH   5   6
ENDBRANCH   4   5
ENDBRANCH   2   4
TORSDOF 6
ENDMDL
MODEL      138
REMARK 921   NORMALIZED FREE ENERGY PREDICTED BY IDOCK:   -4.20 KCAL/MOL
REMARK 922        TOTAL FREE ENERGY PREDICTED BY IDOCK:   -6.57 KCAL/MOL
REMARK 923 INTER-LIGAND FREE ENERGY PREDICTED BY IDOCK:   -5.86 KCAL/MOL
REMARK 924 INTRA-LIGAND FREE ENERGY PREDICTED BY IDOCK:   -0.71 KCAL/MOL
REMARK 927      BINDING AFFINITY PREDICTED BY RF-SCORE:    0.00 PKD
ROOT
HETATM    1  C   UNL     1      -9.710   5.207  66.576  1.00  0.00    -0.171 C  
HETATM    2  N   UNL     1     -10.925   5.947  66.239  1.00  0.00    -0.710 NA 
HETATM    3  H   UNL     1     -11.725   5.325  66.124  1.00  0.00     0.000 HD 
ENDROOT
BRANCH   2   4
HETATM    4  C   UNL     1     -11.192   6.995  67.230  1.00  0.00    -0.085 C  
BRANCH   4   5
HETATM    5  C   UNL     1      -9.921   7.564  67.881  1.00  0.00    -0.203 C  
BRANCH   5   6
HETATM    6  C   UNL     1      -9.764   9.095  67.875  1.00  0.00    -0.154 C  
BRANCH   6   7
HETATM    7  C   UNL     1      -8.667   9.561  66.935  1.00  0.00    -0.128 A  
HETATM    8  C   UNL     1      -7.245   9.902  64.936  1.00  0.00    -0.136 A  
HETATM    9  S   UNL     1      -8.654   9.010  65.303  1.00  0.00    -0.182 SA 
HETATM   10  C   UNL     1      -7.588  10.391  67.182  1.00  0.00    -0.096 A  
HETATM   11  C   UNL     1      -6.772  10.592  66.029  1.00  0.00    -0.130 A  
ENDBRANCH   6   7
BRANCH   6  12
HETATM   12  O   UNL     1     -10.995   9.707  67.404  1.00  0.00    -0.247 OA 
BRANCH  12  13
HETATM   13  C   UNL     1     -11.204  11.032  67.732  1.00  0.00    -0.308 A  
HETATM   14  C   UNL     1     -11.103  13.399  67.201  1.00  0.00    -0.303 A  
HETATM   15  C   UNL     1     -10.936  12.069  66.831  1.00  0.00    -0.328 A  
HETATM   16  C   UNL     1     -11.563  13.711  68.475  1.00  0.00    -0.371 A  
HETATM   17  C   UNL     1     -11.908  12.701  69.379  1.00  0.00    -0.356 A  
HETATM   18  C   UNL     1     -12.405  13.048  70.644  1.00  0.00    -0.391 A  
HETATM   19  C   UNL     1     -12.808  12.072  71.551  1.00  0.00    -0.403 A  
HETATM   20  C   UNL     1     -12.719  10.732  71.195  1.00  0.00    -0.532 A  
HETATM   21  C   UNL     1     -12.197  10.366  69.945  1.00  0.00    -0.215 A  
HETATM   22  C   UNL     1     -11.763  11.336  69.009  1.00  0.00    -0.410 A  
ENDBRANCH  12  13
ENDBRANCH   6  12
ENDBRANCH   5   6
ENDBRANCH   4   5
ENDBRANCH   2   4
TORSDOF 6
ENDMDL
MODEL      139
REMARK 921   NORMALIZED FREE ENERGY PREDICTED BY IDOCK:   -4.20 KCAL/MOL
REMARK 922        TOTAL FREE ENERGY PREDICTED BY IDOCK:   -6.57 KCAL/MOL
REMARK 923 INTER-LIGAND FREE ENERGY PREDICTED BY IDOCK:   -5.85 KCAL/MOL
REMARK 924 INTRA-LIGAND FREE ENERGY PREDICTED BY IDOCK:   -0.71 KCAL/MOL
REMARK 927      BINDING AFFINITY PREDICTED BY RF-SCORE:    0.00 PKD
ROOT
HETATM    1  C   UNL     1      -7.868   6.487  66.005  1.00  0.00    -0.103 C  
HETATM    2  N   UNL     1      -9.203   6.876  65.556  1.00  0.00    -0.358 NA 
HETATM    3  H   UNL     1      -9.619   6.167  64.952  1.00  0.00     0.000 HD 
ENDROOT
BRANCH   2   4
HETATM    4  C   UNL     1     -10.070   7.189  66.698  1.00  0.00    -0.159 C  
BRANCH   4   5
HETATM    5  C   UNL     1      -9.629   8.438  67.480  1.00  0.00    -0.194 C  
BRANCH   5   6
HETATM    6  C   UNL     1     -10.673   9.556  67.647  1.00  0.00    -0.250 C  
BRANCH   6   7
HETATM    7  C   UNL     1     -11.155   9.687  69.081  1.00  0.00    -0.092 A  
HETATM    8  C   UNL     1     -12.165  10.545  71.174  1.00  0.00    -0.391 A  
HETATM    9  S   UNL     1     -11.954  11.128  69.582  1.00  0.00    -0.365 SA 
HETATM   10  C   UNL     1     -11.038   8.798  70.135  1.00  0.00    -0.214 A  
HETATM   11  C   UNL     1     -11.624   9.291  71.339  1.00  0.00    -0.437 A  
ENDBRANCH   6   7
BRANCH   6  12
HETATM   12  O   UNL     1     -10.078  10.834  67.297  1.00  0.00    -0.184 OA 
BRANCH  12  13
HETATM   13  C   UNL     1     -10.458  11.398  66.096  1.00  0.00    -0.255 A  
HETATM   14  C   UNL     1     -11.949  12.782  64.770  1.00  0.00    -0.455 A  
HETATM   15  C   UNL     1     -11.550  12.269  65.999  1.00  0.00    -0.451 A  
HETATM   16  C   UNL     1     -11.246  12.447  63.618  1.00  0.00    -0.544 A  
HETATM   17  C   UNL     1     -10.109  11.637  63.684  1.00  0.00    -0.435 A  
HETATM   18  C   UNL     1      -9.399  11.347  62.509  1.00  0.00    -0.137 A  
HETATM   19  C   UNL     1      -8.234  10.586  62.542  1.00  0.00    -0.212 A  
HETATM   20  C   UNL     1      -7.765  10.109  63.759  1.00  0.00    -0.141 A  
HETATM   21  C   UNL     1      -8.478  10.364  64.940  1.00  0.00    -0.179 A  
HETATM   22  C   UNL     1      -9.676  11.120  64.936  1.00  0.00    -0.297 A  
ENDBRANCH  12  13
ENDBRANCH   6  12
ENDBRANCH   5   6
ENDBRANCH   4   5
ENDBRANCH   2   4
TORSDOF 6
ENDMDL
MODEL      140
REMARK 921   NORMALIZED FREE ENERGY PREDICTED BY IDOCK:   -4.19 KCAL/MOL
REMARK 922        TOTAL FREE ENERGY PREDICTED BY IDOCK:   -6.56 KCAL/MOL
REMARK 923 INTER-LIGAND FREE ENERGY PREDICTED BY IDOCK:   -5.72 KCAL/MOL
REMARK 924 INTRA-LIGAND FREE ENERGY PREDICTED BY IDOCK:   -0.85 KCAL/MOL
REMARK 927      BINDING AFFINITY PREDICTED BY RF-SCORE:    0.00 PKD
ROOT
HETATM    1  C   UNL     1      -8.247   6.706  71.331  1.00  0.00    -0.116 C  
HETATM    2  N   UNL     1      -8.900   8.014  71.282  1.00  0.00    -0.133 NA 
HETATM    3  H   UNL     1      -8.414   8.654  70.655  1.00  0.00     0.000 HD 
ENDROOT
BRANCH   2   4
HETATM    4  C   UNL     1     -10.317   7.879  70.926  1.00  0.00    -0.200 C  
BRANCH   4   5
HETATM    5  C   UNL     1     -10.577   7.921  69.410  1.00  0.00    -0.209 C  
BRANCH   5   6
HETATM    6  C   UNL     1     -10.161   9.205  68.671  1.00  0.00    -0.194 C  
BRANCH   6   7
HETATM    7  C   UNL     1      -9.256   8.922  67.486  1.00  0.00    -0.136 A  
HETATM    8  C   UNL     1      -7.268   8.536  66.059  1.00  0.00    -0.077 A  
HETATM    9  S   UNL     1      -7.548   8.889  67.707  1.00  0.00    -0.094 SA 
HETATM   10  C   UNL     1      -9.584   8.691  66.161  1.00  0.00    -0.305 A  
HETATM   11  C   UNL     1      -8.439   8.464  65.341  1.00  0.00    -0.193 A  
ENDBRANCH   6   7
BRANCH   6  12
HETATM   12  O   UNL     1     -11.341   9.862  68.137  1.00  0.00    -0.151 OA 
BRANCH  12  13
HETATM   13  C   UNL     1     -11.432  11.229  68.310  1.00  0.00    -0.308 A  
HETATM   14  C   UNL     1     -11.088  13.502  67.528  1.00  0.00    -0.293 A  
HETATM   15  C   UNL     1     -11.039  12.130  67.312  1.00  0.00    -0.341 A  
HETATM   16  C   UNL     1     -11.554  13.997  68.741  1.00  0.00    -0.366 A  
HETATM   17  C   UNL     1     -12.021  13.132  69.734  1.00  0.00    -0.382 A  
HETATM   18  C   UNL     1     -12.520  13.663  70.933  1.00  0.00    -0.448 A  
HETATM   19  C   UNL     1     -13.042  12.836  71.924  1.00  0.00    -0.474 A  
HETATM   20  C   UNL     1     -13.071  11.462  71.721  1.00  0.00    -0.523 A  
HETATM   21  C   UNL     1     -12.550  10.912  70.541  1.00  0.00    -0.409 A  
HETATM   22  C   UNL     1     -11.997  11.726  69.522  1.00  0.00    -0.364 A  
ENDBRANCH  12  13
ENDBRANCH   6  12
ENDBRANCH   5   6
ENDBRANCH   4   5
ENDBRANCH   2   4
TORSDOF 6
ENDMDL
MODEL      141
REMARK 921   NORMALIZED FREE ENERGY PREDICTED BY IDOCK:   -4.19 KCAL/MOL
REMARK 922        TOTAL FREE ENERGY PREDICTED BY IDOCK:   -6.56 KCAL/MOL
REMARK 923 INTER-LIGAND FREE ENERGY PREDICTED BY IDOCK:   -5.46 KCAL/MOL
REMARK 924 INTRA-LIGAND FREE ENERGY PREDICTED BY IDOCK:   -1.10 KCAL/MOL
REMARK 927      BINDING AFFINITY PREDICTED BY RF-SCORE:    0.00 PKD
ROOT
HETATM    1  C   UNL     1     -11.388  15.387  70.377  1.00  0.00    -0.327 C  
HETATM    2  N   UNL     1     -12.352  14.856  69.415  1.00  0.00    -0.558 NA 
HETATM    3  H   UNL     1     -13.236  15.363  69.447  1.00  0.00     0.000 HD 
ENDROOT
BRANCH   2   4
HETATM    4  C   UNL     1     -11.786  14.839  68.061  1.00  0.00    -0.333 C  
BRANCH   4   5
HETATM    5  C   UNL     1     -12.330  13.702  67.180  1.00  0.00    -0.234 C  
BRANCH   5   6
HETATM    6  C   UNL     1     -11.564  12.368  67.220  1.00  0.00    -0.365 C  
BRANCH   6   7
HETATM    7  C   UNL     1     -11.010  11.979  65.861  1.00  0.00    -0.298 A  
HETATM    8  C   UNL     1     -10.264  12.037  63.500  1.00  0.00    -0.450 A  
HETATM    9  S   UNL     1     -10.958  13.147  64.596  1.00  0.00    -0.378 SA 
HETATM   10  C   UNL     1     -10.524  10.759  65.423  1.00  0.00    -0.272 A  
HETATM   11  C   UNL     1     -10.091  10.794  64.064  1.00  0.00    -0.410 A  
ENDBRANCH   6   7
BRANCH   6  12
HETATM   12  O   UNL     1     -10.421  12.490  68.108  1.00  0.00    -0.215 OA 
BRANCH  12  13
HETATM   13  C   UNL     1     -10.159  11.425  68.946  1.00  0.00    -0.150 A  
HETATM   14  C   UNL     1     -10.899   9.639  70.416  1.00  0.00    -0.353 A  
HETATM   15  C   UNL     1     -11.185  10.674  69.532  1.00  0.00    -0.331 A  
HETATM   16  C   UNL     1      -9.578   9.326  70.712  1.00  0.00    -0.341 A  
HETATM   17  C   UNL     1      -8.525  10.007  70.093  1.00  0.00    -0.054 A  
HETATM   18  C   UNL     1      -7.202   9.643  70.384  1.00  0.00    -0.147 A  
HETATM   19  C   UNL     1      -6.129  10.262  69.749  1.00  0.00    -0.054 A  
HETATM   20  C   UNL     1      -6.373  11.256  68.810  1.00  0.00    -0.051 A  
HETATM   21  C   UNL     1      -7.689  11.654  68.529  1.00  0.00    -0.134 A  
HETATM   22  C   UNL     1      -8.800  11.054  69.171  1.00  0.00    -0.003 A  
ENDBRANCH  12  13
ENDBRANCH   6  12
ENDBRANCH   5   6
ENDBRANCH   4   5
ENDBRANCH   2   4
TORSDOF 6
ENDMDL
MODEL      142
REMARK 921   NORMALIZED FREE ENERGY PREDICTED BY IDOCK:   -4.19 KCAL/MOL
REMARK 922        TOTAL FREE ENERGY PREDICTED BY IDOCK:   -6.56 KCAL/MOL
REMARK 923 INTER-LIGAND FREE ENERGY PREDICTED BY IDOCK:   -5.43 KCAL/MOL
REMARK 924 INTRA-LIGAND FREE ENERGY PREDICTED BY IDOCK:   -1.13 KCAL/MOL
REMARK 927      BINDING AFFINITY PREDICTED BY RF-SCORE:    0.00 PKD
ROOT
HETATM    1  C   UNL     1     -11.899  11.760  68.640  1.00  0.00    -0.310 C  
HETATM    2  N   UNL     1     -12.584  10.672  69.336  1.00  0.00    -0.678 NA 
HETATM    3  H   UNL     1     -12.225   9.760  69.054  1.00  0.00     0.000 HD 
ENDROOT
BRANCH   2   4
HETATM    4  C   UNL     1     -12.516  10.855  70.790  1.00  0.00    -0.394 C  
BRANCH   4   5
HETATM    5  C   UNL     1     -12.274   9.548  71.564  1.00  0.00    -0.468 C  
BRANCH   5   6
HETATM    6  C   UNL     1     -10.850   8.969  71.517  1.00  0.00    -0.346 C  
BRANCH   6   7
HETATM    7  C   UNL     1     -10.725   7.676  72.303  1.00  0.00    -0.260 A  
HETATM    8  C   UNL     1     -10.768   5.288  72.962  1.00  0.00    -0.257 A  
HETATM    9  S   UNL     1     -11.160   6.183  71.561  1.00  0.00    -0.284 SA 
HETATM   10  C   UNL     1     -10.316   7.474  73.609  1.00  0.00    -0.311 A  
HETATM   11  C   UNL     1     -10.336   6.098  73.987  1.00  0.00    -0.311 A  
ENDBRANCH   6   7
BRANCH   6  12
HETATM   12  O   UNL     1     -10.500   8.648  70.144  1.00  0.00    -0.206 OA 
BRANCH  12  13
HETATM   13  C   UNL     1      -9.313   9.161  69.660  1.00  0.00    -0.172 A  
HETATM   14  C   UNL     1      -7.123  10.150  70.007  1.00  0.00    -0.156 A  
HETATM   15  C   UNL     1      -8.288   9.586  70.514  1.00  0.00    -0.203 A  
HETATM   16  C   UNL     1      -6.957  10.280  68.632  1.00  0.00    -0.066 A  
HETATM   17  C   UNL     1      -7.928   9.804  67.746  1.00  0.00    -0.101 A  
HETATM   18  C   UNL     1      -7.715   9.915  66.364  1.00  0.00    -0.104 A  
HETATM   19  C   UNL     1      -8.635   9.407  65.451  1.00  0.00    -0.176 A  
HETATM   20  C   UNL     1      -9.782   8.776  65.917  1.00  0.00    -0.211 A  
HETATM   21  C   UNL     1     -10.025   8.683  67.296  1.00  0.00    -0.282 A  
HETATM   22  C   UNL     1      -9.116   9.206  68.248  1.00  0.00    -0.132 A  
ENDBRANCH  12  13
ENDBRANCH   6  12
ENDBRANCH   5   6
ENDBRANCH   4   5
ENDBRANCH   2   4
TORSDOF 6
ENDMDL
MODEL      143
REMARK 921   NORMALIZED FREE ENERGY PREDICTED BY IDOCK:   -4.19 KCAL/MOL
REMARK 922        TOTAL FREE ENERGY PREDICTED BY IDOCK:   -6.56 KCAL/MOL
REMARK 923 INTER-LIGAND FREE ENERGY PREDICTED BY IDOCK:   -6.63 KCAL/MOL
REMARK 924 INTRA-LIGAND FREE ENERGY PREDICTED BY IDOCK:    0.07 KCAL/MOL
REMARK 927      BINDING AFFINITY PREDICTED BY RF-SCORE:    0.00 PKD
ROOT
HETATM    1  C   UNL     1     -14.051   8.697  72.106  1.00  0.00    -0.441 C  
HETATM    2  N   UNL     1     -13.602   9.563  71.016  1.00  0.00    -0.555 NA 
HETATM    3  H   UNL     1     -14.375   9.837  70.410  1.00  0.00     0.000 HD 
ENDROOT
BRANCH   2   4
HETATM    4  C   UNL     1     -12.882  10.730  71.537  1.00  0.00    -0.462 C  
BRANCH   4   5
HETATM    5  C   UNL     1     -12.302  11.636  70.438  1.00  0.00    -0.373 C  
BRANCH   5   6
HETATM    6  C   UNL     1     -11.586  10.936  69.269  1.00  0.00    -0.318 C  
BRANCH   6   7
HETATM    7  C   UNL     1     -11.308  11.880  68.113  1.00  0.00    -0.288 A  
HETATM    8  C   UNL     1     -10.650  12.801  65.910  1.00  0.00    -0.274 A  
HETATM    9  S   UNL     1     -10.676  11.256  66.637  1.00  0.00    -0.266 SA 
HETATM   10  C   UNL     1     -11.463  13.253  68.039  1.00  0.00    -0.344 A  
HETATM   11  C   UNL     1     -11.089  13.782  66.768  1.00  0.00    -0.316 A  
ENDBRANCH   6   7
BRANCH   6  12
HETATM   12  O   UNL     1     -10.294  10.444  69.715  1.00  0.00    -0.240 OA 
BRANCH  12  13
HETATM   13  C   UNL     1     -10.261   9.184  70.280  1.00  0.00    -0.214 A  
HETATM   14  C   UNL     1     -10.081   7.718  72.207  1.00  0.00    -0.277 A  
HETATM   15  C   UNL     1     -10.168   8.995  71.664  1.00  0.00    -0.418 A  
HETATM   16  C   UNL     1     -10.108   6.607  71.372  1.00  0.00    -0.209 A  
HETATM   17  C   UNL     1     -10.270   6.753  69.991  1.00  0.00    -0.211 A  
HETATM   18  C   UNL     1     -10.330   5.611  69.179  1.00  0.00    -0.328 A  
HETATM   19  C   UNL     1     -10.543   5.714  67.807  1.00  0.00    -0.274 A  
HETATM   20  C   UNL     1     -10.700   6.970  67.233  1.00  0.00    -0.412 A  
HETATM   21  C   UNL     1     -10.613   8.124  68.026  1.00  0.00    -0.188 A  
HETATM   22  C   UNL     1     -10.380   8.051  69.422  1.00  0.00    -0.217 A  
ENDBRANCH  12  13
ENDBRANCH   6  12
ENDBRANCH   5   6
ENDBRANCH   4   5
ENDBRANCH   2   4
TORSDOF 6
ENDMDL
MODEL      144
REMARK 921   NORMALIZED FREE ENERGY PREDICTED BY IDOCK:   -4.16 KCAL/MOL
REMARK 922        TOTAL FREE ENERGY PREDICTED BY IDOCK:   -6.52 KCAL/MOL
REMARK 923 INTER-LIGAND FREE ENERGY PREDICTED BY IDOCK:   -5.70 KCAL/MOL
REMARK 924 INTRA-LIGAND FREE ENERGY PREDICTED BY IDOCK:   -0.82 KCAL/MOL
REMARK 927      BINDING AFFINITY PREDICTED BY RF-SCORE:    0.00 PKD
ROOT
HETATM    1  C   UNL     1      -6.917   7.875  72.086  1.00  0.00    -0.070 C  
HETATM    2  N   UNL     1      -7.779   9.016  71.781  1.00  0.00    -0.343 NA 
HETATM    3  H   UNL     1      -7.519   9.840  72.321  1.00  0.00     0.000 HD 
ENDROOT
BRANCH   2   4
HETATM    4  C   UNL     1      -7.789   9.294  70.340  1.00  0.00    -0.148 C  
BRANCH   4   5
HETATM    5  C   UNL     1      -9.163   9.732  69.807  1.00  0.00    -0.248 C  
BRANCH   5   6
HETATM    6  C   UNL     1      -9.172  10.576  68.521  1.00  0.00    -0.168 C  
BRANCH   6   7
HETATM    7  C   UNL     1      -8.199  10.053  67.480  1.00  0.00    -0.114 A  
HETATM    8  C   UNL     1      -7.066   8.636  65.793  1.00  0.00    -0.079 A  
HETATM    9  S   UNL     1      -8.456   8.502  66.777  1.00  0.00    -0.111 SA 
HETATM   10  C   UNL     1      -7.048  10.636  66.977  1.00  0.00    -0.100 A  
HETATM   11  C   UNL     1      -6.399   9.821  66.002  1.00  0.00    -0.076 A  
ENDBRANCH   6   7
BRANCH   6  12
HETATM   12  O   UNL     1     -10.490  10.522  67.913  1.00  0.00    -0.184 OA 
BRANCH  12  13
HETATM   13  C   UNL     1     -11.045  11.719  67.506  1.00  0.00    -0.272 A  
HETATM   14  C   UNL     1     -12.033  13.883  67.994  1.00  0.00    -0.390 A  
HETATM   15  C   UNL     1     -11.426  12.707  68.422  1.00  0.00    -0.350 A  
HETATM   16  C   UNL     1     -12.250  14.097  66.638  1.00  0.00    -0.450 A  
HETATM   17  C   UNL     1     -11.820  13.164  65.688  1.00  0.00    -0.430 A  
HETATM   18  C   UNL     1     -12.019  13.426  64.325  1.00  0.00    -0.481 A  
HETATM   19  C   UNL     1     -11.559  12.547  63.349  1.00  0.00    -0.547 A  
HETATM   20  C   UNL     1     -10.889  11.392  63.732  1.00  0.00    -0.468 A  
HETATM   21  C   UNL     1     -10.707  11.100  65.092  1.00  0.00    -0.279 A  
HETATM   22  C   UNL     1     -11.179  11.967  66.108  1.00  0.00    -0.387 A  
ENDBRANCH  12  13
ENDBRANCH   6  12
ENDBRANCH   5   6
ENDBRANCH   4   5
ENDBRANCH   2   4
TORSDOF 6
ENDMDL
MODEL      145
REMARK 921   NORMALIZED FREE ENERGY PREDICTED BY IDOCK:   -4.16 KCAL/MOL
REMARK 922        TOTAL FREE ENERGY PREDICTED BY IDOCK:   -6.51 KCAL/MOL
REMARK 923 INTER-LIGAND FREE ENERGY PREDICTED BY IDOCK:   -5.73 KCAL/MOL
REMARK 924 INTRA-LIGAND FREE ENERGY PREDICTED BY IDOCK:   -0.78 KCAL/MOL
REMARK 927      BINDING AFFINITY PREDICTED BY RF-SCORE:    0.00 PKD
ROOT
HETATM    1  C   UNL     1      -9.103   4.397  64.921  1.00  0.00    -0.151 C  
HETATM    2  N   UNL     1     -10.563   4.335  64.975  1.00  0.00    -0.588 NA 
HETATM    3  H   UNL     1     -10.897   3.374  65.049  1.00  0.00     0.000 HD 
ENDROOT
BRANCH   2   4
HETATM    4  C   UNL     1     -11.083   5.174  66.061  1.00  0.00     0.198 C  
BRANCH   4   5
HETATM    5  C   UNL     1     -10.055   6.177  66.610  1.00  0.00    -0.218 C  
BRANCH   5   6
HETATM    6  C   UNL     1     -10.579   7.239  67.592  1.00  0.00    -0.246 C  
BRANCH   6   7
HETATM    7  C   UNL     1     -10.646   6.724  69.019  1.00  0.00    -0.230 A  
HETATM    8  C   UNL     1     -10.153   5.539  71.137  1.00  0.00    -0.207 A  
HETATM    9  S   UNL     1      -9.441   5.633  69.588  1.00  0.00    -0.146 SA 
HETATM   10  C   UNL     1     -11.583   6.978  70.005  1.00  0.00    -0.226 A  
HETATM   11  C   UNL     1     -11.296   6.299  71.226  1.00  0.00    -0.356 A  
ENDBRANCH   6   7
BRANCH   6  12
HETATM   12  O   UNL     1      -9.672   8.374  67.610  1.00  0.00    -0.148 OA 
BRANCH  12  13
HETATM   13  C   UNL     1     -10.063   9.502  66.915  1.00  0.00    -0.230 A  
HETATM   14  C   UNL     1     -10.239  10.782  64.859  1.00  0.00    -0.388 A  
HETATM   15  C   UNL     1      -9.889   9.615  65.530  1.00  0.00    -0.352 A  
HETATM   16  C   UNL     1     -10.790  11.847  65.562  1.00  0.00    -0.343 A  
HETATM   17  C   UNL     1     -11.043  11.745  66.933  1.00  0.00    -0.361 A  
HETATM   18  C   UNL     1     -11.634  12.824  67.608  1.00  0.00    -0.412 A  
HETATM   19  C   UNL     1     -11.949  12.741  68.961  1.00  0.00    -0.288 A  
HETATM   20  C   UNL     1     -11.675  11.569  69.654  1.00  0.00    -0.419 A  
HETATM   21  C   UNL     1     -11.057  10.491  69.003  1.00  0.00    -0.300 A  
HETATM   22  C   UNL     1     -10.710  10.552  67.631  1.00  0.00    -0.324 A  
ENDBRANCH  12  13
ENDBRANCH   6  12
ENDBRANCH   5   6
ENDBRANCH   4   5
ENDBRANCH   2   4
TORSDOF 6
ENDMDL
MODEL      146
REMARK 921   NORMALIZED FREE ENERGY PREDICTED BY IDOCK:   -4.15 KCAL/MOL
REMARK 922        TOTAL FREE ENERGY PREDICTED BY IDOCK:   -6.51 KCAL/MOL
REMARK 923 INTER-LIGAND FREE ENERGY PREDICTED BY IDOCK:   -5.68 KCAL/MOL
REMARK 924 INTRA-LIGAND FREE ENERGY PREDICTED BY IDOCK:   -0.83 KCAL/MOL
REMARK 927      BINDING AFFINITY PREDICTED BY RF-SCORE:    0.00 PKD
ROOT
HETATM    1  C   UNL     1     -12.797  10.469  71.259  1.00  0.00    -0.431 C  
HETATM    2  N   UNL     1     -11.746   9.721  70.571  1.00  0.00    -0.308 NA 
HETATM    3  H   UNL     1     -12.103   8.856  70.167  1.00  0.00     0.000 HD 
ENDROOT
BRANCH   2   4
HETATM    4  C   UNL     1     -11.081  10.556  69.564  1.00  0.00    -0.268 C  
BRANCH   4   5
HETATM    5  C   UNL     1     -11.111   9.954  68.149  1.00  0.00    -0.215 C  
BRANCH   5   6
HETATM    6  C   UNL     1      -9.752   9.614  67.512  1.00  0.00    -0.158 C  
BRANCH   6   7
HETATM    7  C   UNL     1      -9.607   8.132  67.217  1.00  0.00    -0.163 A  
HETATM    8  C   UNL     1     -10.021   5.696  67.052  1.00  0.00    -0.169 A  
HETATM    9  S   UNL     1     -10.861   7.045  67.677  1.00  0.00    -0.217 SA 
HETATM   10  C   UNL     1      -8.560   7.451  66.621  1.00  0.00    -0.128 A  
HETATM   11  C   UNL     1      -8.801   6.048  66.522  1.00  0.00    -0.131 A  
ENDBRANCH   6   7
BRANCH   6  12
HETATM   12  O   UNL     1      -9.629  10.299  66.237  1.00  0.00    -0.172 OA 
BRANCH  12  13
HETATM   13  C   UNL     1      -9.537  11.677  66.269  1.00  0.00    -0.221 A  
HETATM   14  C   UNL     1      -8.538  13.725  67.107  1.00  0.00    -0.210 A  
HETATM   15  C   UNL     1      -8.578  12.337  67.047  1.00  0.00    -0.191 A  
HETATM   16  C   UNL     1      -9.446  14.477  66.370  1.00  0.00    -0.316 A  
HETATM   17  C   UNL     1     -10.372  13.855  65.527  1.00  0.00    -0.347 A  
HETATM   18  C   UNL     1     -11.250  14.642  64.767  1.00  0.00    -0.395 A  
HETATM   19  C   UNL     1     -12.151  14.061  63.878  1.00  0.00    -0.350 A  
HETATM   20  C   UNL     1     -12.178  12.679  63.740  1.00  0.00    -0.600 A  
HETATM   21  C   UNL     1     -11.327  11.876  64.514  1.00  0.00    -0.382 A  
HETATM   22  C   UNL     1     -10.413  12.437  65.439  1.00  0.00    -0.306 A  
ENDBRANCH  12  13
ENDBRANCH   6  12
ENDBRANCH   5   6
ENDBRANCH   4   5
ENDBRANCH   2   4
TORSDOF 6
ENDMDL
MODEL      147
REMARK 921   NORMALIZED FREE ENERGY PREDICTED BY IDOCK:   -4.11 KCAL/MOL
REMARK 922        TOTAL FREE ENERGY PREDICTED BY IDOCK:   -6.46 KCAL/MOL
REMARK 923 INTER-LIGAND FREE ENERGY PREDICTED BY IDOCK:   -5.54 KCAL/MOL
REMARK 924 INTRA-LIGAND FREE ENERGY PREDICTED BY IDOCK:   -0.92 KCAL/MOL
REMARK 927      BINDING AFFINITY PREDICTED BY RF-SCORE:    0.00 PKD
ROOT
HETATM    1  C   UNL     1      -7.536   4.533  73.090  1.00  0.00    -0.086 C  
HETATM    2  N   UNL     1      -8.906   4.590  73.598  1.00  0.00    -0.105 NA 
HETATM    3  H   UNL     1      -8.932   4.546  74.616  1.00  0.00     0.000 HD 
ENDROOT
BRANCH   2   4
HETATM    4  C   UNL     1      -9.605   5.775  73.089  1.00  0.00    -0.147 C  
BRANCH   4   5
HETATM    5  C   UNL     1     -11.032   5.483  72.596  1.00  0.00    -0.320 C  
BRANCH   5   6
HETATM    6  C   UNL     1     -11.500   6.239  71.340  1.00  0.00    -0.293 C  
BRANCH   6   7
HETATM    7  C   UNL     1     -12.403   7.412  71.673  1.00  0.00    -0.341 A  
HETATM    8  C   UNL     1     -14.391   8.840  72.056  1.00  0.00    -0.377 A  
HETATM    9  S   UNL     1     -14.112   7.228  71.563  1.00  0.00    -0.293 SA 
HETATM   10  C   UNL     1     -12.071   8.700  72.055  1.00  0.00    -0.442 A  
HETATM   11  C   UNL     1     -13.216   9.520  72.280  1.00  0.00    -0.507 A  
ENDBRANCH   6   7
BRANCH   6  12
HETATM   12  O   UNL     1     -10.348   6.793  70.649  1.00  0.00    -0.198 OA 
BRANCH  12  13
HETATM   13  C   UNL     1     -10.331   6.693  69.272  1.00  0.00    -0.200 A  
HETATM   14  C   UNL     1     -10.330   5.375  67.233  1.00  0.00    -0.273 A  
HETATM   15  C   UNL     1     -10.403   5.457  68.619  1.00  0.00    -0.229 A  
HETATM   16  C   UNL     1     -10.205   6.535  66.476  1.00  0.00    -0.134 A  
HETATM   17  C   UNL     1     -10.201   7.792  67.088  1.00  0.00    -0.365 A  
HETATM   18  C   UNL     1     -10.111   8.945  66.295  1.00  0.00    -0.284 A  
HETATM   19  C   UNL     1     -10.157  10.215  66.864  1.00  0.00    -0.279 A  
HETATM   20  C   UNL     1     -10.295  10.341  68.240  1.00  0.00    -0.209 A  
HETATM   21  C   UNL     1     -10.356   9.198  69.051  1.00  0.00    -0.229 A  
HETATM   22  C   UNL     1     -10.295   7.894  68.503  1.00  0.00    -0.229 A  
ENDBRANCH  12  13
ENDBRANCH   6  12
ENDBRANCH   5   6
ENDBRANCH   4   5
ENDBRANCH   2   4
TORSDOF 6
ENDMDL
MODEL      148
REMARK 921   NORMALIZED FREE ENERGY PREDICTED BY IDOCK:   -4.10 KCAL/MOL
REMARK 922        TOTAL FREE ENERGY PREDICTED BY IDOCK:   -6.44 KCAL/MOL
REMARK 923 INTER-LIGAND FREE ENERGY PREDICTED BY IDOCK:   -5.69 KCAL/MOL
REMARK 924 INTRA-LIGAND FREE ENERGY PREDICTED BY IDOCK:   -0.75 KCAL/MOL
REMARK 927      BINDING AFFINITY PREDICTED BY RF-SCORE:    0.00 PKD
ROOT
HETATM    1  C   UNL     1      -7.438   9.691  63.789  1.00  0.00    -0.122 C  
HETATM    2  N   UNL     1      -8.292  10.858  63.575  1.00  0.00    -0.374 NA 
HETATM    3  H   UNL     1      -8.733  10.838  62.655  1.00  0.00     0.000 HD 
ENDROOT
BRANCH   2   4
HETATM    4  C   UNL     1      -9.284  10.986  64.648  1.00  0.00    -0.168 C  
BRANCH   4   5
HETATM    5  C   UNL     1      -8.779  10.492  66.014  1.00  0.00    -0.174 C  
BRANCH   5   6
HETATM    6  C   UNL     1      -9.849  10.125  67.057  1.00  0.00    -0.191 C  
BRANCH   6   7
HETATM    7  C   UNL     1      -9.958   8.626  67.271  1.00  0.00    -0.219 A  
HETATM    8  C   UNL     1      -9.456   6.271  67.855  1.00  0.00    -0.115 A  
HETATM    9  S   UNL     1      -8.613   7.756  67.903  1.00  0.00    -0.121 SA 
HETATM   10  C   UNL     1     -11.016   7.772  67.009  1.00  0.00     0.016 A  
HETATM   11  C   UNL     1     -10.728   6.417  67.350  1.00  0.00    -0.411 A  
ENDBRANCH   6   7
BRANCH   6  12
HETATM   12  O   UNL     1      -9.490  10.696  68.344  1.00  0.00    -0.153 OA 
BRANCH  12  13
HETATM   13  C   UNL     1     -10.440  11.477  68.973  1.00  0.00    -0.145 A  
HETATM   14  C   UNL     1     -11.567  13.601  69.310  1.00  0.00    -0.363 A  
HETATM   15  C   UNL     1     -10.643  12.818  68.627  1.00  0.00    -0.256 A  
HETATM   16  C   UNL     1     -12.319  13.046  70.339  1.00  0.00    -0.351 A  
HETATM   17  C   UNL     1     -12.194  11.692  70.666  1.00  0.00    -0.461 A  
HETATM   18  C   UNL     1     -12.994  11.152  71.685  1.00  0.00    -0.548 A  
HETATM   19  C   UNL     1     -12.936   9.798  72.004  1.00  0.00    -0.515 A  
HETATM   20  C   UNL     1     -12.073   8.968  71.300  1.00  0.00    -0.375 A  
HETATM   21  C   UNL     1     -11.244   9.497  70.299  1.00  0.00    -0.307 A  
HETATM   22  C   UNL     1     -11.269  10.873  69.964  1.00  0.00    -0.340 A  
ENDBRANCH  12  13
ENDBRANCH   6  12
ENDBRANCH   5   6
ENDBRANCH   4   5
ENDBRANCH   2   4
TORSDOF 6
ENDMDL
MODEL      149
REMARK 921   NORMALIZED FREE ENERGY PREDICTED BY IDOCK:   -4.10 KCAL/MOL
REMARK 922        TOTAL FREE ENERGY PREDICTED BY IDOCK:   -6.44 KCAL/MOL
REMARK 923 INTER-LIGAND FREE ENERGY PREDICTED BY IDOCK:   -6.01 KCAL/MOL
REMARK 924 INTRA-LIGAND FREE ENERGY PREDICTED BY IDOCK:   -0.43 KCAL/MOL
REMARK 927      BINDING AFFINITY PREDICTED BY RF-SCORE:    0.00 PKD
ROOT
HETATM    1  C   UNL     1      -7.460   8.294  72.432  1.00  0.00    -0.118 C  
HETATM    2  N   UNL     1      -8.609   8.872  71.737  1.00  0.00    -0.358 NA 
HETATM    3  H   UNL     1      -9.125   9.518  72.334  1.00  0.00     0.000 HD 
ENDROOT
BRANCH   2   4
HETATM    4  C   UNL     1      -8.196   9.509  70.481  1.00  0.00    -0.167 C  
BRANCH   4   5
HETATM    5  C   UNL     1      -9.041   9.084  69.269  1.00  0.00    -0.145 C  
BRANCH   5   6
HETATM    6  C   UNL     1      -9.898  10.175  68.604  1.00  0.00    -0.162 C  
BRANCH   6   7
HETATM    7  C   UNL     1      -9.691  10.237  67.101  1.00  0.00    -0.173 A  
HETATM    8  C   UNL     1      -8.704  10.074  64.835  1.00  0.00    -0.182 A  
HETATM    9  S   UNL     1      -8.187   9.736  66.427  1.00  0.00    -0.121 SA 
HETATM   10  C   UNL     1     -10.551  10.677  66.110  1.00  0.00    -0.211 A  
HETATM   11  C   UNL     1      -9.984  10.579  64.805  1.00  0.00    -0.412 A  
ENDBRANCH   6   7
BRANCH   6  12
HETATM   12  O   UNL     1     -11.306   9.880  68.810  1.00  0.00    -0.127 OA 
BRANCH  12  13
HETATM   13  C   UNL     1     -11.922  10.478  69.892  1.00  0.00    -0.264 A  
HETATM   14  C   UNL     1     -13.066  10.349  72.030  1.00  0.00    -0.521 A  
HETATM   15  C   UNL     1     -12.401   9.733  70.976  1.00  0.00    -0.422 A  
HETATM   16  C   UNL     1     -13.244  11.728  72.025  1.00  0.00    -0.460 A  
HETATM   17  C   UNL     1     -12.718  12.514  70.994  1.00  0.00    -0.316 A  
HETATM   18  C   UNL     1     -12.882  13.906  71.036  1.00  0.00    -0.394 A  
HETATM   19  C   UNL     1     -12.328  14.726  70.057  1.00  0.00    -0.365 A  
HETATM   20  C   UNL     1     -11.600  14.154  69.021  1.00  0.00    -0.342 A  
HETATM   21  C   UNL     1     -11.452  12.761  68.947  1.00  0.00    -0.352 A  
HETATM   22  C   UNL     1     -12.018  11.901  69.920  1.00  0.00    -0.398 A  
ENDBRANCH  12  13
ENDBRANCH   6  12
ENDBRANCH   5   6
ENDBRANCH   4   5
ENDBRANCH   2   4
TORSDOF 6
ENDMDL
MODEL      150
REMARK 921   NORMALIZED FREE ENERGY PREDICTED BY IDOCK:   -4.08 KCAL/MOL
REMARK 922        TOTAL FREE ENERGY PREDICTED BY IDOCK:   -6.41 KCAL/MOL
REMARK 923 INTER-LIGAND FREE ENERGY PREDICTED BY IDOCK:   -5.65 KCAL/MOL
REMARK 924 INTRA-LIGAND FREE ENERGY PREDICTED BY IDOCK:   -0.76 KCAL/MOL
REMARK 927      BINDING AFFINITY PREDICTED BY RF-SCORE:    0.00 PKD
ROOT
HETATM    1  C   UNL     1     -13.272   9.447  72.036  1.00  0.00    -0.449 C  
HETATM    2  N   UNL     1     -12.690  10.687  71.526  1.00  0.00    -0.425 NA 
HETATM    3  H   UNL     1     -12.230  11.219  72.265  1.00  0.00     0.000 HD 
ENDROOT
BRANCH   2   4
HETATM    4  C   UNL     1     -11.781  10.419  70.407  1.00  0.00    -0.331 C  
BRANCH   4   5
HETATM    5  C   UNL     1     -11.632  11.603  69.437  1.00  0.00    -0.392 C  
BRANCH   5   6
HETATM    6  C   UNL     1     -11.370  11.262  67.961  1.00  0.00    -0.304 C  
BRANCH   6   7
HETATM    7  C   UNL     1     -11.722  12.409  67.030  1.00  0.00    -0.353 A  
HETATM    8  C   UNL     1     -12.231  14.659  66.128  1.00  0.00    -0.152 A  
HETATM    9  S   UNL     1     -11.843  14.008  67.658  1.00  0.00    -0.386 SA 
HETATM   10  C   UNL     1     -12.004  12.391  65.676  1.00  0.00    -0.449 A  
HETATM   11  C   UNL     1     -12.292  13.687  65.155  1.00  0.00    -0.486 A  
ENDBRANCH   6   7
BRANCH   6  12
HETATM   12  O   UNL     1      -9.954  10.998  67.766  1.00  0.00    -0.169 OA 
BRANCH  12  13
HETATM   13  C   UNL     1      -9.601   9.726  67.361  1.00  0.00    -0.155 A  
HETATM   14  C   UNL     1      -9.302   7.357  67.803  1.00  0.00    -0.144 A  
HETATM   15  C   UNL     1      -9.715   8.620  68.212  1.00  0.00    -0.171 A  
HETATM   16  C   UNL     1      -8.788   7.177  66.523  1.00  0.00    -0.154 A  
HETATM   17  C   UNL     1      -8.725   8.244  65.621  1.00  0.00    -0.188 A  
HETATM   18  C   UNL     1      -8.236   8.023  64.325  1.00  0.00    -0.070 A  
HETATM   19  C   UNL     1      -8.206   9.047  63.383  1.00  0.00    -0.182 A  
HETATM   20  C   UNL     1      -8.670  10.309  63.733  1.00  0.00    -0.211 A  
HETATM   21  C   UNL     1      -9.134  10.555  65.033  1.00  0.00    -0.231 A  
HETATM   22  C   UNL     1      -9.161   9.537  66.018  1.00  0.00    -0.248 A  
ENDBRANCH  12  13
ENDBRANCH   6  12
ENDBRANCH   5   6
ENDBRANCH   4   5
ENDBRANCH   2   4
TORSDOF 6
ENDMDL
MODEL      151
REMARK 921   NORMALIZED FREE ENERGY PREDICTED BY IDOCK:   -4.07 KCAL/MOL
REMARK 922        TOTAL FREE ENERGY PREDICTED BY IDOCK:   -6.40 KCAL/MOL
REMARK 923 INTER-LIGAND FREE ENERGY PREDICTED BY IDOCK:   -6.04 KCAL/MOL
REMARK 924 INTRA-LIGAND FREE ENERGY PREDICTED BY IDOCK:   -0.36 KCAL/MOL
REMARK 927      BINDING AFFINITY PREDICTED BY RF-SCORE:    0.00 PKD
ROOT
HETATM    1  C   UNL     1     -10.593  19.813  66.003  1.00  0.00    -0.468 C  
HETATM    2  N   UNL     1     -10.328  19.144  67.276  1.00  0.00    -0.402 NA 
HETATM    3  H   UNL     1     -10.826  19.590  68.046  1.00  0.00     0.000 HD 
ENDROOT
BRANCH   2   4
HETATM    4  C   UNL     1     -10.634  17.712  67.190  1.00  0.00    -0.276 C  
BRANCH   4   5
HETATM    5  C   UNL     1      -9.616  16.915  66.356  1.00  0.00    -0.305 C  
BRANCH   5   6
HETATM    6  C   UNL     1      -9.474  15.418  66.682  1.00  0.00    -0.259 C  
BRANCH   6   7
HETATM    7  C   UNL     1      -8.475  15.161  67.795  1.00  0.00    -0.150 A  
HETATM    8  C   UNL     1      -6.546  14.322  69.103  1.00  0.00    -0.114 A  
HETATM    9  S   UNL     1      -7.151  14.094  67.522  1.00  0.00    -0.094 SA 
HETATM   10  C   UNL     1      -8.451  15.652  69.089  1.00  0.00    -0.253 A  
HETATM   11  C   UNL     1      -7.337  15.171  69.841  1.00  0.00    -0.068 A  
ENDBRANCH   6   7
BRANCH   6  12
HETATM   12  O   UNL     1     -10.749  14.899  67.149  1.00  0.00    -0.284 OA 
BRANCH  12  13
HETATM   13  C   UNL     1     -10.863  13.529  67.271  1.00  0.00    -0.276 A  
HETATM   14  C   UNL     1     -11.246  11.535  68.603  1.00  0.00    -0.307 A  
HETATM   15  C   UNL     1     -11.190  12.919  68.489  1.00  0.00    -0.310 A  
HETATM   16  C   UNL     1     -10.996  10.737  67.492  1.00  0.00    -0.372 A  
HETATM   17  C   UNL     1     -10.736  11.310  66.244  1.00  0.00    -0.312 A  
HETATM   18  C   UNL     1     -10.525  10.479  65.133  1.00  0.00    -0.225 A  
HETATM   19  C   UNL     1     -10.314  11.012  63.865  1.00  0.00    -0.436 A  
HETATM   20  C   UNL     1     -10.315  12.391  63.696  1.00  0.00    -0.434 A  
HETATM   21  C   UNL     1     -10.495  13.238  64.800  1.00  0.00    -0.402 A  
HETATM   22  C   UNL     1     -10.695  12.725  66.105  1.00  0.00    -0.297 A  
ENDBRANCH  12  13
ENDBRANCH   6  12
ENDBRANCH   5   6
ENDBRANCH   4   5
ENDBRANCH   2   4
TORSDOF 6
ENDMDL
MODEL      152
REMARK 921   NORMALIZED FREE ENERGY PREDICTED BY IDOCK:   -4.02 KCAL/MOL
REMARK 922        TOTAL FREE ENERGY PREDICTED BY IDOCK:   -6.33 KCAL/MOL
REMARK 923 INTER-LIGAND FREE ENERGY PREDICTED BY IDOCK:   -5.52 KCAL/MOL
REMARK 924 INTRA-LIGAND FREE ENERGY PREDICTED BY IDOCK:   -0.81 KCAL/MOL
REMARK 927      BINDING AFFINITY PREDICTED BY RF-SCORE:    0.00 PKD
ROOT
HETATM    1  C   UNL     1      -7.101   6.873  73.692  1.00  0.00    -0.074 C  
HETATM    2  N   UNL     1      -8.500   6.745  74.096  1.00  0.00    -0.134 NA 
HETATM    3  H   UNL     1      -8.601   6.749  75.111  1.00  0.00     0.000 HD 
ENDROOT
BRANCH   2   4
HETATM    4  C   UNL     1      -9.325   7.783  73.466  1.00  0.00    -0.290 C  
BRANCH   4   5
HETATM    5  C   UNL     1     -10.733   7.300  73.081  1.00  0.00    -0.411 C  
BRANCH   5   6
HETATM    6  C   UNL     1     -11.203   7.606  71.648  1.00  0.00    -0.247 C  
BRANCH   6   7
HETATM    7  C   UNL     1     -11.891   8.955  71.541  1.00  0.00    -0.332 A  
HETATM    8  C   UNL     1     -13.535  10.799  71.719  1.00  0.00    -0.203 A  
HETATM    9  S   UNL     1     -13.471   9.160  72.194  1.00  0.00    -0.499 SA 
HETATM   10  C   UNL     1     -11.448  10.126  70.951  1.00  0.00    -0.444 A  
HETATM   11  C   UNL     1     -12.393  11.189  71.058  1.00  0.00    -0.487 A  
ENDBRANCH   6   7
BRANCH   6  12
HETATM   12  O   UNL     1     -10.054   7.661  70.761  1.00  0.00    -0.189 OA 
BRANCH  12  13
HETATM   13  C   UNL     1     -10.165   7.013  69.547  1.00  0.00    -0.199 A  
HETATM   14  C   UNL     1     -10.699   7.006  67.178  1.00  0.00    -0.433 A  
HETATM   15  C   UNL     1     -10.541   7.688  68.379  1.00  0.00    -0.166 A  
HETATM   16  C   UNL     1     -10.462   5.637  67.123  1.00  0.00    -0.334 A  
HETATM   17  C   UNL     1     -10.017   4.941  68.251  1.00  0.00    -0.177 A  
HETATM   18  C   UNL     1      -9.751   3.568  68.154  1.00  0.00    -0.073 A  
HETATM   19  C   UNL     1      -9.257   2.852  69.241  1.00  0.00    -0.212 A  
HETATM   20  C   UNL     1      -9.023   3.510  70.442  1.00  0.00    -0.168 A  
HETATM   21  C   UNL     1      -9.312   4.877  70.565  1.00  0.00    -0.216 A  
HETATM   22  C   UNL     1      -9.831   5.628  69.482  1.00  0.00    -0.238 A  
ENDBRANCH  12  13
ENDBRANCH   6  12
ENDBRANCH   5   6
ENDBRANCH   4   5
ENDBRANCH   2   4
TORSDOF 6
ENDMDL
MODEL      153
REMARK 921   NORMALIZED FREE ENERGY PREDICTED BY IDOCK:   -4.02 KCAL/MOL
REMARK 922        TOTAL FREE ENERGY PREDICTED BY IDOCK:   -6.33 KCAL/MOL
REMARK 923 INTER-LIGAND FREE ENERGY PREDICTED BY IDOCK:   -6.11 KCAL/MOL
REMARK 924 INTRA-LIGAND FREE ENERGY PREDICTED BY IDOCK:   -0.22 KCAL/MOL
REMARK 927      BINDING AFFINITY PREDICTED BY RF-SCORE:    0.00 PKD
ROOT
HETATM    1  C   UNL     1     -13.648   9.084  72.356  1.00  0.00    -0.477 C  
HETATM    2  N   UNL     1     -13.076   9.020  71.012  1.00  0.00    -0.531 NA 
HETATM    3  H   UNL     1     -13.039   9.941  70.574  1.00  0.00     0.000 HD 
ENDROOT
BRANCH   2   4
HETATM    4  C   UNL     1     -11.758   8.377  71.032  1.00  0.00    -0.267 C  
BRANCH   4   5
HETATM    5  C   UNL     1     -10.963   8.561  69.729  1.00  0.00    -0.131 C  
BRANCH   5   6
HETATM    6  C   UNL     1     -10.613  10.004  69.328  1.00  0.00    -0.227 C  
BRANCH   6   7
HETATM    7  C   UNL     1      -9.179  10.140  68.848  1.00  0.00    -0.172 A  
HETATM    8  C   UNL     1      -7.120  10.047  67.474  1.00  0.00    -0.087 A  
HETATM    9  S   UNL     1      -8.749   9.571  67.280  1.00  0.00    -0.128 SA 
HETATM   10  C   UNL     1      -8.075  10.656  69.503  1.00  0.00    -0.056 A  
HETATM   11  C   UNL     1      -6.890  10.607  68.709  1.00  0.00    -0.062 A  
ENDBRANCH   6   7
BRANCH   6  12
HETATM   12  O   UNL     1     -11.456  10.419  68.220  1.00  0.00    -0.273 OA 
BRANCH  12  13
HETATM   13  C   UNL     1     -11.566  11.776  67.986  1.00  0.00    -0.316 A  
HETATM   14  C   UNL     1     -11.463  13.696  66.504  1.00  0.00    -0.357 A  
HETATM   15  C   UNL     1     -11.402  12.322  66.708  1.00  0.00    -0.395 A  
HETATM   16  C   UNL     1     -11.711  14.545  67.577  1.00  0.00    -0.413 A  
HETATM   17  C   UNL     1     -11.949  14.032  68.855  1.00  0.00    -0.387 A  
HETATM   18  C   UNL     1     -12.233  14.912  69.910  1.00  0.00    -0.354 A  
HETATM   19  C   UNL     1     -12.527  14.437  71.185  1.00  0.00    -0.429 A  
HETATM   20  C   UNL     1     -12.541  13.067  71.415  1.00  0.00    -0.329 A  
HETATM   21  C   UNL     1     -12.230  12.173  70.379  1.00  0.00    -0.378 A  
HETATM   22  C   UNL     1     -11.910  12.628  69.077  1.00  0.00    -0.341 A  
ENDBRANCH  12  13
ENDBRANCH   6  12
ENDBRANCH   5   6
ENDBRANCH   4   5
ENDBRANCH   2   4
TORSDOF 6
ENDMDL
MODEL      154
REMARK 921   NORMALIZED FREE ENERGY PREDICTED BY IDOCK:   -4.00 KCAL/MOL
REMARK 922        TOTAL FREE ENERGY PREDICTED BY IDOCK:   -6.30 KCAL/MOL
REMARK 923 INTER-LIGAND FREE ENERGY PREDICTED BY IDOCK:   -5.27 KCAL/MOL
REMARK 924 INTRA-LIGAND FREE ENERGY PREDICTED BY IDOCK:   -1.03 KCAL/MOL
REMARK 927      BINDING AFFINITY PREDICTED BY RF-SCORE:    0.00 PKD
ROOT
HETATM    1  C   UNL     1     -14.081   8.964  72.152  1.00  0.00    -0.429 C  
HETATM    2  N   UNL     1     -13.317   8.267  71.118  1.00  0.00    -0.525 NA 
HETATM    3  H   UNL     1     -12.789   8.918  70.537  1.00  0.00     0.000 HD 
ENDROOT
BRANCH   2   4
HETATM    4  C   UNL     1     -12.450   7.242  71.708  1.00  0.00    -0.343 C  
BRANCH   4   5
HETATM    5  C   UNL     1     -11.639   6.450  70.669  1.00  0.00    -0.412 C  
BRANCH   5   6
HETATM    6  C   UNL     1     -10.429   7.165  70.043  1.00  0.00    -0.221 C  
BRANCH   6   7
HETATM    7  C   UNL     1     -10.153   6.699  68.624  1.00  0.00    -0.161 A  
HETATM    8  C   UNL     1      -9.040   5.834  66.588  1.00  0.00    -0.132 A  
HETATM    9  S   UNL     1      -8.574   6.159  68.198  1.00  0.00    -0.114 SA 
HETATM   10  C   UNL     1     -11.000   6.649  67.532  1.00  0.00    -0.416 A  
HETATM   11  C   UNL     1     -10.360   6.147  66.360  1.00  0.00    -0.102 A  
ENDBRANCH   6   7
BRANCH   6  12
HETATM   12  O   UNL     1     -10.697   8.591  69.960  1.00  0.00    -0.229 OA 
BRANCH  12  13
HETATM   13  C   UNL     1      -9.640   9.411  69.619  1.00  0.00    -0.188 A  
HETATM   14  C   UNL     1      -7.326  10.111  69.855  1.00  0.00    -0.169 A  
HETATM   15  C   UNL     1      -8.363   9.240  70.170  1.00  0.00    -0.189 A  
HETATM   16  C   UNL     1      -7.546  11.156  68.965  1.00  0.00    -0.119 A  
HETATM   17  C   UNL     1      -8.787  11.317  68.341  1.00  0.00    -0.159 A  
HETATM   18  C   UNL     1      -8.966  12.359  67.419  1.00  0.00    -0.185 A  
HETATM   19  C   UNL     1     -10.171  12.519  66.740  1.00  0.00    -0.243 A  
HETATM   20  C   UNL     1     -11.211  11.630  66.978  1.00  0.00    -0.376 A  
HETATM   21  C   UNL     1     -11.059  10.600  67.918  1.00  0.00    -0.371 A  
HETATM   22  C   UNL     1      -9.852  10.423  68.637  1.00  0.00    -0.183 A  
ENDBRANCH  12  13
ENDBRANCH   6  12
ENDBRANCH   5   6
ENDBRANCH   4   5
ENDBRANCH   2   4
TORSDOF 6
ENDMDL
MODEL      155
REMARK 921   NORMALIZED FREE ENERGY PREDICTED BY IDOCK:   -4.00 KCAL/MOL
REMARK 922        TOTAL FREE ENERGY PREDICTED BY IDOCK:   -6.30 KCAL/MOL
REMARK 923 INTER-LIGAND FREE ENERGY PREDICTED BY IDOCK:   -6.31 KCAL/MOL
REMARK 924 INTRA-LIGAND FREE ENERGY PREDICTED BY IDOCK:    0.02 KCAL/MOL
REMARK 927      BINDING AFFINITY PREDICTED BY RF-SCORE:    0.00 PKD
ROOT
HETATM    1  C   UNL     1     -13.032   9.778  71.266  1.00  0.00    -0.380 C  
HETATM    2  N   UNL     1     -12.613  10.155  69.917  1.00  0.00    -0.519 NA 
HETATM    3  H   UNL     1     -13.412  10.337  69.311  1.00  0.00     0.000 HD 
ENDROOT
BRANCH   2   4
HETATM    4  C   UNL     1     -11.691  11.297  69.955  1.00  0.00    -0.352 C  
BRANCH   4   5
HETATM    5  C   UNL     1     -11.771  12.193  68.708  1.00  0.00    -0.374 C  
BRANCH   5   6
HETATM    6  C   UNL     1     -10.541  12.208  67.785  1.00  0.00    -0.204 C  
BRANCH   6   7
HETATM    7  C   UNL     1     -10.881  12.656  66.374  1.00  0.00    -0.269 A  
HETATM    8  C   UNL     1     -12.044  13.602  64.403  1.00  0.00    -0.427 A  
HETATM    9  S   UNL     1     -12.396  13.414  66.064  1.00  0.00    -0.380 SA 
HETATM   10  C   UNL     1     -10.144  12.533  65.209  1.00  0.00    -0.275 A  
HETATM   11  C   UNL     1     -10.813  13.082  64.075  1.00  0.00    -0.408 A  
ENDBRANCH   6   7
BRANCH   6  12
HETATM   12  O   UNL     1      -9.565  13.159  68.291  1.00  0.00    -0.222 OA 
BRANCH  12  13
HETATM   13  C   UNL     1     -10.019  14.429  68.588  1.00  0.00    -0.241 A  
HETATM   14  C   UNL     1     -11.440  15.942  69.847  1.00  0.00    -0.344 A  
HETATM   15  C   UNL     1     -10.956  14.662  69.602  1.00  0.00    -0.255 A  
HETATM   16  C   UNL     1     -10.977  17.014  69.094  1.00  0.00    -0.054 A  
HETATM   17  C   UNL     1      -9.990  16.832  68.120  1.00  0.00    -0.270 A  
HETATM   18  C   UNL     1      -9.516  17.939  67.402  1.00  0.00    -0.258 A  
HETATM   19  C   UNL     1      -8.498  17.806  66.462  1.00  0.00    -0.288 A  
HETATM   20  C   UNL     1      -7.941  16.553  66.233  1.00  0.00    -0.307 A  
HETATM   21  C   UNL     1      -8.424  15.430  66.921  1.00  0.00    -0.287 A  
HETATM   22  C   UNL     1      -9.470  15.532  67.870  1.00  0.00    -0.201 A  
ENDBRANCH  12  13
ENDBRANCH   6  12
ENDBRANCH   5   6
ENDBRANCH   4   5
ENDBRANCH   2   4
TORSDOF 6
ENDMDL
MODEL      156
REMARK 921   NORMALIZED FREE ENERGY PREDICTED BY IDOCK:   -4.00 KCAL/MOL
REMARK 922        TOTAL FREE ENERGY PREDICTED BY IDOCK:   -6.30 KCAL/MOL
REMARK 923 INTER-LIGAND FREE ENERGY PREDICTED BY IDOCK:   -5.03 KCAL/MOL
REMARK 924 INTRA-LIGAND FREE ENERGY PREDICTED BY IDOCK:   -1.27 KCAL/MOL
REMARK 927      BINDING AFFINITY PREDICTED BY RF-SCORE:    0.00 PKD
ROOT
HETATM    1  C   UNL     1     -11.859  11.760  68.589  1.00  0.00    -0.310 C  
HETATM    2  N   UNL     1     -12.575  10.793  69.419  1.00  0.00    -0.635 NA 
HETATM    3  H   UNL     1     -12.319   9.834  69.184  1.00  0.00     0.000 HD 
ENDROOT
BRANCH   2   4
HETATM    4  C   UNL     1     -12.374  11.074  70.845  1.00  0.00    -0.402 C  
BRANCH   4   5
HETATM    5  C   UNL     1     -12.158   9.811  71.696  1.00  0.00    -0.475 C  
BRANCH   5   6
HETATM    6  C   UNL     1     -10.870   9.012  71.437  1.00  0.00    -0.330 C  
BRANCH   6   7
HETATM    7  C   UNL     1     -10.838   7.701  72.202  1.00  0.00    -0.247 A  
HETATM    8  C   UNL     1     -11.402   5.457  73.085  1.00  0.00    -0.263 A  
HETATM    9  S   UNL     1     -12.106   6.556  71.984  1.00  0.00    -0.260 SA 
HETATM   10  C   UNL     1      -9.915   7.242  73.126  1.00  0.00    -0.295 A  
HETATM   11  C   UNL     1     -10.238   5.947  73.631  1.00  0.00    -0.233 A  
ENDBRANCH   6   7
BRANCH   6  12
HETATM   12  O   UNL     1     -10.789   8.664  70.028  1.00  0.00    -0.232 OA 
BRANCH  12  13
HETATM   13  C   UNL     1      -9.528   8.486  69.495  1.00  0.00    -0.165 A  
HETATM   14  C   UNL     1      -7.281   9.282  69.030  1.00  0.00    -0.071 A  
HETATM   15  C   UNL     1      -8.527   9.458  69.621  1.00  0.00    -0.166 A  
HETATM   16  C   UNL     1      -7.009   8.118  68.320  1.00  0.00    -0.076 A  
HETATM   17  C   UNL     1      -7.959   7.095  68.231  1.00  0.00    -0.123 A  
HETATM   18  C   UNL     1      -7.641   5.917  67.539  1.00  0.00    -0.093 A  
HETATM   19  C   UNL     1      -8.540   4.856  67.474  1.00  0.00    -0.104 A  
HETATM   20  C   UNL     1      -9.772   4.966  68.107  1.00  0.00    -0.202 A  
HETATM   21  C   UNL     1     -10.117   6.149  68.778  1.00  0.00    -0.205 A  
HETATM   22  C   UNL     1      -9.230   7.251  68.847  1.00  0.00    -0.141 A  
ENDBRANCH  12  13
ENDBRANCH   6  12
ENDBRANCH   5   6
ENDBRANCH   4   5
ENDBRANCH   2   4
TORSDOF 6
ENDMDL
MODEL      157
REMARK 921   NORMALIZED FREE ENERGY PREDICTED BY IDOCK:   -3.99 KCAL/MOL
REMARK 922        TOTAL FREE ENERGY PREDICTED BY IDOCK:   -6.28 KCAL/MOL
REMARK 923 INTER-LIGAND FREE ENERGY PREDICTED BY IDOCK:   -5.56 KCAL/MOL
REMARK 924 INTRA-LIGAND FREE ENERGY PREDICTED BY IDOCK:   -0.73 KCAL/MOL
REMARK 927      BINDING AFFINITY PREDICTED BY RF-SCORE:    0.00 PKD
ROOT
HETATM    1  C   UNL     1     -12.770   9.653  71.459  1.00  0.00    -0.387 C  
HETATM    2  N   UNL     1     -12.788  10.166  70.090  1.00  0.00    -0.565 NA 
HETATM    3  H   UNL     1     -13.707  10.529  69.836  1.00  0.00     0.000 HD 
ENDROOT
BRANCH   2   4
HETATM    4  C   UNL     1     -11.736  11.169  69.892  1.00  0.00    -0.355 C  
BRANCH   4   5
HETATM    5  C   UNL     1     -12.244  12.478  69.265  1.00  0.00    -0.087 C  
BRANCH   5   6
HETATM    6  C   UNL     1     -11.413  13.062  68.110  1.00  0.00    -0.319 C  
BRANCH   6   7
HETATM    7  C   UNL     1     -10.941  14.476  68.393  1.00  0.00    -0.245 A  
HETATM    8  C   UNL     1     -10.255  16.843  68.138  1.00  0.00    -0.311 A  
HETATM    9  S   UNL     1     -10.773  15.595  67.094  1.00  0.00    -0.299 SA 
HETATM   10  C   UNL     1     -10.576  15.060  69.594  1.00  0.00    -0.252 A  
HETATM   11  C   UNL     1     -10.185  16.424  69.447  1.00  0.00    -0.273 A  
ENDBRANCH   6   7
BRANCH   6  12
HETATM   12  O   UNL     1     -10.215  12.261  67.920  1.00  0.00    -0.191 OA 
BRANCH  12  13
HETATM   13  C   UNL     1     -10.038  11.678  66.682  1.00  0.00    -0.208 A  
HETATM   14  C   UNL     1     -10.132  11.758  64.256  1.00  0.00    -0.326 A  
HETATM   15  C   UNL     1     -10.263  12.381  65.492  1.00  0.00    -0.297 A  
HETATM   16  C   UNL     1      -9.750  10.423  64.191  1.00  0.00    -0.387 A  
HETATM   17  C   UNL     1      -9.448   9.707  65.354  1.00  0.00    -0.343 A  
HETATM   18  C   UNL     1      -9.030   8.372  65.253  1.00  0.00    -0.055 A  
HETATM   19  C   UNL     1      -8.670   7.643  66.383  1.00  0.00    -0.166 A  
HETATM   20  C   UNL     1      -8.726   8.250  67.632  1.00  0.00    -0.133 A  
HETATM   21  C   UNL     1      -9.170   9.574  67.754  1.00  0.00    -0.136 A  
HETATM   22  C   UNL     1      -9.558  10.335  66.624  1.00  0.00    -0.220 A  
ENDBRANCH  12  13
ENDBRANCH   6  12
ENDBRANCH   5   6
ENDBRANCH   4   5
ENDBRANCH   2   4
TORSDOF 6
ENDMDL
MODEL      158
REMARK 921   NORMALIZED FREE ENERGY PREDICTED BY IDOCK:   -3.98 KCAL/MOL
REMARK 922        TOTAL FREE ENERGY PREDICTED BY IDOCK:   -6.27 KCAL/MOL
REMARK 923 INTER-LIGAND FREE ENERGY PREDICTED BY IDOCK:   -5.66 KCAL/MOL
REMARK 924 INTRA-LIGAND FREE ENERGY PREDICTED BY IDOCK:   -0.61 KCAL/MOL
REMARK 927      BINDING AFFINITY PREDICTED BY RF-SCORE:    0.00 PKD
ROOT
HETATM    1  C   UNL     1      -5.680   9.000  70.379  1.00  0.00    -0.030 C  
HETATM    2  N   UNL     1      -6.641   9.992  70.857  1.00  0.00    -0.317 NA 
HETATM    3  H   UNL     1      -6.222  10.919  70.929  1.00  0.00     0.000 HD 
ENDROOT
BRANCH   2   4
HETATM    4  C   UNL     1      -7.843  10.006  70.016  1.00  0.00    -0.158 C  
BRANCH   4   5
HETATM    5  C   UNL     1      -8.323   8.604  69.605  1.00  0.00    -0.123 C  
BRANCH   5   6
HETATM    6  C   UNL     1      -9.803   8.466  69.207  1.00  0.00    -0.186 C  
BRANCH   6   7
HETATM    7  C   UNL     1     -10.628   7.773  70.276  1.00  0.00    -0.231 A  
HETATM    8  C   UNL     1     -11.380   6.226  72.059  1.00  0.00    -0.300 A  
HETATM    9  S   UNL     1      -9.975   6.411  71.105  1.00  0.00    -0.180 SA 
HETATM   10  C   UNL     1     -11.910   8.048  70.718  1.00  0.00    -0.171 A  
HETATM   11  C   UNL     1     -12.341   7.160  71.748  1.00  0.00    -0.385 A  
ENDBRANCH   6   7
BRANCH   6  12
HETATM   12  O   UNL     1     -10.384   9.787  69.035  1.00  0.00    -0.190 OA 
BRANCH  12  13
HETATM   13  C   UNL     1     -10.443  10.286  67.749  1.00  0.00    -0.226 A  
HETATM   14  C   UNL     1     -10.073  10.062  65.359  1.00  0.00    -0.317 A  
HETATM   15  C   UNL     1     -10.057   9.522  66.640  1.00  0.00    -0.321 A  
HETATM   16  C   UNL     1     -10.496  11.372  65.165  1.00  0.00    -0.351 A  
HETATM   17  C   UNL     1     -10.955  12.142  66.238  1.00  0.00    -0.332 A  
HETATM   18  C   UNL     1     -11.410  13.448  66.004  1.00  0.00    -0.329 A  
HETATM   19  C   UNL     1     -11.923  14.227  67.037  1.00  0.00    -0.463 A  
HETATM   20  C   UNL     1     -11.986  13.701  68.322  1.00  0.00    -0.385 A  
HETATM   21  C   UNL     1     -11.507  12.408  68.579  1.00  0.00    -0.350 A  
HETATM   22  C   UNL     1     -10.964  11.598  67.551  1.00  0.00    -0.312 A  
ENDBRANCH  12  13
ENDBRANCH   6  12
ENDBRANCH   5   6
ENDBRANCH   4   5
ENDBRANCH   2   4
TORSDOF 6
ENDMDL
MODEL      159
REMARK 921   NORMALIZED FREE ENERGY PREDICTED BY IDOCK:   -3.94 KCAL/MOL
REMARK 922        TOTAL FREE ENERGY PREDICTED BY IDOCK:   -6.22 KCAL/MOL
REMARK 923 INTER-LIGAND FREE ENERGY PREDICTED BY IDOCK:   -5.59 KCAL/MOL
REMARK 924 INTRA-LIGAND FREE ENERGY PREDICTED BY IDOCK:   -0.63 KCAL/MOL
REMARK 927      BINDING AFFINITY PREDICTED BY RF-SCORE:    0.00 PKD
ROOT
HETATM    1  C   UNL     1     -10.429  19.766  66.967  1.00  0.00    -0.469 C  
HETATM    2  N   UNL     1      -9.801  18.805  67.871  1.00  0.00    -0.325 NA 
HETATM    3  H   UNL     1     -10.100  18.944  68.836  1.00  0.00     0.000 HD 
ENDROOT
BRANCH   2   4
HETATM    4  C   UNL     1     -10.043  17.429  67.423  1.00  0.00    -0.321 C  
BRANCH   4   5
HETATM    5  C   UNL     1      -8.991  16.912  66.427  1.00  0.00    -0.317 C  
BRANCH   5   6
HETATM    6  C   UNL     1      -8.360  15.543  66.734  1.00  0.00    -0.265 C  
BRANCH   6   7
HETATM    7  C   UNL     1      -7.121  15.659  67.604  1.00  0.00    -0.168 A  
HETATM    8  C   UNL     1      -5.220  16.556  68.914  1.00  0.00    -0.121 A  
HETATM    9  S   UNL     1      -6.489  17.216  67.982  1.00  0.00    -0.148 SA 
HETATM   10  C   UNL     1      -6.344  14.663  68.168  1.00  0.00    -0.144 A  
HETATM   11  C   UNL     1      -5.251  15.180  68.927  1.00  0.00    -0.096 A  
ENDBRANCH   6   7
BRANCH   6  12
HETATM   12  O   UNL     1      -9.306  14.727  67.476  1.00  0.00    -0.189 OA 
BRANCH  12  13
HETATM   13  C   UNL     1      -9.582  13.471  66.974  1.00  0.00    -0.248 A  
HETATM   14  C   UNL     1      -9.207  11.072  66.914  1.00  0.00    -0.168 A  
HETATM   15  C   UNL     1      -8.955  12.321  67.470  1.00  0.00    -0.180 A  
HETATM   16  C   UNL     1     -10.110  10.952  65.863  1.00  0.00    -0.307 A  
HETATM   17  C   UNL     1     -10.808  12.066  65.387  1.00  0.00    -0.336 A  
HETATM   18  C   UNL     1     -11.739  11.906  64.351  1.00  0.00    -0.357 A  
HETATM   19  C   UNL     1     -12.490  12.982  63.886  1.00  0.00    -0.377 A  
HETATM   20  C   UNL     1     -12.315  14.235  64.460  1.00  0.00    -0.432 A  
HETATM   21  C   UNL     1     -11.367  14.419  65.477  1.00  0.00    -0.334 A  
HETATM   22  C   UNL     1     -10.576  13.347  65.959  1.00  0.00    -0.290 A  
ENDBRANCH  12  13
ENDBRANCH   6  12
ENDBRANCH   5   6
ENDBRANCH   4   5
ENDBRANCH   2   4
TORSDOF 6
ENDMDL
MODEL      160
REMARK 921   NORMALIZED FREE ENERGY PREDICTED BY IDOCK:   -3.93 KCAL/MOL
REMARK 922        TOTAL FREE ENERGY PREDICTED BY IDOCK:   -6.21 KCAL/MOL
REMARK 923 INTER-LIGAND FREE ENERGY PREDICTED BY IDOCK:   -5.32 KCAL/MOL
REMARK 924 INTRA-LIGAND FREE ENERGY PREDICTED BY IDOCK:   -0.89 KCAL/MOL
REMARK 927      BINDING AFFINITY PREDICTED BY RF-SCORE:    0.00 PKD
ROOT
HETATM    1  C   UNL     1      -8.961   7.322  66.084  1.00  0.00    -0.149 C  
HETATM    2  N   UNL     1     -10.011   8.338  66.049  1.00  0.00    -0.444 NA 
HETATM    3  H   UNL     1     -10.744   8.099  65.382  1.00  0.00     0.000 HD 
ENDROOT
BRANCH   2   4
HETATM    4  C   UNL     1     -10.556   8.576  67.390  1.00  0.00    -0.234 C  
BRANCH   4   5
HETATM    5  C   UNL     1     -11.069  10.010  67.601  1.00  0.00    -0.222 C  
BRANCH   5   6
HETATM    6  C   UNL     1     -10.233  11.143  66.981  1.00  0.00    -0.215 C  
BRANCH   6   7
HETATM    7  C   UNL     1     -10.942  11.817  65.820  1.00  0.00    -0.301 A  
HETATM    8  C   UNL     1     -11.473  12.761  63.593  1.00  0.00    -0.481 A  
HETATM    9  S   UNL     1     -10.135  11.977  64.307  1.00  0.00    -0.277 SA 
HETATM   10  C   UNL     1     -12.203  12.384  65.767  1.00  0.00    -0.277 A  
HETATM   11  C   UNL     1     -12.511  12.924  64.482  1.00  0.00    -0.468 A  
ENDBRANCH   6   7
BRANCH   6  12
HETATM   12  O   UNL     1     -10.003  12.177  67.976  1.00  0.00    -0.191 OA 
BRANCH  12  13
HETATM   13  C   UNL     1      -8.902  12.990  67.796  1.00  0.00    -0.188 A  
HETATM   14  C   UNL     1      -6.499  13.332  67.707  1.00  0.00    -0.161 A  
HETATM   15  C   UNL     1      -7.596  12.487  67.837  1.00  0.00    -0.133 A  
HETATM   16  C   UNL     1      -6.694  14.695  67.512  1.00  0.00    -0.148 A  
HETATM   17  C   UNL     1      -7.983  15.224  67.396  1.00  0.00    -0.211 A  
HETATM   18  C   UNL     1      -8.146  16.598  67.163  1.00  0.00    -0.211 A  
HETATM   19  C   UNL     1      -9.411  17.153  66.989  1.00  0.00    -0.257 A  
HETATM   20  C   UNL     1     -10.530  16.331  67.046  1.00  0.00    -0.306 A  
HETATM   21  C   UNL     1     -10.387  14.961  67.308  1.00  0.00    -0.251 A  
HETATM   22  C   UNL     1      -9.115  14.371  67.506  1.00  0.00    -0.195 A  
ENDBRANCH  12  13
ENDBRANCH   6  12
ENDBRANCH   5   6
ENDBRANCH   4   5
ENDBRANCH   2   4
TORSDOF 6
ENDMDL
MODEL      161
REMARK 921   NORMALIZED FREE ENERGY PREDICTED BY IDOCK:   -3.93 KCAL/MOL
REMARK 922        TOTAL FREE ENERGY PREDICTED BY IDOCK:   -6.21 KCAL/MOL
REMARK 923 INTER-LIGAND FREE ENERGY PREDICTED BY IDOCK:   -6.29 KCAL/MOL
REMARK 924 INTRA-LIGAND FREE ENERGY PREDICTED BY IDOCK:    0.08 KCAL/MOL
REMARK 927      BINDING AFFINITY PREDICTED BY RF-SCORE:    0.00 PKD
ROOT
HETATM    1  C   UNL     1      -9.835  10.868  68.549  1.00  0.00    -0.184 C  
HETATM    2  N   UNL     1     -10.171  12.234  68.944  1.00  0.00    -0.421 NA 
HETATM    3  H   UNL     1      -9.488  12.906  68.595  1.00  0.00     0.000 HD 
ENDROOT
BRANCH   2   4
HETATM    4  C   UNL     1     -11.534  12.581  68.524  1.00  0.00    -0.305 C  
BRANCH   4   5
HETATM    5  C   UNL     1     -11.649  13.986  67.908  1.00  0.00    -0.377 C  
BRANCH   5   6
HETATM    6  C   UNL     1     -10.702  14.309  66.739  1.00  0.00    -0.287 C  
BRANCH   6   7
HETATM    7  C   UNL     1     -10.965  13.438  65.524  1.00  0.00    -0.283 A  
HETATM    8  C   UNL     1     -11.978  12.443  63.494  1.00  0.00    -0.538 A  
HETATM    9  S   UNL     1     -12.375  13.707  64.572  1.00  0.00    -0.323 SA 
HETATM   10  C   UNL     1     -10.230  12.377  65.024  1.00  0.00    -0.306 A  
HETATM   11  C   UNL     1     -10.812  11.807  63.852  1.00  0.00    -0.468 A  
ENDBRANCH   6   7
BRANCH   6  12
HETATM   12  O   UNL     1     -10.911  15.682  66.310  1.00  0.00    -0.315 OA 
BRANCH  12  13
HETATM   13  C   UNL     1     -10.175  16.659  66.951  1.00  0.00    -0.291 A  
HETATM   14  C   UNL     1      -9.955  18.891  67.883  1.00  0.00    -0.408 A  
HETATM   15  C   UNL     1     -10.728  17.901  67.287  1.00  0.00    -0.278 A  
HETATM   16  C   UNL     1      -8.617  18.645  68.171  1.00  0.00    -0.332 A  
HETATM   17  C   UNL     1      -8.048  17.394  67.914  1.00  0.00    -0.220 A  
HETATM   18  C   UNL     1      -6.705  17.165  68.250  1.00  0.00    -0.167 A  
HETATM   19  C   UNL     1      -6.118  15.918  68.058  1.00  0.00    -0.145 A  
HETATM   20  C   UNL     1      -6.876  14.882  67.525  1.00  0.00    -0.189 A  
HETATM   21  C   UNL     1      -8.211  15.102  67.156  1.00  0.00    -0.251 A  
HETATM   22  C   UNL     1      -8.830  16.365  67.324  1.00  0.00    -0.203 A  
ENDBRANCH  12  13
ENDBRANCH   6  12
ENDBRANCH   5   6
ENDBRANCH   4   5
ENDBRANCH   2   4
TORSDOF 6
ENDMDL
MODEL      162
REMARK 921   NORMALIZED FREE ENERGY PREDICTED BY IDOCK:   -3.93 KCAL/MOL
REMARK 922        TOTAL FREE ENERGY PREDICTED BY IDOCK:   -6.20 KCAL/MOL
REMARK 923 INTER-LIGAND FREE ENERGY PREDICTED BY IDOCK:   -5.48 KCAL/MOL
REMARK 924 INTRA-LIGAND FREE ENERGY PREDICTED BY IDOCK:   -0.72 KCAL/MOL
REMARK 927      BINDING AFFINITY PREDICTED BY RF-SCORE:    0.00 PKD
ROOT
HETATM    1  C   UNL     1     -12.383  13.753  65.714  1.00  0.00    -0.486 C  
HETATM    2  N   UNL     1     -11.823  12.748  66.615  1.00  0.00    -0.409 NA 
HETATM    3  H   UNL     1     -12.487  11.997  66.802  1.00  0.00     0.000 HD 
ENDROOT
BRANCH   2   4
HETATM    4  C   UNL     1     -10.551  12.230  66.098  1.00  0.00    -0.249 C  
BRANCH   4   5
HETATM    5  C   UNL     1     -10.702  10.936  65.280  1.00  0.00    -0.194 C  
BRANCH   5   6
HETATM    6  C   UNL     1      -9.898   9.715  65.760  1.00  0.00    -0.302 C  
BRANCH   6   7
HETATM    7  C   UNL     1      -8.421   9.829  65.427  1.00  0.00    -0.145 A  
HETATM    8  C   UNL     1      -6.217   9.611  64.319  1.00  0.00    -0.103 A  
HETATM    9  S   UNL     1      -7.804   9.059  64.015  1.00  0.00    -0.141 SA 
HETATM   10  C   UNL     1      -7.408  10.469  66.120  1.00  0.00    -0.136 A  
HETATM   11  C   UNL     1      -6.140  10.347  65.479  1.00  0.00    -0.123 A  
ENDBRANCH   6   7
BRANCH   6  12
HETATM   12  O   UNL     1      -9.985   9.614  67.207  1.00  0.00    -0.175 OA 
BRANCH  12  13
HETATM   13  C   UNL     1     -10.259   8.369  67.735  1.00  0.00    -0.224 A  
HETATM   14  C   UNL     1     -10.779   6.011  67.472  1.00  0.00    -0.383 A  
HETATM   15  C   UNL     1     -10.450   7.245  66.922  1.00  0.00    -0.369 A  
HETATM   16  C   UNL     1     -10.902   5.878  68.850  1.00  0.00    -0.373 A  
HETATM   17  C   UNL     1     -10.650   6.960  69.699  1.00  0.00    -0.258 A  
HETATM   18  C   UNL     1     -10.746   6.784  71.087  1.00  0.00    -0.261 A  
HETATM   19  C   UNL     1     -10.452   7.823  71.966  1.00  0.00    -0.277 A  
HETATM   20  C   UNL     1     -10.056   9.054  71.459  1.00  0.00    -0.409 A  
HETATM   21  C   UNL     1      -9.984   9.256  70.072  1.00  0.00    -0.238 A  
HETATM   22  C   UNL     1     -10.293   8.223  69.154  1.00  0.00    -0.225 A  
ENDBRANCH  12  13
ENDBRANCH   6  12
ENDBRANCH   5   6
ENDBRANCH   4   5
ENDBRANCH   2   4
TORSDOF 6
ENDMDL
MODEL      163
REMARK 921   NORMALIZED FREE ENERGY PREDICTED BY IDOCK:   -3.92 KCAL/MOL
REMARK 922        TOTAL FREE ENERGY PREDICTED BY IDOCK:   -6.20 KCAL/MOL
REMARK 923 INTER-LIGAND FREE ENERGY PREDICTED BY IDOCK:   -5.80 KCAL/MOL
REMARK 924 INTRA-LIGAND FREE ENERGY PREDICTED BY IDOCK:   -0.39 KCAL/MOL
REMARK 927      BINDING AFFINITY PREDICTED BY RF-SCORE:    0.00 PKD
ROOT
HETATM    1  C   UNL     1      -7.267  12.221  67.385  1.00  0.00    -0.147 C  
HETATM    2  N   UNL     1      -6.945  11.598  68.668  1.00  0.00    -0.081 NA 
HETATM    3  H   UNL     1      -7.236  12.181  69.453  1.00  0.00     0.000 HD 
ENDROOT
BRANCH   2   4
HETATM    4  C   UNL     1      -7.517  10.250  68.754  1.00  0.00    -0.089 C  
BRANCH   4   5
HETATM    5  C   UNL     1      -8.752  10.163  69.667  1.00  0.00    -0.176 C  
BRANCH   5   6
HETATM    6  C   UNL     1      -9.568   8.860  69.606  1.00  0.00    -0.169 C  
BRANCH   6   7
HETATM    7  C   UNL     1      -9.947   8.351  70.985  1.00  0.00    -0.190 A  
HETATM    8  C   UNL     1     -11.187   7.369  72.892  1.00  0.00    -0.319 A  
HETATM    9  S   UNL     1     -11.514   7.685  71.245  1.00  0.00    -0.275 SA 
HETATM   10  C   UNL     1      -9.211   8.347  72.157  1.00  0.00    -0.313 A  
HETATM   11  C   UNL     1      -9.924   7.777  73.254  1.00  0.00    -0.370 A  
ENDBRANCH   6   7
BRANCH   6  12
HETATM   12  O   UNL     1     -10.816   9.101  68.902  1.00  0.00    -0.178 OA 
BRANCH  12  13
HETATM   13  C   UNL     1     -11.084  10.401  68.524  1.00  0.00    -0.266 A  
HETATM   14  C   UNL     1     -11.863  12.647  69.023  1.00  0.00    -0.341 A  
HETATM   15  C   UNL     1     -11.546  11.357  69.437  1.00  0.00    -0.391 A  
HETATM   16  C   UNL     1     -11.700  13.006  67.690  1.00  0.00    -0.415 A  
HETATM   17  C   UNL     1     -11.175  12.101  66.763  1.00  0.00    -0.375 A  
HETATM   18  C   UNL     1     -10.988  12.505  65.433  1.00  0.00    -0.329 A  
HETATM   19  C   UNL     1     -10.419  11.649  64.494  1.00  0.00    -0.359 A  
HETATM   20  C   UNL     1     -10.029  10.373  64.882  1.00  0.00    -0.409 A  
HETATM   21  C   UNL     1     -10.236   9.942  66.201  1.00  0.00    -0.277 A  
HETATM   22  C   UNL     1     -10.828  10.784  67.174  1.00  0.00    -0.335 A  
ENDBRANCH  12  13
ENDBRANCH   6  12
ENDBRANCH   5   6
ENDBRANCH   4   5
ENDBRANCH   2   4
TORSDOF 6
ENDMDL
MODEL      164
REMARK 921   NORMALIZED FREE ENERGY PREDICTED BY IDOCK:   -3.92 KCAL/MOL
REMARK 922        TOTAL FREE ENERGY PREDICTED BY IDOCK:   -6.20 KCAL/MOL
REMARK 923 INTER-LIGAND FREE ENERGY PREDICTED BY IDOCK:   -5.63 KCAL/MOL
REMARK 924 INTRA-LIGAND FREE ENERGY PREDICTED BY IDOCK:   -0.56 KCAL/MOL
REMARK 927      BINDING AFFINITY PREDICTED BY RF-SCORE:    0.00 PKD
ROOT
HETATM    1  C   UNL     1      -7.993  12.918  67.939  1.00  0.00    -0.156 C  
HETATM    2  N   UNL     1      -7.163  12.256  66.934  1.00  0.00    -0.369 NA 
HETATM    3  H   UNL     1      -6.169  12.418  67.101  1.00  0.00     0.000 HD 
ENDROOT
BRANCH   2   4
HETATM    4  C   UNL     1      -7.473  10.824  66.859  1.00  0.00    -0.120 C  
BRANCH   4   5
HETATM    5  C   UNL     1      -8.401  10.335  67.983  1.00  0.00    -0.114 C  
BRANCH   5   6
HETATM    6  C   UNL     1      -9.190   9.042  67.717  1.00  0.00    -0.140 C  
BRANCH   6   7
HETATM    7  C   UNL     1      -9.273   8.152  68.944  1.00  0.00    -0.147 A  
HETATM    8  C   UNL     1      -8.735   6.953  71.044  1.00  0.00    -0.136 A  
HETATM    9  S   UNL     1      -7.925   8.045  70.011  1.00  0.00    -0.108 SA 
HETATM   10  C   UNL     1     -10.305   7.337  69.374  1.00  0.00    -0.212 A  
HETATM   11  C   UNL     1      -9.997   6.650  70.586  1.00  0.00    -0.201 A  
ENDBRANCH   6   7
BRANCH   6  12
HETATM   12  O   UNL     1     -10.559   9.373  67.360  1.00  0.00    -0.265 OA 
BRANCH  12  13
HETATM   13  C   UNL     1     -11.005  10.640  67.683  1.00  0.00    -0.310 A  
HETATM   14  C   UNL     1     -11.768  12.279  69.303  1.00  0.00    -0.388 A  
HETATM   15  C   UNL     1     -11.268  11.017  69.006  1.00  0.00    -0.320 A  
HETATM   16  C   UNL     1     -11.994  13.194  68.281  1.00  0.00    -0.328 A  
HETATM   17  C   UNL     1     -11.678  12.878  66.956  1.00  0.00    -0.447 A  
HETATM   18  C   UNL     1     -11.883  13.836  65.951  1.00  0.00    -0.405 A  
HETATM   19  C   UNL     1     -11.533  13.577  64.629  1.00  0.00    -0.381 A  
HETATM   20  C   UNL     1     -10.969  12.351  64.300  1.00  0.00    -0.396 A  
HETATM   21  C   UNL     1     -10.785  11.371  65.287  1.00  0.00    -0.326 A  
HETATM   22  C   UNL     1     -11.147  11.599  66.637  1.00  0.00    -0.364 A  
ENDBRANCH  12  13
ENDBRANCH   6  12
ENDBRANCH   5   6
ENDBRANCH   4   5
ENDBRANCH   2   4
TORSDOF 6
ENDMDL
MODEL      165
REMARK 921   NORMALIZED FREE ENERGY PREDICTED BY IDOCK:   -3.92 KCAL/MOL
REMARK 922        TOTAL FREE ENERGY PREDICTED BY IDOCK:   -6.20 KCAL/MOL
REMARK 923 INTER-LIGAND FREE ENERGY PREDICTED BY IDOCK:   -5.39 KCAL/MOL
REMARK 924 INTRA-LIGAND FREE ENERGY PREDICTED BY IDOCK:   -0.81 KCAL/MOL
REMARK 927      BINDING AFFINITY PREDICTED BY RF-SCORE:    0.00 PKD
ROOT
HETATM    1  C   UNL     1      -9.977   8.699  67.439  1.00  0.00    -0.210 C  
HETATM    2  N   UNL     1      -9.339  10.011  67.539  1.00  0.00    -0.143 NA 
HETATM    3  H   UNL     1      -9.228  10.447  66.624  1.00  0.00     0.000 HD 
ENDROOT
BRANCH   2   4
HETATM    4  C   UNL     1     -10.072  10.880  68.467  1.00  0.00    -0.183 C  
BRANCH   4   5
HETATM    5  C   UNL     1     -10.982  11.901  67.765  1.00  0.00    -0.278 C  
BRANCH   5   6
HETATM    6  C   UNL     1     -10.286  13.034  66.992  1.00  0.00    -0.245 C  
BRANCH   6   7
HETATM    7  C   UNL     1     -11.052  13.441  65.747  1.00  0.00    -0.282 A  
HETATM    8  C   UNL     1     -12.401  13.388  63.670  1.00  0.00    -0.351 A  
HETATM    9  S   UNL     1     -11.790  12.232  64.767  1.00  0.00    -0.343 SA 
HETATM   10  C   UNL     1     -11.259  14.700  65.211  1.00  0.00    -0.358 A  
HETATM   11  C   UNL     1     -12.040  14.670  64.017  1.00  0.00    -0.229 A  
ENDBRANCH   6   7
BRANCH   6  12
HETATM   12  O   UNL     1     -10.208  14.218  67.830  1.00  0.00    -0.231 OA 
BRANCH  12  13
HETATM   13  C   UNL     1      -9.006  14.898  67.849  1.00  0.00    -0.177 A  
HETATM   14  C   UNL     1      -6.581  14.940  67.729  1.00  0.00    -0.187 A  
HETATM   15  C   UNL     1      -7.783  14.246  67.651  1.00  0.00    -0.190 A  
HETATM   16  C   UNL     1      -6.586  16.307  67.985  1.00  0.00    -0.145 A  
HETATM   17  C   UNL     1      -7.790  17.006  68.119  1.00  0.00    -0.196 A  
HETATM   18  C   UNL     1      -7.762  18.390  68.340  1.00  0.00    -0.314 A  
HETATM   19  C   UNL     1      -8.939  19.129  68.426  1.00  0.00    -0.392 A  
HETATM   20  C   UNL     1     -10.161  18.483  68.289  1.00  0.00    -0.412 A  
HETATM   21  C   UNL     1     -10.208  17.094  68.097  1.00  0.00    -0.332 A  
HETATM   22  C   UNL     1      -9.028  16.314  68.022  1.00  0.00    -0.187 A  
ENDBRANCH  12  13
ENDBRANCH   6  12
ENDBRANCH   5   6
ENDBRANCH   4   5
ENDBRANCH   2   4
TORSDOF 6
ENDMDL
MODEL      166
REMARK 921   NORMALIZED FREE ENERGY PREDICTED BY IDOCK:   -3.91 KCAL/MOL
REMARK 922        TOTAL FREE ENERGY PREDICTED BY IDOCK:   -6.18 KCAL/MOL
REMARK 923 INTER-LIGAND FREE ENERGY PREDICTED BY IDOCK:   -5.47 KCAL/MOL
REMARK 924 INTRA-LIGAND FREE ENERGY PREDICTED BY IDOCK:   -0.71 KCAL/MOL
REMARK 927      BINDING AFFINITY PREDICTED BY RF-SCORE:    0.00 PKD
ROOT
HETATM    1  C   UNL     1      -6.596   7.691  68.451  1.00  0.00    -0.054 C  
HETATM    2  N   UNL     1      -6.783   8.985  67.798  1.00  0.00    -0.065 NA 
HETATM    3  H   UNL     1      -6.296   9.029  66.903  1.00  0.00     0.000 HD 
ENDROOT
BRANCH   2   4
HETATM    4  C   UNL     1      -8.209   9.299  67.654  1.00  0.00    -0.115 C  
BRANCH   4   5
HETATM    5  C   UNL     1      -8.649  10.539  68.450  1.00  0.00    -0.132 C  
BRANCH   5   6
HETATM    6  C   UNL     1     -10.157  10.699  68.707  1.00  0.00    -0.191 C  
BRANCH   6   7
HETATM    7  C   UNL     1     -10.601  10.023  69.992  1.00  0.00    -0.293 A  
HETATM    8  C   UNL     1     -11.924   9.307  71.959  1.00  0.00    -0.321 A  
HETATM    9  S   UNL     1     -12.162  10.360  70.636  1.00  0.00    -0.368 SA 
HETATM   10  C   UNL     1      -9.914   9.139  70.805  1.00  0.00    -0.334 A  
HETATM   11  C   UNL     1     -10.678   8.723  71.936  1.00  0.00    -0.429 A  
ENDBRANCH   6   7
BRANCH   6  12
HETATM   12  O   UNL     1     -10.479  12.109  68.854  1.00  0.00    -0.199 OA 
BRANCH  12  13
HETATM   13  C   UNL     1     -10.777  12.810  67.703  1.00  0.00    -0.219 A  
HETATM   14  C   UNL     1     -11.843  12.977  65.527  1.00  0.00    -0.438 A  
HETATM   15  C   UNL     1     -11.600  12.276  66.703  1.00  0.00    -0.438 A  
HETATM   16  C   UNL     1     -11.281  14.236  65.342  1.00  0.00    -0.329 A  
HETATM   17  C   UNL     1     -10.512  14.831  66.346  1.00  0.00    -0.294 A  
HETATM   18  C   UNL     1      -9.990  16.117  66.145  1.00  0.00    -0.357 A  
HETATM   19  C   UNL     1      -9.263  16.763  67.141  1.00  0.00    -0.233 A  
HETATM   20  C   UNL     1      -9.053  16.123  68.356  1.00  0.00    -0.199 A  
HETATM   21  C   UNL     1      -9.542  14.825  68.564  1.00  0.00    -0.218 A  
HETATM   22  C   UNL     1     -10.270  14.136  67.563  1.00  0.00    -0.241 A  
ENDBRANCH  12  13
ENDBRANCH   6  12
ENDBRANCH   5   6
ENDBRANCH   4   5
ENDBRANCH   2   4
TORSDOF 6
ENDMDL
MODEL      167
REMARK 921   NORMALIZED FREE ENERGY PREDICTED BY IDOCK:   -3.85 KCAL/MOL
REMARK 922        TOTAL FREE ENERGY PREDICTED BY IDOCK:   -6.10 KCAL/MOL
REMARK 923 INTER-LIGAND FREE ENERGY PREDICTED BY IDOCK:   -5.28 KCAL/MOL
REMARK 924 INTRA-LIGAND FREE ENERGY PREDICTED BY IDOCK:   -0.81 KCAL/MOL
REMARK 927      BINDING AFFINITY PREDICTED BY RF-SCORE:    0.00 PKD
ROOT
HETATM    1  C   UNL     1      -6.491   6.444  73.847  1.00  0.00    -0.070 C  
HETATM    2  N   UNL     1      -7.591   7.246  74.379  1.00  0.00    -0.122 NA 
HETATM    3  H   UNL     1      -7.252   8.069  74.877  1.00  0.00     0.000 HD 
ENDROOT
BRANCH   2   4
HETATM    4  C   UNL     1      -8.537   7.608  73.317  1.00  0.00    -0.177 C  
BRANCH   4   5
HETATM    5  C   UNL     1      -9.965   7.093  73.563  1.00  0.00    -0.344 C  
BRANCH   5   6
HETATM    6  C   UNL     1     -10.772   6.669  72.324  1.00  0.00    -0.221 C  
BRANCH   6   7
HETATM    7  C   UNL     1     -11.924   7.614  72.033  1.00  0.00    -0.302 A  
HETATM    8  C   UNL     1     -13.255   9.624  71.466  1.00  0.00    -0.399 A  
HETATM    9  S   UNL     1     -11.597   9.260  71.646  1.00  0.00    -0.398 SA 
HETATM   10  C   UNL     1     -13.286   7.373  72.045  1.00  0.00    -0.186 A  
HETATM   11  C   UNL     1     -14.053   8.530  71.714  1.00  0.00    -0.515 A  
ENDBRANCH   6   7
BRANCH   6  12
HETATM   12  O   UNL     1      -9.914   6.696  71.152  1.00  0.00    -0.182 OA 
BRANCH  12  13
HETATM   13  C   UNL     1      -9.762   5.514  70.455  1.00  0.00    -0.183 A  
HETATM   14  C   UNL     1      -9.256   3.140  70.373  1.00  0.00    -0.215 A  
HETATM   15  C   UNL     1      -9.457   4.308  71.099  1.00  0.00    -0.233 A  
HETATM   16  C   UNL     1      -9.378   3.156  68.988  1.00  0.00    -0.230 A  
HETATM   17  C   UNL     1      -9.750   4.324  68.315  1.00  0.00    -0.162 A  
HETATM   18  C   UNL     1      -9.901   4.299  66.921  1.00  0.00    -0.224 A  
HETATM   19  C   UNL     1     -10.321   5.428  66.222  1.00  0.00    -0.251 A  
HETATM   20  C   UNL     1     -10.596   6.598  66.919  1.00  0.00    -0.376 A  
HETATM   21  C   UNL     1     -10.421   6.649  68.310  1.00  0.00    -0.249 A  
HETATM   22  C   UNL     1      -9.980   5.522  69.045  1.00  0.00    -0.244 A  
ENDBRANCH  12  13
ENDBRANCH   6  12
ENDBRANCH   5   6
ENDBRANCH   4   5
ENDBRANCH   2   4
TORSDOF 6
ENDMDL
MODEL      168
REMARK 921   NORMALIZED FREE ENERGY PREDICTED BY IDOCK:   -3.85 KCAL/MOL
REMARK 922        TOTAL FREE ENERGY PREDICTED BY IDOCK:   -6.10 KCAL/MOL
REMARK 923 INTER-LIGAND FREE ENERGY PREDICTED BY IDOCK:   -5.46 KCAL/MOL
REMARK 924 INTRA-LIGAND FREE ENERGY PREDICTED BY IDOCK:   -0.64 KCAL/MOL
REMARK 927      BINDING AFFINITY PREDICTED BY RF-SCORE:    0.00 PKD
ROOT
HETATM    1  C   UNL     1      -7.413  10.034  65.541  1.00  0.00    -0.137 C  
HETATM    2  N   UNL     1      -8.753   9.618  65.129  1.00  0.00    -0.154 NA 
HETATM    3  H   UNL     1      -8.719   8.949  64.361  1.00  0.00     0.000 HD 
ENDROOT
BRANCH   2   4
HETATM    4  C   UNL     1      -9.514   9.096  66.270  1.00  0.00    -0.237 C  
BRANCH   4   5
HETATM    5  C   UNL     1      -8.753   9.174  67.604  1.00  0.00    -0.120 C  
BRANCH   5   6
HETATM    6  C   UNL     1      -9.191  10.273  68.588  1.00  0.00    -0.159 C  
BRANCH   6   7
HETATM    7  C   UNL     1      -8.519  11.605  68.304  1.00  0.00    -0.160 A  
HETATM    8  C   UNL     1      -8.030  13.880  67.457  1.00  0.00    -0.179 A  
HETATM    9  S   UNL     1      -9.307  12.757  67.295  1.00  0.00    -0.207 SA 
HETATM   10  C   UNL     1      -7.290  12.080  68.725  1.00  0.00    -0.098 A  
HETATM   11  C   UNL     1      -7.011  13.392  68.241  1.00  0.00    -0.108 A  
ENDBRANCH   6   7
BRANCH   6  12
HETATM   12  O   UNL     1     -10.620  10.500  68.459  1.00  0.00    -0.182 OA 
BRANCH  12  13
HETATM   13  C   UNL     1     -11.391  10.322  69.591  1.00  0.00    -0.257 A  
HETATM   14  C   UNL     1     -12.452   8.891  71.241  1.00  0.00    -0.321 A  
HETATM   15  C   UNL     1     -11.629   9.053  70.132  1.00  0.00    -0.007 A  
HETATM   16  C   UNL     1     -13.034  10.003  71.839  1.00  0.00    -0.547 A  
HETATM   17  C   UNL     1     -12.764  11.292  71.371  1.00  0.00    -0.501 A  
HETATM   18  C   UNL     1     -13.337  12.396  72.019  1.00  0.00    -0.511 A  
HETATM   19  C   UNL     1     -13.050  13.697  71.614  1.00  0.00    -0.455 A  
HETATM   20  C   UNL     1     -12.180  13.904  70.551  1.00  0.00    -0.443 A  
HETATM   21  C   UNL     1     -11.622  12.811  69.872  1.00  0.00    -0.243 A  
HETATM   22  C   UNL     1     -11.908  11.476  70.250  1.00  0.00    -0.431 A  
ENDBRANCH  12  13
ENDBRANCH   6  12
ENDBRANCH   5   6
ENDBRANCH   4   5
ENDBRANCH   2   4
TORSDOF 6
ENDMDL
MODEL      169
REMARK 921   NORMALIZED FREE ENERGY PREDICTED BY IDOCK:   -3.85 KCAL/MOL
REMARK 922        TOTAL FREE ENERGY PREDICTED BY IDOCK:   -6.10 KCAL/MOL
REMARK 923 INTER-LIGAND FREE ENERGY PREDICTED BY IDOCK:   -5.44 KCAL/MOL
REMARK 924 INTRA-LIGAND FREE ENERGY PREDICTED BY IDOCK:   -0.66 KCAL/MOL
REMARK 927      BINDING AFFINITY PREDICTED BY RF-SCORE:    0.00 PKD
ROOT
HETATM    1  C   UNL     1      -6.054  11.893  66.968  1.00  0.00    -0.149 C  
HETATM    2  N   UNL     1      -6.579  12.435  68.220  1.00  0.00    -0.058 NA 
HETATM    3  H   UNL     1      -5.843  12.860  68.784  1.00  0.00     0.000 HD 
ENDROOT
BRANCH   2   4
HETATM    4  C   UNL     1      -7.678  13.373  67.966  1.00  0.00    -0.147 C  
BRANCH   4   5
HETATM    5  C   UNL     1      -9.065  12.804  68.307  1.00  0.00    -0.180 C  
BRANCH   5   6
HETATM    6  C   UNL     1      -9.881  12.221  67.140  1.00  0.00    -0.203 C  
BRANCH   6   7
HETATM    7  C   UNL     1      -9.582  10.752  66.902  1.00  0.00    -0.171 A  
HETATM    8  C   UNL     1      -9.010   8.365  67.232  1.00  0.00    -0.130 A  
HETATM    9  S   UNL     1      -9.187   9.736  68.235  1.00  0.00    -0.129 SA 
HETATM   10  C   UNL     1      -9.548  10.041  65.715  1.00  0.00    -0.291 A  
HETATM   11  C   UNL     1      -9.223   8.665  65.906  1.00  0.00    -0.264 A  
ENDBRANCH   6   7
BRANCH   6  12
HETATM   12  O   UNL     1     -11.298  12.305  67.449  1.00  0.00    -0.283 OA 
BRANCH  12  13
HETATM   13  C   UNL     1     -11.689  13.271  68.355  1.00  0.00    -0.354 A  
HETATM   14  C   UNL     1     -12.066  15.591  68.965  1.00  0.00    -0.246 A  
HETATM   15  C   UNL     1     -11.722  14.630  68.021  1.00  0.00    -0.371 A  
HETATM   16  C   UNL     1     -12.404  15.203  70.257  1.00  0.00    -0.398 A  
HETATM   17  C   UNL     1     -12.451  13.851  70.609  1.00  0.00    -0.436 A  
HETATM   18  C   UNL     1     -12.832  13.489  71.909  1.00  0.00    -0.368 A  
HETATM   19  C   UNL     1     -12.940  12.152  72.282  1.00  0.00    -0.091 A  
HETATM   20  C   UNL     1     -12.668  11.160  71.349  1.00  0.00    -0.524 A  
HETATM   21  C   UNL     1     -12.257  11.503  70.052  1.00  0.00    -0.354 A  
HETATM   22  C   UNL     1     -12.121  12.855  69.649  1.00  0.00    -0.290 A  
ENDBRANCH  12  13
ENDBRANCH   6  12
ENDBRANCH   5   6
ENDBRANCH   4   5
ENDBRANCH   2   4
TORSDOF 6
ENDMDL
MODEL      170
REMARK 921   NORMALIZED FREE ENERGY PREDICTED BY IDOCK:   -3.85 KCAL/MOL
REMARK 922        TOTAL FREE ENERGY PREDICTED BY IDOCK:   -6.09 KCAL/MOL
REMARK 923 INTER-LIGAND FREE ENERGY PREDICTED BY IDOCK:   -5.25 KCAL/MOL
REMARK 924 INTRA-LIGAND FREE ENERGY PREDICTED BY IDOCK:   -0.84 KCAL/MOL
REMARK 927      BINDING AFFINITY PREDICTED BY RF-SCORE:    0.00 PKD
ROOT
HETATM    1  C   UNL     1     -12.360   9.863  71.559  1.00  0.00    -0.412 C  
HETATM    2  N   UNL     1     -12.201  10.031  70.115  1.00  0.00    -0.488 NA 
HETATM    3  H   UNL     1     -13.093   9.957  69.627  1.00  0.00     0.000 HD 
ENDROOT
BRANCH   2   4
HETATM    4  C   UNL     1     -11.517  11.292  69.806  1.00  0.00    -0.310 C  
BRANCH   4   5
HETATM    5  C   UNL     1     -10.474  11.166  68.683  1.00  0.00    -0.220 C  
BRANCH   5   6
HETATM    6  C   UNL     1     -10.944  10.519  67.369  1.00  0.00    -0.288 C  
BRANCH   6   7
HETATM    7  C   UNL     1     -11.199  11.543  66.278  1.00  0.00    -0.222 A  
HETATM    8  C   UNL     1     -11.281  12.712  64.096  1.00  0.00    -0.386 A  
HETATM    9  S   UNL     1     -10.672  11.223  64.670  1.00  0.00    -0.269 SA 
HETATM   10  C   UNL     1     -11.805  12.785  66.359  1.00  0.00    -0.472 A  
HETATM   11  C   UNL     1     -11.855  13.456  65.101  1.00  0.00    -0.375 A  
ENDBRANCH   6   7
BRANCH   6  12
HETATM   12  O   UNL     1      -9.908   9.634  66.865  1.00  0.00    -0.178 OA 
BRANCH  12  13
HETATM   13  C   UNL     1      -9.846   8.365  67.406  1.00  0.00    -0.191 A  
HETATM   14  C   UNL     1     -10.799   6.164  67.787  1.00  0.00    -0.413 A  
HETATM   15  C   UNL     1     -10.854   7.418  67.189  1.00  0.00    -0.340 A  
HETATM   16  C   UNL     1      -9.719   5.830  68.597  1.00  0.00    -0.165 A  
HETATM   17  C   UNL     1      -8.659   6.723  68.781  1.00  0.00    -0.123 A  
HETATM   18  C   UNL     1      -7.566   6.343  69.574  1.00  0.00    -0.095 A  
HETATM   19  C   UNL     1      -6.469   7.184  69.738  1.00  0.00    -0.039 A  
HETATM   20  C   UNL     1      -6.456   8.420  69.103  1.00  0.00    -0.043 A  
HETATM   21  C   UNL     1      -7.554   8.829  68.331  1.00  0.00    -0.095 A  
HETATM   22  C   UNL     1      -8.691   8.002  68.160  1.00  0.00    -0.126 A  
ENDBRANCH  12  13
ENDBRANCH   6  12
ENDBRANCH   5   6
ENDBRANCH   4   5
ENDBRANCH   2   4
TORSDOF 6
ENDMDL
MODEL      171
REMARK 921   NORMALIZED FREE ENERGY PREDICTED BY IDOCK:   -3.85 KCAL/MOL
REMARK 922        TOTAL FREE ENERGY PREDICTED BY IDOCK:   -6.09 KCAL/MOL
REMARK 923 INTER-LIGAND FREE ENERGY PREDICTED BY IDOCK:   -5.33 KCAL/MOL
REMARK 924 INTRA-LIGAND FREE ENERGY PREDICTED BY IDOCK:   -0.76 KCAL/MOL
REMARK 927      BINDING AFFINITY PREDICTED BY RF-SCORE:    0.00 PKD
ROOT
HETATM    1  C   UNL     1      -8.936   2.568  70.651  1.00  0.00    -0.095 C  
HETATM    2  N   UNL     1      -9.374   2.753  72.034  1.00  0.00    -0.099 NA 
HETATM    3  H   UNL     1      -8.586   2.919  72.660  1.00  0.00     0.000 HD 
ENDROOT
BRANCH   2   4
HETATM    4  C   UNL     1     -10.374   3.822  72.128  1.00  0.00    -0.050 C  
BRANCH   4   5
HETATM    5  C   UNL     1     -10.055   5.043  71.249  1.00  0.00    -0.276 C  
BRANCH   5   6
HETATM    6  C   UNL     1     -10.381   6.426  71.838  1.00  0.00    -0.202 C  
BRANCH   6   7
HETATM    7  C   UNL     1      -9.231   6.995  72.649  1.00  0.00    -0.134 A  
HETATM    8  C   UNL     1      -6.972   7.488  73.537  1.00  0.00    -0.082 A  
HETATM    9  S   UNL     1      -7.621   6.482  72.319  1.00  0.00    -0.096 SA 
HETATM   10  C   UNL     1      -9.254   7.901  73.695  1.00  0.00    -0.320 A  
HETATM   11  C   UNL     1      -7.952   8.188  74.203  1.00  0.00    -0.305 A  
ENDBRANCH   6   7
BRANCH   6  12
HETATM   12  O   UNL     1     -10.626   7.368  70.759  1.00  0.00    -0.219 OA 
BRANCH  12  13
HETATM   13  C   UNL     1     -11.467   8.429  71.029  1.00  0.00    -0.268 A  
HETATM   14  C   UNL     1     -13.393   9.386  72.157  1.00  0.00    -0.545 A  
HETATM   15  C   UNL     1     -12.525   8.322  71.941  1.00  0.00    -0.376 A  
HETATM   16  C   UNL     1     -13.203  10.585  71.478  1.00  0.00    -0.470 A  
HETATM   17  C   UNL     1     -12.117  10.753  70.613  1.00  0.00    -0.467 A  
HETATM   18  C   UNL     1     -11.931  11.986  69.971  1.00  0.00    -0.400 A  
HETATM   19  C   UNL     1     -10.834  12.208  69.143  1.00  0.00    -0.165 A  
HETATM   20  C   UNL     1      -9.907  11.191  68.952  1.00  0.00    -0.176 A  
HETATM   21  C   UNL     1     -10.094   9.942  69.562  1.00  0.00    -0.240 A  
HETATM   22  C   UNL     1     -11.209   9.681  70.396  1.00  0.00    -0.342 A  
ENDBRANCH  12  13
ENDBRANCH   6  12
ENDBRANCH   5   6
ENDBRANCH   4   5
ENDBRANCH   2   4
TORSDOF 6
ENDMDL
MODEL      172
REMARK 921   NORMALIZED FREE ENERGY PREDICTED BY IDOCK:   -3.83 KCAL/MOL
REMARK 922        TOTAL FREE ENERGY PREDICTED BY IDOCK:   -6.08 KCAL/MOL
REMARK 923 INTER-LIGAND FREE ENERGY PREDICTED BY IDOCK:   -5.54 KCAL/MOL
REMARK 924 INTRA-LIGAND FREE ENERGY PREDICTED BY IDOCK:   -0.54 KCAL/MOL
REMARK 927      BINDING AFFINITY PREDICTED BY RF-SCORE:    0.00 PKD
ROOT
HETATM    1  C   UNL     1      -8.459   4.950  65.054  1.00  0.00    -0.142 C  
HETATM    2  N   UNL     1      -9.877   4.633  65.208  1.00  0.00    -0.302 NA 
HETATM    3  H   UNL     1     -10.031   3.629  65.302  1.00  0.00     0.000 HD 
ENDROOT
BRANCH   2   4
HETATM    4  C   UNL     1     -10.462   5.376  66.330  1.00  0.00    -0.267 C  
BRANCH   4   5
HETATM    5  C   UNL     1      -9.755   6.712  66.617  1.00  0.00    -0.210 C  
BRANCH   5   6
HETATM    6  C   UNL     1     -10.272   7.526  67.816  1.00  0.00    -0.201 C  
BRANCH   6   7
HETATM    7  C   UNL     1      -9.908   6.891  69.146  1.00  0.00    -0.156 A  
HETATM    8  C   UNL     1     -10.015   5.670  71.299  1.00  0.00    -0.195 A  
HETATM    9  S   UNL     1     -11.116   6.063  70.053  1.00  0.00    -0.348 SA 
HETATM   10  C   UNL     1      -8.697   6.879  69.815  1.00  0.00    -0.141 A  
HETATM   11  C   UNL     1      -8.758   6.172  71.053  1.00  0.00    -0.132 A  
ENDBRANCH   6   7
BRANCH   6  12
HETATM   12  O   UNL     1      -9.659   8.843  67.810  1.00  0.00    -0.142 OA 
BRANCH  12  13
HETATM   13  C   UNL     1     -10.418   9.893  68.289  1.00  0.00    -0.210 A  
HETATM   14  C   UNL     1     -11.696  10.965  70.053  1.00  0.00    -0.427 A  
HETATM   15  C   UNL     1     -10.888   9.925  69.607  1.00  0.00    -0.281 A  
HETATM   16  C   UNL     1     -12.029  12.003  69.189  1.00  0.00    -0.326 A  
HETATM   17  C   UNL     1     -11.521  12.041  67.887  1.00  0.00    -0.396 A  
HETATM   18  C   UNL     1     -11.845  13.121  67.052  1.00  0.00    -0.435 A  
HETATM   19  C   UNL     1     -11.317  13.220  65.768  1.00  0.00    -0.328 A  
HETATM   20  C   UNL     1     -10.453  12.235  65.307  1.00  0.00    -0.315 A  
HETATM   21  C   UNL     1     -10.142  11.133  66.118  1.00  0.00    -0.284 A  
HETATM   22  C   UNL     1     -10.677  10.996  67.422  1.00  0.00    -0.303 A  
ENDBRANCH  12  13
ENDBRANCH   6  12
ENDBRANCH   5   6
ENDBRANCH   4   5
ENDBRANCH   2   4
TORSDOF 6
ENDMDL
MODEL      173
REMARK 921   NORMALIZED FREE ENERGY PREDICTED BY IDOCK:   -3.83 KCAL/MOL
REMARK 922        TOTAL FREE ENERGY PREDICTED BY IDOCK:   -6.07 KCAL/MOL
REMARK 923 INTER-LIGAND FREE ENERGY PREDICTED BY IDOCK:   -5.13 KCAL/MOL
REMARK 924 INTRA-LIGAND FREE ENERGY PREDICTED BY IDOCK:   -0.94 KCAL/MOL
REMARK 927      BINDING AFFINITY PREDICTED BY RF-SCORE:    0.00 PKD
ROOT
HETATM    1  C   UNL     1     -10.586   5.524  67.787  1.00  0.00    -0.154 C  
HETATM    2  N   UNL     1      -9.950   6.661  68.451  1.00  0.00    -0.141 NA 
HETATM    3  H   UNL     1      -9.188   6.363  69.060  1.00  0.00     0.000 HD 
ENDROOT
BRANCH   2   4
HETATM    4  C   UNL     1      -9.502   7.657  67.471  1.00  0.00    -0.140 C  
BRANCH   4   5
HETATM    5  C   UNL     1     -10.514   8.793  67.242  1.00  0.00    -0.353 C  
BRANCH   5   6
HETATM    6  C   UNL     1     -10.174  10.160  67.860  1.00  0.00    -0.180 C  
BRANCH   6   7
HETATM    7  C   UNL     1      -8.716  10.536  67.663  1.00  0.00    -0.121 A  
HETATM    8  C   UNL     1      -6.327  11.056  68.062  1.00  0.00    -0.057 A  
HETATM    9  S   UNL     1      -7.666  10.614  69.026  1.00  0.00    -0.138 SA 
HETATM   10  C   UNL     1      -8.041  10.873  66.503  1.00  0.00    -0.154 A  
HETATM   11  C   UNL     1      -6.664  11.167  66.732  1.00  0.00    -0.135 A  
ENDBRANCH   6   7
BRANCH   6  12
HETATM   12  O   UNL     1     -10.955  11.196  67.207  1.00  0.00    -0.263 OA 
BRANCH  12  13
HETATM   13  C   UNL     1     -11.196  12.350  67.926  1.00  0.00    -0.266 A  
HETATM   14  C   UNL     1     -12.002  13.492  69.912  1.00  0.00    -0.416 A  
HETATM   15  C   UNL     1     -11.716  12.317  69.226  1.00  0.00    -0.388 A  
HETATM   16  C   UNL     1     -11.751  14.722  69.314  1.00  0.00    -0.347 A  
HETATM   17  C   UNL     1     -11.168  14.795  68.045  1.00  0.00    -0.311 A  
HETATM   18  C   UNL     1     -10.893  16.051  67.484  1.00  0.00    -0.292 A  
HETATM   19  C   UNL     1     -10.266  16.164  66.246  1.00  0.00    -0.333 A  
HETATM   20  C   UNL     1      -9.904  15.013  65.557  1.00  0.00    -0.352 A  
HETATM   21  C   UNL     1     -10.198  13.750  66.090  1.00  0.00    -0.305 A  
HETATM   22  C   UNL     1     -10.851  13.603  67.339  1.00  0.00    -0.282 A  
ENDBRANCH  12  13
ENDBRANCH   6  12
ENDBRANCH   5   6
ENDBRANCH   4   5
ENDBRANCH   2   4
TORSDOF 6
ENDMDL
MODEL      174
REMARK 921   NORMALIZED FREE ENERGY PREDICTED BY IDOCK:   -3.83 KCAL/MOL
REMARK 922        TOTAL FREE ENERGY PREDICTED BY IDOCK:   -6.07 KCAL/MOL
REMARK 923 INTER-LIGAND FREE ENERGY PREDICTED BY IDOCK:   -5.38 KCAL/MOL
REMARK 924 INTRA-LIGAND FREE ENERGY PREDICTED BY IDOCK:   -0.69 KCAL/MOL
REMARK 927      BINDING AFFINITY PREDICTED BY RF-SCORE:    0.00 PKD
ROOT
HETATM    1  C   UNL     1      -9.961   9.273  71.123  1.00  0.00    -0.286 C  
HETATM    2  N   UNL     1     -10.907   9.930  70.224  1.00  0.00    -0.288 NA 
HETATM    3  H   UNL     1     -11.222  10.825  70.597  1.00  0.00     0.000 HD 
ENDROOT
BRANCH   2   4
HETATM    4  C   UNL     1     -10.338  10.075  68.879  1.00  0.00    -0.202 C  
BRANCH   4   5
HETATM    5  C   UNL     1     -11.039  11.147  68.027  1.00  0.00    -0.334 C  
BRANCH   5   6
HETATM    6  C   UNL     1     -10.135  12.057  67.178  1.00  0.00    -0.201 C  
BRANCH   6   7
HETATM    7  C   UNL     1     -10.016  11.577  65.742  1.00  0.00    -0.233 A  
HETATM    8  C   UNL     1     -10.183  11.409  63.277  1.00  0.00    -0.385 A  
HETATM    9  S   UNL     1     -10.696  12.518  64.470  1.00  0.00    -0.355 SA 
HETATM   10  C   UNL     1      -9.434  10.424  65.244  1.00  0.00    -0.290 A  
HETATM   11  C   UNL     1      -9.527  10.330  63.823  1.00  0.00    -0.352 A  
ENDBRANCH   6   7
BRANCH   6  12
HETATM   12  O   UNL     1     -10.709  13.391  67.116  1.00  0.00    -0.261 OA 
BRANCH  12  13
HETATM   13  C   UNL     1      -9.971  14.419  67.670  1.00  0.00    -0.224 A  
HETATM   14  C   UNL     1      -8.424  15.273  69.335  1.00  0.00    -0.231 A  
HETATM   15  C   UNL     1      -9.115  14.213  68.758  1.00  0.00    -0.071 A  
HETATM   16  C   UNL     1      -8.563  16.555  68.815  1.00  0.00    -0.262 A  
HETATM   17  C   UNL     1      -9.353  16.788  67.686  1.00  0.00    -0.228 A  
HETATM   18  C   UNL     1      -9.444  18.086  67.163  1.00  0.00    -0.264 A  
HETATM   19  C   UNL     1     -10.179  18.348  66.010  1.00  0.00    -0.354 A  
HETATM   20  C   UNL     1     -10.832  17.304  65.366  1.00  0.00    -0.024 A  
HETATM   21  C   UNL     1     -10.777  16.005  65.892  1.00  0.00    -0.287 A  
HETATM   22  C   UNL     1     -10.051  15.712  67.072  1.00  0.00    -0.253 A  
ENDBRANCH  12  13
ENDBRANCH   6  12
ENDBRANCH   5   6
ENDBRANCH   4   5
ENDBRANCH   2   4
TORSDOF 6
ENDMDL
MODEL      175
REMARK 921   NORMALIZED FREE ENERGY PREDICTED BY IDOCK:   -3.82 KCAL/MOL
REMARK 922        TOTAL FREE ENERGY PREDICTED BY IDOCK:   -6.06 KCAL/MOL
REMARK 923 INTER-LIGAND FREE ENERGY PREDICTED BY IDOCK:   -5.69 KCAL/MOL
REMARK 924 INTRA-LIGAND FREE ENERGY PREDICTED BY IDOCK:   -0.37 KCAL/MOL
REMARK 927      BINDING AFFINITY PREDICTED BY RF-SCORE:    0.00 PKD
ROOT
HETATM    1  C   UNL     1     -11.728  14.070  64.145  1.00  0.00    -0.315 C  
HETATM    2  N   UNL     1     -11.836  15.091  65.186  1.00  0.00    -0.254 NA 
HETATM    3  H   UNL     1     -12.093  14.686  66.086  1.00  0.00     0.000 HD 
ENDROOT
BRANCH   2   4
HETATM    4  C   UNL     1     -10.601  15.878  65.278  1.00  0.00    -0.419 C  
BRANCH   4   5
HETATM    5  C   UNL     1      -9.943  15.829  66.668  1.00  0.00    -0.268 C  
BRANCH   5   6
HETATM    6  C   UNL     1     -10.753  16.411  67.839  1.00  0.00    -0.332 C  
BRANCH   6   7
HETATM    7  C   UNL     1     -11.258  15.336  68.784  1.00  0.00    -0.287 A  
HETATM    8  C   UNL     1     -12.027  14.125  70.804  1.00  0.00    -0.306 A  
HETATM    9  S   UNL     1     -11.491  15.708  70.450  1.00  0.00    -0.390 SA 
HETATM   10  C   UNL     1     -11.565  14.011  68.529  1.00  0.00    -0.357 A  
HETATM   11  C   UNL     1     -12.012  13.315  69.691  1.00  0.00    -0.376 A  
ENDBRANCH   6   7
BRANCH   6  12
HETATM   12  O   UNL     1      -9.904  17.285  68.630  1.00  0.00    -0.283 OA 
BRANCH  12  13
HETATM   13  C   UNL     1      -8.539  17.131  68.490  1.00  0.00    -0.258 A  
HETATM   14  C   UNL     1      -6.478  15.917  68.911  1.00  0.00    -0.122 A  
HETATM   15  C   UNL     1      -7.861  16.025  69.016  1.00  0.00    -0.222 A  
HETATM   16  C   UNL     1      -5.754  16.907  68.257  1.00  0.00    -0.126 A  
HETATM   17  C   UNL     1      -6.403  17.991  67.658  1.00  0.00    -0.179 A  
HETATM   18  C   UNL     1      -5.647  18.955  66.973  1.00  0.00    -0.153 A  
HETATM   19  C   UNL     1      -6.262  20.020  66.320  1.00  0.00    -0.199 A  
HETATM   20  C   UNL     1      -7.647  20.128  66.346  1.00  0.00    -0.309 A  
HETATM   21  C   UNL     1      -8.415  19.190  67.051  1.00  0.00    -0.304 A  
HETATM   22  C   UNL     1      -7.817  18.106  67.739  1.00  0.00    -0.236 A  
ENDBRANCH  12  13
ENDBRANCH   6  12
ENDBRANCH   5   6
ENDBRANCH   4   5
ENDBRANCH   2   4
TORSDOF 6
ENDMDL
MODEL      176
REMARK 921   NORMALIZED FREE ENERGY PREDICTED BY IDOCK:   -3.82 KCAL/MOL
REMARK 922        TOTAL FREE ENERGY PREDICTED BY IDOCK:   -6.06 KCAL/MOL
REMARK 923 INTER-LIGAND FREE ENERGY PREDICTED BY IDOCK:   -6.07 KCAL/MOL
REMARK 924 INTRA-LIGAND FREE ENERGY PREDICTED BY IDOCK:    0.02 KCAL/MOL
REMARK 927      BINDING AFFINITY PREDICTED BY RF-SCORE:    0.00 PKD
ROOT
HETATM    1  C   UNL     1      -6.723   8.433  71.385  1.00  0.00    -0.063 C  
HETATM    2  N   UNL     1      -7.548   9.568  70.971  1.00  0.00    -0.325 NA 
HETATM    3  H   UNL     1      -7.015  10.437  70.961  1.00  0.00     0.000 HD 
ENDROOT
BRANCH   2   4
HETATM    4  C   UNL     1      -8.184   9.308  69.675  1.00  0.00    -0.126 C  
BRANCH   4   5
HETATM    5  C   UNL     1      -9.338  10.273  69.352  1.00  0.00    -0.217 C  
BRANCH   5   6
HETATM    6  C   UNL     1     -10.556   9.678  68.624  1.00  0.00    -0.217 C  
BRANCH   6   7
HETATM    7  C   UNL     1     -10.696   8.184  68.857  1.00  0.00    -0.064 A  
HETATM    8  C   UNL     1     -10.760   5.730  68.531  1.00  0.00    -0.217 A  
HETATM    9  S   UNL     1     -10.459   7.092  67.547  1.00  0.00    -0.285 SA 
HETATM   10  C   UNL     1     -11.025   7.500  70.014  1.00  0.00    -0.252 A  
HETATM   11  C   UNL     1     -11.057   6.086  69.827  1.00  0.00    -0.476 A  
ENDBRANCH   6   7
BRANCH   6  12
HETATM   12  O   UNL     1     -11.772  10.287  69.134  1.00  0.00    -0.160 OA 
BRANCH  12  13
HETATM   13  C   UNL     1     -11.838  11.667  69.121  1.00  0.00    -0.326 A  
HETATM   14  C   UNL     1     -12.068  13.799  70.260  1.00  0.00    -0.425 A  
HETATM   15  C   UNL     1     -11.948  12.414  70.300  1.00  0.00    -0.371 A  
HETATM   16  C   UNL     1     -12.059  14.460  69.038  1.00  0.00    -0.298 A  
HETATM   17  C   UNL     1     -11.881  13.755  67.844  1.00  0.00    -0.413 A  
HETATM   18  C   UNL     1     -11.839  14.455  66.629  1.00  0.00    -0.417 A  
HETATM   19  C   UNL     1     -11.611  13.793  65.425  1.00  0.00    -0.330 A  
HETATM   20  C   UNL     1     -11.421  12.417  65.428  1.00  0.00    -0.402 A  
HETATM   21  C   UNL     1     -11.489  11.698  66.630  1.00  0.00    -0.280 A  
HETATM   22  C   UNL     1     -11.736  12.341  67.868  1.00  0.00    -0.410 A  
ENDBRANCH  12  13
ENDBRANCH   6  12
ENDBRANCH   5   6
ENDBRANCH   4   5
ENDBRANCH   2   4
TORSDOF 6
ENDMDL
MODEL      177
REMARK 921   NORMALIZED FREE ENERGY PREDICTED BY IDOCK:   -3.82 KCAL/MOL
REMARK 922        TOTAL FREE ENERGY PREDICTED BY IDOCK:   -6.05 KCAL/MOL
REMARK 923 INTER-LIGAND FREE ENERGY PREDICTED BY IDOCK:   -5.36 KCAL/MOL
REMARK 924 INTRA-LIGAND FREE ENERGY PREDICTED BY IDOCK:   -0.69 KCAL/MOL
REMARK 927      BINDING AFFINITY PREDICTED BY RF-SCORE:    0.00 PKD
ROOT
HETATM    1  C   UNL     1      -9.455   5.395  66.044  1.00  0.00    -0.146 C  
HETATM    2  N   UNL     1     -10.847   5.765  66.297  1.00  0.00    -0.680 NA 
HETATM    3  H   UNL     1     -11.484   4.994  66.099  1.00  0.00     0.000 HD 
ENDROOT
BRANCH   2   4
HETATM    4  C   UNL     1     -11.014   6.270  67.664  1.00  0.00    -0.342 C  
BRANCH   4   5
HETATM    5  C   UNL     1      -9.980   7.338  68.057  1.00  0.00    -0.186 C  
BRANCH   5   6
HETATM    6  C   UNL     1     -10.511   8.580  68.793  1.00  0.00    -0.184 C  
BRANCH   6   7
HETATM    7  C   UNL     1     -10.688   8.340  70.281  1.00  0.00    -0.235 A  
HETATM    8  C   UNL     1     -10.281   8.145  72.716  1.00  0.00    -0.302 A  
HETATM    9  S   UNL     1      -9.355   8.573  71.346  1.00  0.00    -0.234 SA 
HETATM   10  C   UNL     1     -11.806   7.915  70.978  1.00  0.00    -0.285 A  
HETATM   11  C   UNL     1     -11.572   7.808  72.382  1.00  0.00    -0.410 A  
ENDBRANCH   6   7
BRANCH   6  12
HETATM   12  O   UNL     1      -9.554   9.666  68.665  1.00  0.00    -0.146 OA 
BRANCH  12  13
HETATM   13  C   UNL     1      -9.971  10.797  67.991  1.00  0.00    -0.164 A  
HETATM   14  C   UNL     1     -11.651  12.040  66.755  1.00  0.00    -0.391 A  
HETATM   15  C   UNL     1     -11.268  10.916  67.478  1.00  0.00    -0.364 A  
HETATM   16  C   UNL     1     -10.745  13.075  66.553  1.00  0.00    -0.290 A  
HETATM   17  C   UNL     1      -9.463  13.024  67.110  1.00  0.00    -0.230 A  
HETATM   18  C   UNL     1      -8.585  14.100  66.920  1.00  0.00    -0.157 A  
HETATM   19  C   UNL     1      -7.320  14.109  67.503  1.00  0.00    -0.193 A  
HETATM   20  C   UNL     1      -6.923  13.033  68.286  1.00  0.00    -0.101 A  
HETATM   21  C   UNL     1      -7.778  11.934  68.463  1.00  0.00    -0.135 A  
HETATM   22  C   UNL     1      -9.063  11.890  67.869  1.00  0.00    -0.183 A  
ENDBRANCH  12  13
ENDBRANCH   6  12
ENDBRANCH   5   6
ENDBRANCH   4   5
ENDBRANCH   2   4
TORSDOF 6
ENDMDL
MODEL      178
REMARK 921   NORMALIZED FREE ENERGY PREDICTED BY IDOCK:   -3.81 KCAL/MOL
REMARK 922        TOTAL FREE ENERGY PREDICTED BY IDOCK:   -6.04 KCAL/MOL
REMARK 923 INTER-LIGAND FREE ENERGY PREDICTED BY IDOCK:   -5.55 KCAL/MOL
REMARK 924 INTRA-LIGAND FREE ENERGY PREDICTED BY IDOCK:   -0.49 KCAL/MOL
REMARK 927      BINDING AFFINITY PREDICTED BY RF-SCORE:    0.00 PKD
ROOT
HETATM    1  C   UNL     1      -6.500   6.032  72.802  1.00  0.00    -0.063 C  
HETATM    2  N   UNL     1      -7.190   7.150  73.444  1.00  0.00    -0.072 NA 
HETATM    3  H   UNL     1      -6.550   7.916  73.655  1.00  0.00     0.000 HD 
ENDROOT
BRANCH   2   4
HETATM    4  C   UNL     1      -8.325   7.601  72.631  1.00  0.00    -0.121 C  
BRANCH   4   5
HETATM    5  C   UNL     1      -9.604   7.855  73.447  1.00  0.00    -0.331 C  
BRANCH   5   6
HETATM    6  C   UNL     1     -10.936   7.455  72.790  1.00  0.00    -0.339 C  
BRANCH   6   7
HETATM    7  C   UNL     1     -11.647   8.638  72.159  1.00  0.00    -0.370 A  
HETATM    8  C   UNL     1     -12.196  10.593  70.740  1.00  0.00    -0.375 A  
HETATM    9  S   UNL     1     -10.870   9.530  70.907  1.00  0.00    -0.358 SA 
HETATM   10  C   UNL     1     -12.889   9.177  72.448  1.00  0.00    -0.438 A  
HETATM   11  C   UNL     1     -13.207  10.300  71.627  1.00  0.00    -0.509 A  
ENDBRANCH   6   7
BRANCH   6  12
HETATM   12  O   UNL     1     -10.684   6.509  71.717  1.00  0.00    -0.219 OA 
BRANCH  12  13
HETATM   13  C   UNL     1     -10.591   5.175  72.062  1.00  0.00    -0.200 A  
HETATM   14  C   UNL     1     -10.953   3.350  73.622  1.00  0.00    -0.329 A  
HETATM   15  C   UNL     1     -11.105   4.686  73.269  1.00  0.00    -0.403 A  
HETATM   16  C   UNL     1     -10.301   2.476  72.759  1.00  0.00    -0.239 A  
HETATM   17  C   UNL     1      -9.836   2.912  71.515  1.00  0.00    -0.195 A  
HETATM   18  C   UNL     1      -9.215   1.997  70.651  1.00  0.00    -0.182 A  
HETATM   19  C   UNL     1      -8.787   2.382  69.383  1.00  0.00    -0.148 A  
HETATM   20  C   UNL     1      -8.979   3.693  68.967  1.00  0.00    -0.179 A  
HETATM   21  C   UNL     1      -9.572   4.628  69.829  1.00  0.00    -0.258 A  
HETATM   22  C   UNL     1     -10.002   4.270  71.130  1.00  0.00    -0.226 A  
ENDBRANCH  12  13
ENDBRANCH   6  12
ENDBRANCH   5   6
ENDBRANCH   4   5
ENDBRANCH   2   4
TORSDOF 6
ENDMDL
MODEL      179
REMARK 921   NORMALIZED FREE ENERGY PREDICTED BY IDOCK:   -3.81 KCAL/MOL
REMARK 922        TOTAL FREE ENERGY PREDICTED BY IDOCK:   -6.04 KCAL/MOL
REMARK 923 INTER-LIGAND FREE ENERGY PREDICTED BY IDOCK:   -5.32 KCAL/MOL
REMARK 924 INTRA-LIGAND FREE ENERGY PREDICTED BY IDOCK:   -0.72 KCAL/MOL
REMARK 927      BINDING AFFINITY PREDICTED BY RF-SCORE:    0.00 PKD
ROOT
HETATM    1  C   UNL     1     -12.138  12.897  63.542  1.00  0.00    -0.555 C  
HETATM    2  N   UNL     1     -11.967  13.893  64.598  1.00  0.00    -0.398 NA 
HETATM    3  H   UNL     1     -12.455  14.761  64.380  1.00  0.00     0.000 HD 
ENDROOT
BRANCH   2   4
HETATM    4  C   UNL     1     -12.378  13.353  65.899  1.00  0.00    -0.437 C  
BRANCH   4   5
HETATM    5  C   UNL     1     -11.239  13.297  66.930  1.00  0.00    -0.332 C  
BRANCH   5   6
HETATM    6  C   UNL     1      -9.869  13.833  66.479  1.00  0.00    -0.290 C  
BRANCH   6   7
HETATM    7  C   UNL     1      -9.527  15.163  67.125  1.00  0.00    -0.216 A  
HETATM    8  C   UNL     1      -9.068  17.568  67.500  1.00  0.00    -0.234 A  
HETATM    9  S   UNL     1      -9.483  16.591  66.163  1.00  0.00    -0.302 SA 
HETATM   10  C   UNL     1      -9.201  15.447  68.440  1.00  0.00    -0.192 A  
HETATM   11  C   UNL     1      -8.941  16.833  68.656  1.00  0.00    -0.251 A  
ENDBRANCH   6   7
BRANCH   6  12
HETATM   12  O   UNL     1      -8.827  12.903  66.881  1.00  0.00    -0.213 OA 
BRANCH  12  13
HETATM   13  C   UNL     1      -9.028  11.568  66.590  1.00  0.00    -0.185 A  
HETATM   14  C   UNL     1      -9.703   9.798  65.071  1.00  0.00    -0.303 A  
HETATM   15  C   UNL     1      -9.454  11.142  65.326  1.00  0.00    -0.257 A  
HETATM   16  C   UNL     1      -9.508   8.855  66.074  1.00  0.00    -0.320 A  
HETATM   17  C   UNL     1      -9.017   9.234  67.327  1.00  0.00    -0.136 A  
HETATM   18  C   UNL     1      -8.795   8.254  68.306  1.00  0.00    -0.140 A  
HETATM   19  C   UNL     1      -8.258   8.585  69.547  1.00  0.00    -0.116 A  
HETATM   20  C   UNL     1      -7.935   9.908  69.819  1.00  0.00    -0.181 A  
HETATM   21  C   UNL     1      -8.177  10.905  68.862  1.00  0.00    -0.141 A  
HETATM   22  C   UNL     1      -8.738  10.601  67.597  1.00  0.00    -0.121 A  
ENDBRANCH  12  13
ENDBRANCH   6  12
ENDBRANCH   5   6
ENDBRANCH   4   5
ENDBRANCH   2   4
TORSDOF 6
ENDMDL
MODEL      180
REMARK 921   NORMALIZED FREE ENERGY PREDICTED BY IDOCK:   -3.80 KCAL/MOL
REMARK 922        TOTAL FREE ENERGY PREDICTED BY IDOCK:   -6.03 KCAL/MOL
REMARK 923 INTER-LIGAND FREE ENERGY PREDICTED BY IDOCK:   -5.22 KCAL/MOL
REMARK 924 INTRA-LIGAND FREE ENERGY PREDICTED BY IDOCK:   -0.80 KCAL/MOL
REMARK 927      BINDING AFFINITY PREDICTED BY RF-SCORE:    0.00 PKD
ROOT
HETATM    1  C   UNL     1      -8.366   8.732  63.399  1.00  0.00    -0.156 C  
HETATM    2  N   UNL     1      -8.539   9.752  64.432  1.00  0.00    -0.172 NA 
HETATM    3  H   UNL     1      -9.383  10.303  64.280  1.00  0.00     0.000 HD 
ENDROOT
BRANCH   2   4
HETATM    4  C   UNL     1      -8.517   9.152  65.771  1.00  0.00    -0.141 C  
BRANCH   4   5
HETATM    5  C   UNL     1      -9.748   8.281  66.074  1.00  0.00    -0.100 C  
BRANCH   5   6
HETATM    6  C   UNL     1     -10.410   8.471  67.449  1.00  0.00    -0.286 C  
BRANCH   6   7
HETATM    7  C   UNL     1     -10.254   7.252  68.340  1.00  0.00    -0.180 A  
HETATM    8  C   UNL     1      -9.361   5.227  69.451  1.00  0.00    -0.126 A  
HETATM    9  S   UNL     1      -8.816   6.309  68.248  1.00  0.00    -0.112 SA 
HETATM   10  C   UNL     1     -11.135   6.716  69.263  1.00  0.00    -0.345 A  
HETATM   11  C   UNL     1     -10.618   5.552  69.906  1.00  0.00    -0.387 A  
ENDBRANCH   6   7
BRANCH   6  12
HETATM   12  O   UNL     1      -9.771   9.573  68.148  1.00  0.00    -0.143 OA 
BRANCH  12  13
HETATM   13  C   UNL     1     -10.596  10.479  68.783  1.00  0.00    -0.207 A  
HETATM   14  C   UNL     1     -12.042  11.113  70.629  1.00  0.00    -0.477 A  
HETATM   15  C   UNL     1     -11.170  10.209  70.032  1.00  0.00    -0.361 A  
HETATM   16  C   UNL     1     -12.337  12.314  69.993  1.00  0.00    -0.159 A  
HETATM   17  C   UNL     1     -11.729  12.650  68.780  1.00  0.00    -0.364 A  
HETATM   18  C   UNL     1     -12.019  13.885  68.182  1.00  0.00    -0.385 A  
HETATM   19  C   UNL     1     -11.394  14.277  67.001  1.00  0.00    -0.354 A  
HETATM   20  C   UNL     1     -10.467  13.430  66.406  1.00  0.00    -0.286 A  
HETATM   21  C   UNL     1     -10.188  12.179  66.975  1.00  0.00    -0.225 A  
HETATM   22  C   UNL     1     -10.820  11.746  68.166  1.00  0.00    -0.258 A  
ENDBRANCH  12  13
ENDBRANCH   6  12
ENDBRANCH   5   6
ENDBRANCH   4   5
ENDBRANCH   2   4
TORSDOF 6
ENDMDL
MODEL      181
REMARK 921   NORMALIZED FREE ENERGY PREDICTED BY IDOCK:   -3.78 KCAL/MOL
REMARK 922        TOTAL FREE ENERGY PREDICTED BY IDOCK:   -6.01 KCAL/MOL
REMARK 923 INTER-LIGAND FREE ENERGY PREDICTED BY IDOCK:   -5.24 KCAL/MOL
REMARK 924 INTRA-LIGAND FREE ENERGY PREDICTED BY IDOCK:   -0.77 KCAL/MOL
REMARK 927      BINDING AFFINITY PREDICTED BY RF-SCORE:    0.00 PKD
ROOT
HETATM    1  C   UNL     1     -12.653  10.560  70.827  1.00  0.00    -0.382 C  
HETATM    2  N   UNL     1     -13.662   9.502  70.841  1.00  0.00    -0.534 NA 
HETATM    3  H   UNL     1     -13.796   9.097  69.915  1.00  0.00     0.000 HD 
ENDROOT
BRANCH   2   4
HETATM    4  C   UNL     1     -13.332   8.477  71.838  1.00  0.00    -0.372 C  
BRANCH   4   5
HETATM    5  C   UNL     1     -12.948   7.121  71.222  1.00  0.00    -0.378 C  
BRANCH   5   6
HETATM    6  C   UNL     1     -11.447   6.858  71.007  1.00  0.00    -0.314 C  
BRANCH   6   7
HETATM    7  C   UNL     1     -10.869   5.922  72.053  1.00  0.00    -0.252 A  
HETATM    8  C   UNL     1      -9.309   4.565  73.417  1.00  0.00    -0.115 A  
HETATM    9  S   UNL     1      -9.176   5.608  72.071  1.00  0.00    -0.143 SA 
HETATM   10  C   UNL     1     -11.511   5.211  73.052  1.00  0.00    -0.349 A  
HETATM   11  C   UNL     1     -10.612   4.433  73.840  1.00  0.00    -0.326 A  
ENDBRANCH   6   7
BRANCH   6  12
HETATM   12  O   UNL     1     -11.246   6.209  69.723  1.00  0.00    -0.384 OA 
BRANCH  12  13
HETATM   13  C   UNL     1     -10.500   6.892  68.783  1.00  0.00    -0.205 A  
HETATM   14  C   UNL     1      -9.475   8.929  67.949  1.00  0.00    -0.160 A  
HETATM   15  C   UNL     1     -10.181   8.247  68.933  1.00  0.00    -0.222 A  
HETATM   16  C   UNL     1      -9.058   8.258  66.804  1.00  0.00    -0.190 A  
HETATM   17  C   UNL     1      -9.296   6.889  66.651  1.00  0.00    -0.198 A  
HETATM   18  C   UNL     1      -8.831   6.233  65.502  1.00  0.00    -0.042 A  
HETATM   19  C   UNL     1      -9.004   4.861  65.337  1.00  0.00    -0.151 A  
HETATM   20  C   UNL     1      -9.647   4.131  66.329  1.00  0.00    -0.209 A  
HETATM   21  C   UNL     1     -10.145   4.776  67.470  1.00  0.00    -0.161 A  
HETATM   22  C   UNL     1     -10.000   6.173  67.657  1.00  0.00    -0.150 A  
ENDBRANCH  12  13
ENDBRANCH   6  12
ENDBRANCH   5   6
ENDBRANCH   4   5
ENDBRANCH   2   4
TORSDOF 6
ENDMDL
MODEL      182
REMARK 921   NORMALIZED FREE ENERGY PREDICTED BY IDOCK:   -3.76 KCAL/MOL
REMARK 922        TOTAL FREE ENERGY PREDICTED BY IDOCK:   -5.98 KCAL/MOL
REMARK 923 INTER-LIGAND FREE ENERGY PREDICTED BY IDOCK:   -6.30 KCAL/MOL
REMARK 924 INTRA-LIGAND FREE ENERGY PREDICTED BY IDOCK:    0.33 KCAL/MOL
REMARK 927      BINDING AFFINITY PREDICTED BY RF-SCORE:    0.00 PKD
ROOT
HETATM    1  C   UNL     1     -12.594  14.540  72.024  1.00  0.00    -0.325 C  
HETATM    2  N   UNL     1     -12.999  14.794  70.642  1.00  0.00    -0.489 NA 
HETATM    3  H   UNL     1     -13.085  15.792  70.452  1.00  0.00     0.000 HD 
ENDROOT
BRANCH   2   4
HETATM    4  C   UNL     1     -12.084  14.141  69.700  1.00  0.00    -0.349 C  
BRANCH   4   5
HETATM    5  C   UNL     1     -12.015  14.834  68.328  1.00  0.00    -0.258 C  
BRANCH   5   6
HETATM    6  C   UNL     1     -10.739  14.606  67.500  1.00  0.00    -0.268 C  
BRANCH   6   7
HETATM    7  C   UNL     1      -9.682  15.663  67.764  1.00  0.00    -0.218 A  
HETATM    8  C   UNL     1      -7.693  16.863  68.623  1.00  0.00    -0.235 A  
HETATM    9  S   UNL     1      -8.390  15.321  68.850  1.00  0.00    -0.212 SA 
HETATM   10  C   UNL     1      -9.578  16.950  67.267  1.00  0.00    -0.246 A  
HETATM   11  C   UNL     1      -8.430  17.640  67.759  1.00  0.00    -0.227 A  
ENDBRANCH   6   7
BRANCH   6  12
HETATM   12  O   UNL     1     -10.144  13.332  67.864  1.00  0.00    -0.223 OA 
BRANCH  12  13
HETATM   13  C   UNL     1      -9.826  12.468  66.834  1.00  0.00    -0.227 A  
HETATM   14  C   UNL     1      -8.331  10.872  65.778  1.00  0.00    -0.133 A  
HETATM   15  C   UNL     1      -8.659  11.694  66.851  1.00  0.00    -0.174 A  
HETATM   16  C   UNL     1      -9.179  10.796  64.679  1.00  0.00    -0.249 A  
HETATM   17  C   UNL     1     -10.386  11.500  64.656  1.00  0.00    -0.349 A  
HETATM   18  C   UNL     1     -11.238  11.374  63.548  1.00  0.00    -0.322 A  
HETATM   19  C   UNL     1     -12.472  12.018  63.512  1.00  0.00    -0.654 A  
HETATM   20  C   UNL     1     -12.866  12.797  64.593  1.00  0.00    -0.355 A  
HETATM   21  C   UNL     1     -12.015  12.958  65.695  1.00  0.00    -0.490 A  
HETATM   22  C   UNL     1     -10.747  12.330  65.753  1.00  0.00    -0.298 A  
ENDBRANCH  12  13
ENDBRANCH   6  12
ENDBRANCH   5   6
ENDBRANCH   4   5
ENDBRANCH   2   4
TORSDOF 6
ENDMDL
MODEL      183
REMARK 921   NORMALIZED FREE ENERGY PREDICTED BY IDOCK:   -3.76 KCAL/MOL
REMARK 922        TOTAL FREE ENERGY PREDICTED BY IDOCK:   -5.98 KCAL/MOL
REMARK 923 INTER-LIGAND FREE ENERGY PREDICTED BY IDOCK:   -5.29 KCAL/MOL
REMARK 924 INTRA-LIGAND FREE ENERGY PREDICTED BY IDOCK:   -0.68 KCAL/MOL
REMARK 927      BINDING AFFINITY PREDICTED BY RF-SCORE:    0.00 PKD
ROOT
HETATM    1  C   UNL     1     -12.232  15.612  72.351  1.00  0.00    -0.443 C  
HETATM    2  N   UNL     1     -12.101  16.164  71.003  1.00  0.00    -0.563 NA 
HETATM    3  H   UNL     1     -12.051  17.182  71.016  1.00  0.00     0.000 HD 
ENDROOT
BRANCH   2   4
HETATM    4  C   UNL     1     -10.954  15.574  70.304  1.00  0.00    -0.334 C  
BRANCH   4   5
HETATM    5  C   UNL     1     -10.996  15.768  68.779  1.00  0.00    -0.291 C  
BRANCH   5   6
HETATM    6  C   UNL     1      -9.855  15.132  67.968  1.00  0.00    -0.213 C  
BRANCH   6   7
HETATM    7  C   UNL     1      -8.861  16.163  67.462  1.00  0.00    -0.189 A  
HETATM    8  C   UNL     1      -7.090  17.891  67.345  1.00  0.00    -0.187 A  
HETATM    9  S   UNL     1      -7.854  16.996  68.583  1.00  0.00    -0.259 SA 
HETATM   10  C   UNL     1      -8.620  16.595  66.170  1.00  0.00    -0.324 A  
HETATM   11  C   UNL     1      -7.597  17.587  66.102  1.00  0.00    -0.320 A  
ENDBRANCH   6   7
BRANCH   6  12
HETATM   12  O   UNL     1      -9.104  14.222  68.816  1.00  0.00    -0.179 OA 
BRANCH  12  13
HETATM   13  C   UNL     1      -8.499  13.143  68.201  1.00  0.00    -0.173 A  
HETATM   14  C   UNL     1      -6.568  12.080  67.183  1.00  0.00    -0.143 A  
HETATM   15  C   UNL     1      -7.143  13.156  67.851  1.00  0.00    -0.129 A  
HETATM   16  C   UNL     1      -7.337  10.964  66.875  1.00  0.00    -0.128 A  
HETATM   17  C   UNL     1      -8.676  10.886  67.271  1.00  0.00    -0.131 A  
HETATM   18  C   UNL     1      -9.416   9.731  66.978  1.00  0.00    -0.195 A  
HETATM   19  C   UNL     1     -10.735   9.594  67.401  1.00  0.00    -0.308 A  
HETATM   20  C   UNL     1     -11.328  10.620  68.128  1.00  0.00    -0.354 A  
HETATM   21  C   UNL     1     -10.612  11.794  68.404  1.00  0.00    -0.239 A  
HETATM   22  C   UNL     1      -9.274  11.968  67.972  1.00  0.00    -0.192 A  
ENDBRANCH  12  13
ENDBRANCH   6  12
ENDBRANCH   5   6
ENDBRANCH   4   5
ENDBRANCH   2   4
TORSDOF 6
ENDMDL
MODEL      184
REMARK 921   NORMALIZED FREE ENERGY PREDICTED BY IDOCK:   -3.75 KCAL/MOL
REMARK 922        TOTAL FREE ENERGY PREDICTED BY IDOCK:   -5.96 KCAL/MOL
REMARK 923 INTER-LIGAND FREE ENERGY PREDICTED BY IDOCK:   -5.55 KCAL/MOL
REMARK 924 INTRA-LIGAND FREE ENERGY PREDICTED BY IDOCK:   -0.40 KCAL/MOL
REMARK 927      BINDING AFFINITY PREDICTED BY RF-SCORE:    0.00 PKD
ROOT
HETATM    1  C   UNL     1      -7.330  13.222  67.445  1.00  0.00    -0.114 C  
HETATM    2  N   UNL     1      -6.149  12.492  66.988  1.00  0.00    -0.467 NA 
HETATM    3  H   UNL     1      -5.435  12.438  67.715  1.00  0.00     0.000 HD 
ENDROOT
BRANCH   2   4
HETATM    4  C   UNL     1      -6.514  11.162  66.489  1.00  0.00    -0.129 C  
BRANCH   4   5
HETATM    5  C   UNL     1      -7.903  10.692  66.952  1.00  0.00    -0.121 C  
BRANCH   5   6
HETATM    6  C   UNL     1      -8.339   9.282  66.516  1.00  0.00    -0.126 C  
BRANCH   6   7
HETATM    7  C   UNL     1      -8.321   8.290  67.664  1.00  0.00    -0.127 A  
HETATM    8  C   UNL     1      -8.161   6.207  68.996  1.00  0.00    -0.112 A  
HETATM    9  S   UNL     1      -8.045   6.620  67.343  1.00  0.00    -0.122 SA 
HETATM   10  C   UNL     1      -8.524   8.503  69.016  1.00  0.00    -0.126 A  
HETATM   11  C   UNL     1      -8.427   7.304  69.784  1.00  0.00    -0.136 A  
ENDBRANCH   6   7
BRANCH   6  12
HETATM   12  O   UNL     1      -9.709   9.324  66.033  1.00  0.00    -0.254 OA 
BRANCH  12  13
HETATM   13  C   UNL     1     -10.116  10.480  65.396  1.00  0.00    -0.291 A  
HETATM   14  C   UNL     1     -10.291  11.869  63.411  1.00  0.00    -0.481 A  
HETATM   15  C   UNL     1      -9.923  10.675  64.022  1.00  0.00    -0.401 A  
HETATM   16  C   UNL     1     -10.880  12.879  64.164  1.00  0.00    -0.445 A  
HETATM   17  C   UNL     1     -11.153  12.694  65.522  1.00  0.00    -0.329 A  
HETATM   18  C   UNL     1     -11.782  13.718  66.246  1.00  0.00    -0.400 A  
HETATM   19  C   UNL     1     -12.116  13.551  67.586  1.00  0.00    -0.321 A  
HETATM   20  C   UNL     1     -11.824  12.349  68.218  1.00  0.00    -0.364 A  
HETATM   21  C   UNL     1     -11.169  11.325  67.518  1.00  0.00    -0.357 A  
HETATM   22  C   UNL     1     -10.801  11.472  66.158  1.00  0.00    -0.330 A  
ENDBRANCH  12  13
ENDBRANCH   6  12
ENDBRANCH   5   6
ENDBRANCH   4   5
ENDBRANCH   2   4
TORSDOF 6
ENDMDL
MODEL      185
REMARK 921   NORMALIZED FREE ENERGY PREDICTED BY IDOCK:   -3.74 KCAL/MOL
REMARK 922        TOTAL FREE ENERGY PREDICTED BY IDOCK:   -5.95 KCAL/MOL
REMARK 923 INTER-LIGAND FREE ENERGY PREDICTED BY IDOCK:   -5.66 KCAL/MOL
REMARK 924 INTRA-LIGAND FREE ENERGY PREDICTED BY IDOCK:   -0.29 KCAL/MOL
REMARK 927      BINDING AFFINITY PREDICTED BY RF-SCORE:    0.00 PKD
ROOT
HETATM    1  C   UNL     1     -11.127   9.925  69.365  1.00  0.00    -0.199 C  
HETATM    2  N   UNL     1     -12.379  10.595  69.710  1.00  0.00    -0.517 NA 
HETATM    3  H   UNL     1     -12.743  10.275  70.608  1.00  0.00     0.000 HD 
ENDROOT
BRANCH   2   4
HETATM    4  C   UNL     1     -12.219  12.054  69.681  1.00  0.00    -0.139 C  
BRANCH   4   5
HETATM    5  C   UNL     1     -10.795  12.509  69.320  1.00  0.00    -0.054 C  
BRANCH   5   6
HETATM    6  C   UNL     1     -10.657  13.484  68.138  1.00  0.00    -0.245 C  
BRANCH   6   7
HETATM    7  C   UNL     1     -10.553  14.929  68.590  1.00  0.00    -0.251 A  
HETATM    8  C   UNL     1     -10.056  17.354  68.683  1.00  0.00    -0.355 A  
HETATM    9  S   UNL     1      -9.789  16.088  67.569  1.00  0.00    -0.238 SA 
HETATM   10  C   UNL     1     -10.974  15.517  69.770  1.00  0.00    -0.299 A  
HETATM   11  C   UNL     1     -10.692  16.914  69.821  1.00  0.00    -0.084 A  
ENDBRANCH   6   7
BRANCH   6  12
HETATM   12  O   UNL     1      -9.434  13.194  67.409  1.00  0.00    -0.201 OA 
BRANCH  12  13
HETATM   13  C   UNL     1      -9.499  12.221  66.431  1.00  0.00    -0.237 A  
HETATM   14  C   UNL     1      -8.740  10.134  65.450  1.00  0.00    -0.176 A  
HETATM   15  C   UNL     1      -8.697  11.074  66.473  1.00  0.00    -0.169 A  
HETATM   16  C   UNL     1      -9.605  10.317  64.376  1.00  0.00    -0.378 A  
HETATM   17  C   UNL     1     -10.471  11.413  64.334  1.00  0.00    -0.388 A  
HETATM   18  C   UNL     1     -11.358  11.551  63.256  1.00  0.00    -0.208 A  
HETATM   19  C   UNL     1     -12.272  12.600  63.205  1.00  0.00    -0.512 A  
HETATM   20  C   UNL     1     -12.306  13.526  64.241  1.00  0.00    -0.392 A  
HETATM   21  C   UNL     1     -11.406  13.420  65.311  1.00  0.00    -0.313 A  
HETATM   22  C   UNL     1     -10.454  12.374  65.383  1.00  0.00    -0.306 A  
ENDBRANCH  12  13
ENDBRANCH   6  12
ENDBRANCH   5   6
ENDBRANCH   4   5
ENDBRANCH   2   4
TORSDOF 6
ENDMDL
MODEL      186
REMARK 921   NORMALIZED FREE ENERGY PREDICTED BY IDOCK:   -3.74 KCAL/MOL
REMARK 922        TOTAL FREE ENERGY PREDICTED BY IDOCK:   -5.94 KCAL/MOL
REMARK 923 INTER-LIGAND FREE ENERGY PREDICTED BY IDOCK:   -5.05 KCAL/MOL
REMARK 924 INTRA-LIGAND FREE ENERGY PREDICTED BY IDOCK:   -0.89 KCAL/MOL
REMARK 927      BINDING AFFINITY PREDICTED BY RF-SCORE:    0.00 PKD
ROOT
HETATM    1  C   UNL     1      -6.411  13.612  68.557  1.00  0.00    -0.092 C  
HETATM    2  N   UNL     1      -5.712  12.786  67.574  1.00  0.00    -0.215 NA 
HETATM    3  H   UNL     1      -4.809  12.466  67.924  1.00  0.00     0.000 HD 
ENDROOT
BRANCH   2   4
HETATM    4  C   UNL     1      -6.552  11.664  67.141  1.00  0.00    -0.134 C  
BRANCH   4   5
HETATM    5  C   UNL     1      -7.457  11.107  68.253  1.00  0.00    -0.094 C  
BRANCH   5   6
HETATM    6  C   UNL     1      -8.859  10.634  67.833  1.00  0.00    -0.131 C  
BRANCH   6   7
HETATM    7  C   UNL     1      -9.415   9.573  68.767  1.00  0.00    -0.147 A  
HETATM    8  C   UNL     1      -9.721   8.008  70.662  1.00  0.00    -0.173 A  
HETATM    9  S   UNL     1      -8.550   9.162  70.199  1.00  0.00    -0.203 SA 
HETATM   10  C   UNL     1     -10.564   8.811  68.650  1.00  0.00    -0.174 A  
HETATM   11  C   UNL     1     -10.742   7.912  69.745  1.00  0.00    -0.233 A  
ENDBRANCH   6   7
BRANCH   6  12
HETATM   12  O   UNL     1      -9.786  11.752  67.887  1.00  0.00    -0.174 OA 
BRANCH  12  13
HETATM   13  C   UNL     1     -10.257  12.237  66.683  1.00  0.00    -0.216 A  
HETATM   14  C   UNL     1     -11.169  11.892  64.459  1.00  0.00    -0.380 A  
HETATM   15  C   UNL     1     -10.750  11.387  65.685  1.00  0.00    -0.301 A  
HETATM   16  C   UNL     1     -11.120  13.261  64.220  1.00  0.00    -0.414 A  
HETATM   17  C   UNL     1     -10.700  14.147  65.217  1.00  0.00    -0.374 A  
HETATM   18  C   UNL     1     -10.697  15.526  64.958  1.00  0.00    -0.463 A  
HETATM   19  C   UNL     1     -10.336  16.442  65.942  1.00  0.00    -0.378 A  
HETATM   20  C   UNL     1      -9.973  15.982  67.202  1.00  0.00    -0.249 A  
HETATM   21  C   UNL     1      -9.941  14.605  67.469  1.00  0.00    -0.223 A  
HETATM   22  C   UNL     1     -10.288  13.649  66.483  1.00  0.00    -0.282 A  
ENDBRANCH  12  13
ENDBRANCH   6  12
ENDBRANCH   5   6
ENDBRANCH   4   5
ENDBRANCH   2   4
TORSDOF 6
ENDMDL
MODEL      187
REMARK 921   NORMALIZED FREE ENERGY PREDICTED BY IDOCK:   -3.73 KCAL/MOL
REMARK 922        TOTAL FREE ENERGY PREDICTED BY IDOCK:   -5.93 KCAL/MOL
REMARK 923 INTER-LIGAND FREE ENERGY PREDICTED BY IDOCK:   -5.18 KCAL/MOL
REMARK 924 INTRA-LIGAND FREE ENERGY PREDICTED BY IDOCK:   -0.76 KCAL/MOL
REMARK 927      BINDING AFFINITY PREDICTED BY RF-SCORE:    0.00 PKD
ROOT
HETATM    1  C   UNL     1      -6.425   9.246  62.882  1.00  0.00    -0.094 C  
HETATM    2  N   UNL     1      -6.362  10.485  63.654  1.00  0.00    -0.346 NA 
HETATM    3  H   UNL     1      -6.875  11.240  63.198  1.00  0.00     0.000 HD 
ENDROOT
BRANCH   2   4
HETATM    4  C   UNL     1      -6.826  10.270  65.030  1.00  0.00    -0.111 C  
BRANCH   4   5
HETATM    5  C   UNL     1      -8.282   9.782  65.119  1.00  0.00    -0.140 C  
BRANCH   5   6
HETATM    6  C   UNL     1      -9.237  10.609  65.996  1.00  0.00    -0.182 C  
BRANCH   6   7
HETATM    7  C   UNL     1      -9.982  11.667  65.201  1.00  0.00    -0.259 A  
HETATM    8  C   UNL     1     -11.223  12.857  63.418  1.00  0.00    -0.184 A  
HETATM    9  S   UNL     1     -10.557  11.298  63.620  1.00  0.00    -0.357 SA 
HETATM   10  C   UNL     1     -10.282  12.975  65.540  1.00  0.00    -0.296 A  
HETATM   11  C   UNL     1     -11.001  13.659  64.514  1.00  0.00    -0.405 A  
ENDBRANCH   6   7
BRANCH   6  12
HETATM   12  O   UNL     1     -10.251   9.738  66.566  1.00  0.00    -0.232 OA 
BRANCH  12  13
HETATM   13  C   UNL     1     -10.565   9.924  67.898  1.00  0.00    -0.254 A  
HETATM   14  C   UNL     1     -11.793  11.061  69.657  1.00  0.00    -0.414 A  
HETATM   15  C   UNL     1     -11.532  10.850  68.308  1.00  0.00    -0.376 A  
HETATM   16  C   UNL     1     -11.104  10.331  70.618  1.00  0.00    -0.358 A  
HETATM   17  C   UNL     1     -10.181   9.349  70.246  1.00  0.00    -0.295 A  
HETATM   18  C   UNL     1      -9.529   8.603  71.239  1.00  0.00    -0.289 A  
HETATM   19  C   UNL     1      -8.643   7.582  70.907  1.00  0.00    -0.130 A  
HETATM   20  C   UNL     1      -8.403   7.295  69.569  1.00  0.00    -0.133 A  
HETATM   21  C   UNL     1      -9.025   8.050  68.563  1.00  0.00    -0.133 A  
HETATM   22  C   UNL     1      -9.917   9.107  68.870  1.00  0.00    -0.189 A  
ENDBRANCH  12  13
ENDBRANCH   6  12
ENDBRANCH   5   6
ENDBRANCH   4   5
ENDBRANCH   2   4
TORSDOF 6
ENDMDL
MODEL      188
REMARK 921   NORMALIZED FREE ENERGY PREDICTED BY IDOCK:   -3.71 KCAL/MOL
REMARK 922        TOTAL FREE ENERGY PREDICTED BY IDOCK:   -5.91 KCAL/MOL
REMARK 923 INTER-LIGAND FREE ENERGY PREDICTED BY IDOCK:   -5.82 KCAL/MOL
REMARK 924 INTRA-LIGAND FREE ENERGY PREDICTED BY IDOCK:   -0.10 KCAL/MOL
REMARK 927      BINDING AFFINITY PREDICTED BY RF-SCORE:    0.00 PKD
ROOT
HETATM    1  C   UNL     1     -10.803  12.238  63.574  1.00  0.00    -0.454 C  
HETATM    2  N   UNL     1     -11.216  13.634  63.701  1.00  0.00    -0.461 NA 
HETATM    3  H   UNL     1     -12.092  13.814  63.211  1.00  0.00     0.000 HD 
ENDROOT
BRANCH   2   4
HETATM    4  C   UNL     1     -11.293  14.031  65.111  1.00  0.00    -0.328 C  
BRANCH   4   5
HETATM    5  C   UNL     1     -10.794  12.949  66.083  1.00  0.00    -0.300 C  
BRANCH   5   6
HETATM    6  C   UNL     1     -11.538  12.826  67.425  1.00  0.00    -0.356 C  
BRANCH   6   7
HETATM    7  C   UNL     1     -11.214  11.532  68.149  1.00  0.00    -0.271 A  
HETATM    8  C   UNL     1     -10.426   9.244  68.677  1.00  0.00    -0.209 A  
HETATM    9  S   UNL     1     -10.454  10.244  67.294  1.00  0.00    -0.262 SA 
HETATM   10  C   UNL     1     -11.458  11.173  69.463  1.00  0.00    -0.374 A  
HETATM   11  C   UNL     1     -11.000   9.856  69.768  1.00  0.00    -0.304 A  
ENDBRANCH   6   7
BRANCH   6  12
HETATM   12  O   UNL     1     -11.127  13.904  68.309  1.00  0.00    -0.241 OA 
BRANCH  12  13
HETATM   13  C   UNL     1      -9.831  14.363  68.181  1.00  0.00    -0.223 A  
HETATM   14  C   UNL     1      -7.431  13.994  68.195  1.00  0.00    -0.131 A  
HETATM   15  C   UNL     1      -8.729  13.503  68.272  1.00  0.00    -0.172 A  
HETATM   16  C   UNL     1      -7.215  15.355  68.005  1.00  0.00    -0.135 A  
HETATM   17  C   UNL     1      -8.289  16.234  67.840  1.00  0.00    -0.170 A  
HETATM   18  C   UNL     1      -8.038  17.595  67.613  1.00  0.00    -0.218 A  
HETATM   19  C   UNL     1      -9.080  18.492  67.393  1.00  0.00    -0.283 A  
HETATM   20  C   UNL     1     -10.390  18.029  67.396  1.00  0.00    -0.391 A  
HETATM   21  C   UNL     1     -10.661  16.677  67.651  1.00  0.00    -0.321 A  
HETATM   22  C   UNL     1      -9.623  15.745  67.896  1.00  0.00    -0.214 A  
ENDBRANCH  12  13
ENDBRANCH   6  12
ENDBRANCH   5   6
ENDBRANCH   4   5
ENDBRANCH   2   4
TORSDOF 6
ENDMDL
MODEL      189
REMARK 921   NORMALIZED FREE ENERGY PREDICTED BY IDOCK:   -3.71 KCAL/MOL
REMARK 922        TOTAL FREE ENERGY PREDICTED BY IDOCK:   -5.91 KCAL/MOL
REMARK 923 INTER-LIGAND FREE ENERGY PREDICTED BY IDOCK:   -5.86 KCAL/MOL
REMARK 924 INTRA-LIGAND FREE ENERGY PREDICTED BY IDOCK:   -0.05 KCAL/MOL
REMARK 927      BINDING AFFINITY PREDICTED BY RF-SCORE:    0.00 PKD
ROOT
HETATM    1  C   UNL     1      -6.759   8.714  71.696  1.00  0.00    -0.083 C  
HETATM    2  N   UNL     1      -7.750   8.821  72.765  1.00  0.00    -0.372 NA 
HETATM    3  H   UNL     1      -8.494   9.477  72.526  1.00  0.00     0.000 HD 
ENDROOT
BRANCH   2   4
HETATM    4  C   UNL     1      -8.285   7.501  73.117  1.00  0.00    -0.122 C  
BRANCH   4   5
HETATM    5  C   UNL     1      -9.822   7.440  73.118  1.00  0.00    -0.304 C  
BRANCH   5   6
HETATM    6  C   UNL     1     -10.481   6.562  72.041  1.00  0.00    -0.202 C  
BRANCH   6   7
HETATM    7  C   UNL     1     -10.552   5.101  72.449  1.00  0.00    -0.221 A  
HETATM    8  C   UNL     1     -10.165   2.659  72.597  1.00  0.00    -0.159 A  
HETATM    9  S   UNL     1      -9.559   3.944  71.649  1.00  0.00    -0.171 SA 
HETATM   10  C   UNL     1     -11.346   4.491  73.404  1.00  0.00    -0.376 A  
HETATM   11  C   UNL     1     -11.119   3.085  73.492  1.00  0.00    -0.317 A  
ENDBRANCH   6   7
BRANCH   6  12
HETATM   12  O   UNL     1     -11.853   6.995  71.832  1.00  0.00    -0.281 OA 
BRANCH  12  13
HETATM   13  C   UNL     1     -12.050   8.320  71.496  1.00  0.00    -0.299 A  
HETATM   14  C   UNL     1     -13.089  10.481  71.876  1.00  0.00    -0.567 A  
HETATM   15  C   UNL     1     -12.860   9.165  72.263  1.00  0.00    -0.472 A  
HETATM   16  C   UNL     1     -12.491  10.978  70.723  1.00  0.00    -0.491 A  
HETATM   17  C   UNL     1     -11.619  10.186  69.970  1.00  0.00    -0.323 A  
HETATM   18  C   UNL     1     -11.002  10.728  68.833  1.00  0.00    -0.289 A  
HETATM   19  C   UNL     1     -10.088   9.987  68.088  1.00  0.00    -0.186 A  
HETATM   20  C   UNL     1      -9.783   8.689  68.479  1.00  0.00    -0.174 A  
HETATM   21  C   UNL     1     -10.413   8.121  69.596  1.00  0.00    -0.224 A  
HETATM   22  C   UNL     1     -11.359   8.844  70.363  1.00  0.00    -0.229 A  
ENDBRANCH  12  13
ENDBRANCH   6  12
ENDBRANCH   5   6
ENDBRANCH   4   5
ENDBRANCH   2   4
TORSDOF 6
ENDMDL
MODEL      190
REMARK 921   NORMALIZED FREE ENERGY PREDICTED BY IDOCK:   -3.71 KCAL/MOL
REMARK 922        TOTAL FREE ENERGY PREDICTED BY IDOCK:   -5.91 KCAL/MOL
REMARK 923 INTER-LIGAND FREE ENERGY PREDICTED BY IDOCK:   -5.24 KCAL/MOL
REMARK 924 INTRA-LIGAND FREE ENERGY PREDICTED BY IDOCK:   -0.67 KCAL/MOL
REMARK 927      BINDING AFFINITY PREDICTED BY RF-SCORE:    0.00 PKD
ROOT
HETATM    1  C   UNL     1     -10.759   8.156  70.998  1.00  0.00    -0.217 C  
HETATM    2  N   UNL     1     -12.063   8.313  70.357  1.00  0.00    -0.439 NA 
HETATM    3  H   UNL     1     -12.682   7.531  70.565  1.00  0.00     0.000 HD 
ENDROOT
BRANCH   2   4
HETATM    4  C   UNL     1     -12.673   9.598  70.718  1.00  0.00    -0.124 C  
BRANCH   4   5
HETATM    5  C   UNL     1     -11.671  10.764  70.764  1.00  0.00    -0.400 C  
BRANCH   5   6
HETATM    6  C   UNL     1     -11.973  11.973  69.863  1.00  0.00    -0.318 C  
BRANCH   6   7
HETATM    7  C   UNL     1     -12.548  13.144  70.639  1.00  0.00    -0.211 A  
HETATM    8  C   UNL     1     -13.693  14.520  72.351  1.00  0.00    -0.480 A  
HETATM    9  S   UNL     1     -13.395  12.856  72.111  1.00  0.00    -0.432 SA 
HETATM   10  C   UNL     1     -12.527  14.495  70.340  1.00  0.00    -0.407 A  
HETATM   11  C   UNL     1     -13.183  15.288  71.329  1.00  0.00    -0.563 A  
ENDBRANCH   6   7
BRANCH   6  12
HETATM   12  O   UNL     1     -10.740  12.449  69.259  1.00  0.00    -0.103 OA 
BRANCH  12  13
HETATM   13  C   UNL     1     -10.346  11.851  68.078  1.00  0.00    -0.196 A  
HETATM   14  C   UNL     1     -10.842  10.610  66.050  1.00  0.00    -0.051 A  
HETATM   15  C   UNL     1     -11.266  11.255  67.207  1.00  0.00    -0.364 A  
HETATM   16  C   UNL     1      -9.488  10.571  65.736  1.00  0.00    -0.249 A  
HETATM   17  C   UNL     1      -8.547  11.215  66.544  1.00  0.00    -0.169 A  
HETATM   18  C   UNL     1      -7.192  11.188  66.181  1.00  0.00     0.000 A  
HETATM   19  C   UNL     1      -6.232  11.861  66.932  1.00  0.00    -0.115 A  
HETATM   20  C   UNL     1      -6.624  12.572  68.059  1.00  0.00    -0.086 A  
HETATM   21  C   UNL     1      -7.970  12.584  68.454  1.00  0.00    -0.139 A  
HETATM   22  C   UNL     1      -8.966  11.895  67.720  1.00  0.00    -0.173 A  
ENDBRANCH  12  13
ENDBRANCH   6  12
ENDBRANCH   5   6
ENDBRANCH   4   5
ENDBRANCH   2   4
TORSDOF 6
ENDMDL
MODEL      191
REMARK 921   NORMALIZED FREE ENERGY PREDICTED BY IDOCK:   -3.70 KCAL/MOL
REMARK 922        TOTAL FREE ENERGY PREDICTED BY IDOCK:   -5.90 KCAL/MOL
REMARK 923 INTER-LIGAND FREE ENERGY PREDICTED BY IDOCK:   -7.08 KCAL/MOL
REMARK 924 INTRA-LIGAND FREE ENERGY PREDICTED BY IDOCK:    1.18 KCAL/MOL
REMARK 927      BINDING AFFINITY PREDICTED BY RF-SCORE:    0.00 PKD
ROOT
HETATM    1  C   UNL     1     -13.607   9.593  72.099  1.00  0.00    -0.389 C  
HETATM    2  N   UNL     1     -12.934   9.725  70.808  1.00  0.00    -0.563 NA 
HETATM    3  H   UNL     1     -13.502  10.244  70.138  1.00  0.00     0.000 HD 
ENDROOT
BRANCH   2   4
HETATM    4  C   UNL     1     -11.604  10.325  70.969  1.00  0.00    -0.343 C  
BRANCH   4   5
HETATM    5  C   UNL     1     -11.173  11.195  69.777  1.00  0.00    -0.318 C  
BRANCH   5   6
HETATM    6  C   UNL     1     -12.241  12.124  69.174  1.00  0.00    -0.032 C  
BRANCH   6   7
HETATM    7  C   UNL     1     -12.075  13.564  69.623  1.00  0.00    -0.306 A  
HETATM    8  C   UNL     1     -11.302  15.908  69.834  1.00  0.00    -0.348 A  
HETATM    9  S   UNL     1     -10.901  14.565  68.857  1.00  0.00    -0.260 SA 
HETATM   10  C   UNL     1     -12.733  14.257  70.624  1.00  0.00    -0.409 A  
HETATM   11  C   UNL     1     -12.291  15.608  70.742  1.00  0.00    -0.466 A  
ENDBRANCH   6   7
BRANCH   6  12
HETATM   12  O   UNL     1     -12.118  12.130  67.726  1.00  0.00    -0.508 OA 
BRANCH  12  13
HETATM   13  C   UNL     1     -11.346  11.138  67.155  1.00  0.00    -0.181 A  
HETATM   14  C   UNL     1     -10.303   8.946  67.226  1.00  0.00    -0.350 A  
HETATM   15  C   UNL     1     -11.128   9.910  67.793  1.00  0.00    -0.196 A  
HETATM   16  C   UNL     1      -9.699   9.187  65.998  1.00  0.00    -0.358 A  
HETATM   17  C   UNL     1      -9.948  10.371  65.297  1.00  0.00    -0.376 A  
HETATM   18  C   UNL     1      -9.353  10.570  64.043  1.00  0.00    -0.308 A  
HETATM   19  C   UNL     1      -9.618  11.712  63.293  1.00  0.00    -0.334 A  
HETATM   20  C   UNL     1     -10.489  12.671  63.795  1.00  0.00    -0.411 A  
HETATM   21  C   UNL     1     -11.070  12.503  65.061  1.00  0.00    -0.335 A  
HETATM   22  C   UNL     1     -10.805  11.359  65.854  1.00  0.00    -0.292 A  
ENDBRANCH  12  13
ENDBRANCH   6  12
ENDBRANCH   5   6
ENDBRANCH   4   5
ENDBRANCH   2   4
TORSDOF 6
ENDMDL
MODEL      192
REMARK 921   NORMALIZED FREE ENERGY PREDICTED BY IDOCK:   -3.68 KCAL/MOL
REMARK 922        TOTAL FREE ENERGY PREDICTED BY IDOCK:   -5.87 KCAL/MOL
REMARK 923 INTER-LIGAND FREE ENERGY PREDICTED BY IDOCK:   -5.35 KCAL/MOL
REMARK 924 INTRA-LIGAND FREE ENERGY PREDICTED BY IDOCK:   -0.53 KCAL/MOL
REMARK 927      BINDING AFFINITY PREDICTED BY RF-SCORE:    0.00 PKD
ROOT
HETATM    1  C   UNL     1      -6.996   8.435  71.004  1.00  0.00    -0.056 C  
HETATM    2  N   UNL     1      -7.830   9.426  70.325  1.00  0.00    -0.138 NA 
HETATM    3  H   UNL     1      -7.558  10.378  70.570  1.00  0.00     0.000 HD 
ENDROOT
BRANCH   2   4
HETATM    4  C   UNL     1      -7.816   9.216  68.873  1.00  0.00    -0.094 C  
BRANCH   4   5
HETATM    5  C   UNL     1      -8.905  10.006  68.127  1.00  0.00    -0.122 C  
BRANCH   5   6
HETATM    6  C   UNL     1     -10.023   9.185  67.461  1.00  0.00    -0.205 C  
BRANCH   6   7
HETATM    7  C   UNL     1     -10.321   7.899  68.210  1.00  0.00    -0.197 A  
HETATM    8  C   UNL     1     -10.597   5.509  68.802  1.00  0.00    -0.166 A  
HETATM    9  S   UNL     1     -10.102   6.384  67.421  1.00  0.00    -0.181 SA 
HETATM   10  C   UNL     1     -10.791   7.718  69.499  1.00  0.00    -0.157 A  
HETATM   11  C   UNL     1     -10.946   6.341  69.841  1.00  0.00    -0.435 A  
ENDBRANCH   6   7
BRANCH   6  12
HETATM   12  O   UNL     1     -11.256   9.954  67.462  1.00  0.00    -0.196 OA 
BRANCH  12  13
HETATM   13  C   UNL     1     -11.142  11.327  67.369  1.00  0.00    -0.297 A  
HETATM   14  C   UNL     1     -10.593  13.338  66.124  1.00  0.00    -0.293 A  
HETATM   15  C   UNL     1     -10.754  11.958  66.181  1.00  0.00    -0.318 A  
HETATM   16  C   UNL     1     -10.839  14.111  67.253  1.00  0.00    -0.288 A  
HETATM   17  C   UNL     1     -11.295  13.524  68.437  1.00  0.00    -0.327 A  
HETATM   18  C   UNL     1     -11.570  14.336  69.548  1.00  0.00    -0.353 A  
HETATM   19  C   UNL     1     -12.075  13.794  70.727  1.00  0.00    -0.395 A  
HETATM   20  C   UNL     1     -12.312  12.428  70.803  1.00  0.00    -0.377 A  
HETATM   21  C   UNL     1     -12.015  11.598  69.712  1.00  0.00    -0.402 A  
HETATM   22  C   UNL     1     -11.485  12.117  68.506  1.00  0.00    -0.349 A  
ENDBRANCH  12  13
ENDBRANCH   6  12
ENDBRANCH   5   6
ENDBRANCH   4   5
ENDBRANCH   2   4
TORSDOF 6
ENDMDL
MODEL      193
REMARK 921   NORMALIZED FREE ENERGY PREDICTED BY IDOCK:   -3.67 KCAL/MOL
REMARK 922        TOTAL FREE ENERGY PREDICTED BY IDOCK:   -5.86 KCAL/MOL
REMARK 923 INTER-LIGAND FREE ENERGY PREDICTED BY IDOCK:   -5.30 KCAL/MOL
REMARK 924 INTRA-LIGAND FREE ENERGY PREDICTED BY IDOCK:   -0.56 KCAL/MOL
REMARK 927      BINDING AFFINITY PREDICTED BY RF-SCORE:    0.00 PKD
ROOT
HETATM    1  C   UNL     1      -6.710  10.338  67.252  1.00  0.00    -0.073 C  
HETATM    2  N   UNL     1      -7.726  11.295  67.687  1.00  0.00    -0.111 NA 
HETATM    3  H   UNL     1      -7.377  11.903  68.428  1.00  0.00     0.000 HD 
ENDROOT
BRANCH   2   4
HETATM    4  C   UNL     1      -8.239  12.067  66.550  1.00  0.00     0.014 C  
BRANCH   4   5
HETATM    5  C   UNL     1      -9.314  13.096  66.940  1.00  0.00    -0.246 C  
BRANCH   5   6
HETATM    6  C   UNL     1      -9.986  13.865  65.790  1.00  0.00    -0.284 C  
BRANCH   6   7
HETATM    7  C   UNL     1     -10.616  12.939  64.765  1.00  0.00    -0.342 A  
HETATM    8  C   UNL     1     -12.243  11.600  63.463  1.00  0.00    -0.246 A  
HETATM    9  S   UNL     1     -12.311  12.636  64.819  1.00  0.00    -0.471 SA 
HETATM   10  C   UNL     1     -10.023  12.230  63.735  1.00  0.00    -0.302 A  
HETATM   11  C   UNL     1     -10.961  11.462  62.983  1.00  0.00     0.020 A  
ENDBRANCH   6   7
BRANCH   6  12
HETATM   12  O   UNL     1     -11.064  14.684  66.318  1.00  0.00    -0.325 OA 
BRANCH  12  13
HETATM   13  C   UNL     1     -10.713  15.717  67.165  1.00  0.00    -0.314 A  
HETATM   14  C   UNL     1      -9.583  17.822  67.601  1.00  0.00    -0.266 A  
HETATM   15  C   UNL     1      -9.973  16.819  66.720  1.00  0.00    -0.286 A  
HETATM   16  C   UNL     1      -9.948  17.747  68.941  1.00  0.00    -0.332 A  
HETATM   17  C   UNL     1     -10.746  16.698  69.407  1.00  0.00    -0.331 A  
HETATM   18  C   UNL     1     -11.128  16.670  70.757  1.00  0.00     0.131 A  
HETATM   19  C   UNL     1     -11.965  15.671  71.247  1.00  0.00    -0.467 A  
HETATM   20  C   UNL     1     -12.429  14.686  70.384  1.00  0.00    -0.410 A  
HETATM   21  C   UNL     1     -12.033  14.682  69.039  1.00  0.00    -0.318 A  
HETATM   22  C   UNL     1     -11.170  15.675  68.515  1.00  0.00    -0.342 A  
ENDBRANCH  12  13
ENDBRANCH   6  12
ENDBRANCH   5   6
ENDBRANCH   4   5
ENDBRANCH   2   4
TORSDOF 6
ENDMDL
MODEL      194
REMARK 921   NORMALIZED FREE ENERGY PREDICTED BY IDOCK:   -3.67 KCAL/MOL
REMARK 922        TOTAL FREE ENERGY PREDICTED BY IDOCK:   -5.85 KCAL/MOL
REMARK 923 INTER-LIGAND FREE ENERGY PREDICTED BY IDOCK:   -5.45 KCAL/MOL
REMARK 924 INTRA-LIGAND FREE ENERGY PREDICTED BY IDOCK:   -0.40 KCAL/MOL
REMARK 927      BINDING AFFINITY PREDICTED BY RF-SCORE:    0.00 PKD
ROOT
HETATM    1  C   UNL     1     -10.913  15.571  64.794  1.00  0.00    -0.399 C  
HETATM    2  N   UNL     1     -11.534  14.860  65.910  1.00  0.00    -0.318 NA 
HETATM    3  H   UNL     1     -11.952  13.980  65.610  1.00  0.00     0.000 HD 
ENDROOT
BRANCH   2   4
HETATM    4  C   UNL     1     -10.574  14.659  67.002  1.00  0.00    -0.280 C  
BRANCH   4   5
HETATM    5  C   UNL     1     -10.412  13.187  67.415  1.00  0.00    -0.243 C  
BRANCH   5   6
HETATM    6  C   UNL     1     -10.679  12.129  66.331  1.00  0.00    -0.257 C  
BRANCH   6   7
HETATM    7  C   UNL     1      -9.422  11.371  65.941  1.00  0.00    -0.228 A  
HETATM    8  C   UNL     1      -7.796   9.930  64.753  1.00  0.00    -0.141 A  
HETATM    9  S   UNL     1      -9.421  10.400  64.519  1.00  0.00    -0.312 SA 
HETATM   10  C   UNL     1      -8.199  11.303  66.584  1.00  0.00    -0.164 A  
HETATM   11  C   UNL     1      -7.261  10.476  65.897  1.00  0.00    -0.135 A  
ENDBRANCH   6   7
BRANCH   6  12
HETATM   12  O   UNL     1     -11.613  11.138  66.837  1.00  0.00    -0.428 OA 
BRANCH  12  13
HETATM   13  C   UNL     1     -11.598  10.896  68.196  1.00  0.00    -0.241 A  
HETATM   14  C   UNL     1     -12.111  11.541  70.480  1.00  0.00    -0.472 A  
HETATM   15  C   UNL     1     -12.185  11.777  69.112  1.00  0.00    -0.169 A  
HETATM   16  C   UNL     1     -11.465  10.405  70.953  1.00  0.00    -0.385 A  
HETATM   17  C   UNL     1     -10.927   9.466  70.067  1.00  0.00    -0.267 A  
HETATM   18  C   UNL     1     -10.314   8.311  70.575  1.00  0.00    -0.217 A  
HETATM   19  C   UNL     1      -9.814   7.329  69.724  1.00  0.00    -0.177 A  
HETATM   20  C   UNL     1      -9.926   7.496  68.349  1.00  0.00    -0.185 A  
HETATM   21  C   UNL     1     -10.510   8.659  67.825  1.00  0.00    -0.287 A  
HETATM   22  C   UNL     1     -11.012   9.682  68.665  1.00  0.00    -0.152 A  
ENDBRANCH  12  13
ENDBRANCH   6  12
ENDBRANCH   5   6
ENDBRANCH   4   5
ENDBRANCH   2   4
TORSDOF 6
ENDMDL
MODEL      195
REMARK 921   NORMALIZED FREE ENERGY PREDICTED BY IDOCK:   -3.67 KCAL/MOL
REMARK 922        TOTAL FREE ENERGY PREDICTED BY IDOCK:   -5.85 KCAL/MOL
REMARK 923 INTER-LIGAND FREE ENERGY PREDICTED BY IDOCK:   -5.60 KCAL/MOL
REMARK 924 INTRA-LIGAND FREE ENERGY PREDICTED BY IDOCK:   -0.26 KCAL/MOL
REMARK 927      BINDING AFFINITY PREDICTED BY RF-SCORE:    0.00 PKD
ROOT
HETATM    1  C   UNL     1     -10.898   6.189  72.937  1.00  0.00    -0.260 C  
HETATM    2  N   UNL     1     -10.164   6.433  71.697  1.00  0.00    -0.194 NA 
HETATM    3  H   UNL     1     -10.773   6.371  70.881  1.00  0.00     0.000 HD 
ENDROOT
BRANCH   2   4
HETATM    4  C   UNL     1      -9.459   7.719  71.749  1.00  0.00    -0.151 C  
BRANCH   4   5
HETATM    5  C   UNL     1      -8.837   8.134  70.405  1.00  0.00    -0.141 C  
BRANCH   5   6
HETATM    6  C   UNL     1      -9.811   8.399  69.243  1.00  0.00    -0.186 C  
BRANCH   6   7
HETATM    7  C   UNL     1      -9.942   7.205  68.315  1.00  0.00    -0.156 A  
HETATM    8  C   UNL     1      -9.537   5.069  67.128  1.00  0.00    -0.152 A  
HETATM    9  S   UNL     1      -8.739   5.972  68.338  1.00  0.00    -0.112 SA 
HETATM   10  C   UNL     1     -10.914   6.925  67.371  1.00  0.00    -0.374 A  
HETATM   11  C   UNL     1     -10.683   5.692  66.691  1.00  0.00    -0.339 A  
ENDBRANCH   6   7
BRANCH   6  12
HETATM   12  O   UNL     1     -11.140   8.653  69.772  1.00  0.00    -0.190 OA 
BRANCH  12  13
HETATM   13  C   UNL     1     -11.508   9.974  69.940  1.00  0.00    -0.215 A  
HETATM   14  C   UNL     1     -12.421  11.774  71.291  1.00  0.00    -0.351 A  
HETATM   15  C   UNL     1     -12.005  10.454  71.158  1.00  0.00    -0.460 A  
HETATM   16  C   UNL     1     -12.325  12.642  70.209  1.00  0.00    -0.269 A  
HETATM   17  C   UNL     1     -11.769  12.218  68.998  1.00  0.00    -0.376 A  
HETATM   18  C   UNL     1     -11.652  13.128  67.937  1.00  0.00    -0.375 A  
HETATM   19  C   UNL     1     -11.057  12.757  66.734  1.00  0.00    -0.314 A  
HETATM   20  C   UNL     1     -10.569  11.465  66.584  1.00  0.00    -0.302 A  
HETATM   21  C   UNL     1     -10.705  10.534  67.624  1.00  0.00    -0.324 A  
HETATM   22  C   UNL     1     -11.321  10.877  68.852  1.00  0.00    -0.354 A  
ENDBRANCH  12  13
ENDBRANCH   6  12
ENDBRANCH   5   6
ENDBRANCH   4   5
ENDBRANCH   2   4
TORSDOF 6
ENDMDL
MODEL      196
REMARK 921   NORMALIZED FREE ENERGY PREDICTED BY IDOCK:   -3.66 KCAL/MOL
REMARK 922        TOTAL FREE ENERGY PREDICTED BY IDOCK:   -5.84 KCAL/MOL
REMARK 923 INTER-LIGAND FREE ENERGY PREDICTED BY IDOCK:   -5.47 KCAL/MOL
REMARK 924 INTRA-LIGAND FREE ENERGY PREDICTED BY IDOCK:   -0.37 KCAL/MOL
REMARK 927      BINDING AFFINITY PREDICTED BY RF-SCORE:    0.00 PKD
ROOT
HETATM    1  C   UNL     1     -11.811  11.320  69.212  1.00  0.00    -0.354 C  
HETATM    2  N   UNL     1     -12.671  10.285  69.783  1.00  0.00    -0.547 NA 
HETATM    3  H   UNL     1     -12.530   9.384  69.326  1.00  0.00     0.000 HD 
ENDROOT
BRANCH   2   4
HETATM    4  C   UNL     1     -12.486  10.190  71.235  1.00  0.00    -0.406 C  
BRANCH   4   5
HETATM    5  C   UNL     1     -12.467   8.745  71.760  1.00  0.00    -0.407 C  
BRANCH   5   6
HETATM    6  C   UNL     1     -11.203   7.917  71.468  1.00  0.00    -0.249 C  
BRANCH   6   7
HETATM    7  C   UNL     1     -11.039   6.753  72.428  1.00  0.00    -0.257 A  
HETATM    8  C   UNL     1     -10.249   5.282  74.257  1.00  0.00    -0.266 A  
HETATM    9  S   UNL     1      -9.826   6.820  73.648  1.00  0.00    -0.277 SA 
HETATM   10  C   UNL     1     -11.728   5.554  72.485  1.00  0.00    -0.222 A  
HETATM   11  C   UNL     1     -11.275   4.708  73.541  1.00  0.00    -0.400 A  
ENDBRANCH   6   7
BRANCH   6  12
HETATM   12  O   UNL     1     -11.297   7.340  70.137  1.00  0.00    -0.266 OA 
BRANCH  12  13
HETATM   13  C   UNL     1     -10.118   6.943  69.539  1.00  0.00    -0.173 A  
HETATM   14  C   UNL     1      -8.108   5.582  69.491  1.00  0.00    -0.101 A  
HETATM   15  C   UNL     1      -9.318   5.929  70.080  1.00  0.00    -0.171 A  
HETATM   16  C   UNL     1      -7.687   6.232  68.336  1.00  0.00    -0.104 A  
HETATM   17  C   UNL     1      -8.491   7.201  67.728  1.00  0.00    -0.120 A  
HETATM   18  C   UNL     1      -8.056   7.813  66.543  1.00  0.00    -0.111 A  
HETATM   19  C   UNL     1      -8.852   8.744  65.880  1.00  0.00    -0.222 A  
HETATM   20  C   UNL     1     -10.098   9.070  66.400  1.00  0.00    -0.351 A  
HETATM   21  C   UNL     1     -10.535   8.490  67.600  1.00  0.00    -0.308 A  
HETATM   22  C   UNL     1      -9.741   7.553  68.306  1.00  0.00    -0.163 A  
ENDBRANCH  12  13
ENDBRANCH   6  12
ENDBRANCH   5   6
ENDBRANCH   4   5
ENDBRANCH   2   4
TORSDOF 6
ENDMDL
MODEL      197
REMARK 921   NORMALIZED FREE ENERGY PREDICTED BY IDOCK:   -3.64 KCAL/MOL
REMARK 922        TOTAL FREE ENERGY PREDICTED BY IDOCK:   -5.81 KCAL/MOL
REMARK 923 INTER-LIGAND FREE ENERGY PREDICTED BY IDOCK:   -5.10 KCAL/MOL
REMARK 924 INTRA-LIGAND FREE ENERGY PREDICTED BY IDOCK:   -0.71 KCAL/MOL
REMARK 927      BINDING AFFINITY PREDICTED BY RF-SCORE:    0.00 PKD
ROOT
HETATM    1  C   UNL     1     -14.388   7.634  71.609  1.00  0.00    -0.477 C  
HETATM    2  N   UNL     1     -13.191   8.249  71.038  1.00  0.00    -0.510 NA 
HETATM    3  H   UNL     1     -13.039   9.189  71.403  1.00  0.00     0.000 HD 
ENDROOT
BRANCH   2   4
HETATM    4  C   UNL     1     -12.016   7.393  71.239  1.00  0.00    -0.313 C  
BRANCH   4   5
HETATM    5  C   UNL     1     -11.695   6.495  70.032  1.00  0.00    -0.388 C  
BRANCH   5   6
HETATM    6  C   UNL     1     -10.274   6.595  69.452  1.00  0.00    -0.183 C  
BRANCH   6   7
HETATM    7  C   UNL     1      -9.850   8.031  69.203  1.00  0.00    -0.178 A  
HETATM    8  C   UNL     1      -8.858  10.287  69.451  1.00  0.00    -0.163 A  
HETATM    9  S   UNL     1      -8.932   8.867  70.397  1.00  0.00    -0.201 SA 
HETATM   10  C   UNL     1     -10.108   8.851  68.119  1.00  0.00    -0.227 A  
HETATM   11  C   UNL     1      -9.533  10.149  68.260  1.00  0.00    -0.147 A  
ENDBRANCH   6   7
BRANCH   6  12
HETATM   12  O   UNL     1      -9.322   6.046  70.403  1.00  0.00    -0.157 OA 
BRANCH  12  13
HETATM   13  C   UNL     1      -9.387   4.689  70.647  1.00  0.00    -0.154 A  
HETATM   14  C   UNL     1      -9.180   2.382  69.918  1.00  0.00    -0.192 A  
HETATM   15  C   UNL     1      -9.054   3.744  69.669  1.00  0.00    -0.193 A  
HETATM   16  C   UNL     1      -9.621   1.943  71.162  1.00  0.00    -0.207 A  
HETATM   17  C   UNL     1      -9.895   2.854  72.186  1.00  0.00    -0.239 A  
HETATM   18  C   UNL     1     -10.302   2.378  73.441  1.00  0.00    -0.210 A  
HETATM   19  C   UNL     1     -10.534   3.251  74.501  1.00  0.00    -0.224 A  
HETATM   20  C   UNL     1     -10.357   4.616  74.311  1.00  0.00    -0.311 A  
HETATM   21  C   UNL     1      -9.979   5.111  73.055  1.00  0.00    -0.190 A  
HETATM   22  C   UNL     1      -9.753   4.249  71.954  1.00  0.00    -0.231 A  
ENDBRANCH  12  13
ENDBRANCH   6  12
ENDBRANCH   5   6
ENDBRANCH   4   5
ENDBRANCH   2   4
TORSDOF 6
ENDMDL
MODEL      198
REMARK 921   NORMALIZED FREE ENERGY PREDICTED BY IDOCK:   -3.63 KCAL/MOL
REMARK 922        TOTAL FREE ENERGY PREDICTED BY IDOCK:   -5.80 KCAL/MOL
REMARK 923 INTER-LIGAND FREE ENERGY PREDICTED BY IDOCK:   -5.54 KCAL/MOL
REMARK 924 INTRA-LIGAND FREE ENERGY PREDICTED BY IDOCK:   -0.26 KCAL/MOL
REMARK 927      BINDING AFFINITY PREDICTED BY RF-SCORE:    0.00 PKD
ROOT
HETATM    1  C   UNL     1     -12.971  10.466  71.086  1.00  0.00    -0.412 C  
HETATM    2  N   UNL     1     -11.904   9.598  70.591  1.00  0.00    -0.339 NA 
HETATM    3  H   UNL     1     -12.273   8.824  70.039  1.00  0.00     0.000 HD 
ENDROOT
BRANCH   2   4
HETATM    4  C   UNL     1     -10.907  10.370  69.840  1.00  0.00    -0.298 C  
BRANCH   4   5
HETATM    5  C   UNL     1     -11.111  10.321  68.316  1.00  0.00    -0.311 C  
BRANCH   5   6
HETATM    6  C   UNL     1      -9.844  10.367  67.445  1.00  0.00    -0.178 C  
BRANCH   6   7
HETATM    7  C   UNL     1      -9.245   8.990  67.222  1.00  0.00    -0.134 A  
HETATM    8  C   UNL     1      -7.888   6.930  67.447  1.00  0.00    -0.111 A  
HETATM    9  S   UNL     1      -8.023   8.410  68.288  1.00  0.00    -0.120 SA 
HETATM   10  C   UNL     1      -9.512   8.062  66.230  1.00  0.00    -0.241 A  
HETATM   11  C   UNL     1      -8.733   6.874  66.363  1.00  0.00    -0.147 A  
ENDBRANCH   6   7
BRANCH   6  12
HETATM   12  O   UNL     1     -10.177  10.886  66.129  1.00  0.00    -0.235 OA 
BRANCH  12  13
HETATM   13  C   UNL     1     -10.648  12.182  66.065  1.00  0.00    -0.257 A  
HETATM   14  C   UNL     1     -12.397  13.789  65.559  1.00  0.00    -0.507 A  
HETATM   15  C   UNL     1     -11.960  12.474  65.670  1.00  0.00    -0.492 A  
HETATM   16  C   UNL     1     -11.533  14.834  65.865  1.00  0.00    -0.319 A  
HETATM   17  C   UNL     1     -10.240  14.581  66.330  1.00  0.00    -0.293 A  
HETATM   18  C   UNL     1      -9.404  15.657  66.665  1.00  0.00    -0.291 A  
HETATM   19  C   UNL     1      -8.129  15.444  67.181  1.00  0.00    -0.249 A  
HETATM   20  C   UNL     1      -7.677  14.143  67.368  1.00  0.00    -0.189 A  
HETATM   21  C   UNL     1      -8.488  13.056  67.010  1.00  0.00    -0.142 A  
HETATM   22  C   UNL     1      -9.783  13.242  66.468  1.00  0.00    -0.273 A  
ENDBRANCH  12  13
ENDBRANCH   6  12
ENDBRANCH   5   6
ENDBRANCH   4   5
ENDBRANCH   2   4
TORSDOF 6
ENDMDL
MODEL      199
REMARK 921   NORMALIZED FREE ENERGY PREDICTED BY IDOCK:   -3.62 KCAL/MOL
REMARK 922        TOTAL FREE ENERGY PREDICTED BY IDOCK:   -5.78 KCAL/MOL
REMARK 923 INTER-LIGAND FREE ENERGY PREDICTED BY IDOCK:   -5.07 KCAL/MOL
REMARK 924 INTRA-LIGAND FREE ENERGY PREDICTED BY IDOCK:   -0.71 KCAL/MOL
REMARK 927      BINDING AFFINITY PREDICTED BY RF-SCORE:    0.00 PKD
ROOT
HETATM    1  C   UNL     1      -7.469   5.713  63.770  1.00  0.00    -0.064 C  
HETATM    2  N   UNL     1      -8.647   6.357  64.348  1.00  0.00    -0.339 NA 
HETATM    3  H   UNL     1      -9.504   5.859  64.110  1.00  0.00     0.000 HD 
ENDROOT
BRANCH   2   4
HETATM    4  C   UNL     1      -8.499   6.516  65.799  1.00  0.00    -0.148 C  
BRANCH   4   5
HETATM    5  C   UNL     1      -8.932   7.899  66.314  1.00  0.00    -0.207 C  
BRANCH   5   6
HETATM    6  C   UNL     1      -8.890   8.117  67.836  1.00  0.00    -0.131 C  
BRANCH   6   7
HETATM    7  C   UNL     1      -7.749   9.023  68.261  1.00  0.00    -0.095 A  
HETATM    8  C   UNL     1      -5.580  10.215  68.362  1.00  0.00    -0.038 A  
HETATM    9  S   UNL     1      -6.298   9.057  67.333  1.00  0.00    -0.060 SA 
HETATM   10  C   UNL     1      -7.655   9.871  69.350  1.00  0.00    -0.113 A  
HETATM   11  C   UNL     1      -6.407  10.561  69.406  1.00  0.00    -0.056 A  
ENDBRANCH   6   7
BRANCH   6  12
HETATM   12  O   UNL     1     -10.114   8.771  68.268  1.00  0.00    -0.175 OA 
BRANCH  12  13
HETATM   13  C   UNL     1     -10.768   8.228  69.356  1.00  0.00    -0.151 A  
HETATM   14  C   UNL     1     -11.394   6.329  70.734  1.00  0.00    -0.397 A  
HETATM   15  C   UNL     1     -10.683   6.865  69.666  1.00  0.00    -0.276 A  
HETATM   16  C   UNL     1     -12.186   7.155  71.524  1.00  0.00    -0.396 A  
HETATM   17  C   UNL     1     -12.240   8.532  71.288  1.00  0.00    -0.310 A  
HETATM   18  C   UNL     1     -13.019   9.345  72.125  1.00  0.00    -0.503 A  
HETATM   19  C   UNL     1     -13.057  10.726  71.954  1.00  0.00    -0.557 A  
HETATM   20  C   UNL     1     -12.309  11.309  70.939  1.00  0.00    -0.490 A  
HETATM   21  C   UNL     1     -11.549  10.508  70.074  1.00  0.00    -0.392 A  
HETATM   22  C   UNL     1     -11.504   9.099  70.212  1.00  0.00    -0.174 A  
ENDBRANCH  12  13
ENDBRANCH   6  12
ENDBRANCH   5   6
ENDBRANCH   4   5
ENDBRANCH   2   4
TORSDOF 6
ENDMDL
MODEL      200
REMARK 921   NORMALIZED FREE ENERGY PREDICTED BY IDOCK:   -3.61 KCAL/MOL
REMARK 922        TOTAL FREE ENERGY PREDICTED BY IDOCK:   -5.78 KCAL/MOL
REMARK 923 INTER-LIGAND FREE ENERGY PREDICTED BY IDOCK:   -4.99 KCAL/MOL
REMARK 924 INTRA-LIGAND FREE ENERGY PREDICTED BY IDOCK:   -0.80 KCAL/MOL
REMARK 927      BINDING AFFINITY PREDICTED BY RF-SCORE:    0.00 PKD
ROOT
HETATM    1  C   UNL     1      -6.715   6.532  72.657  1.00  0.00    -0.064 C  
HETATM    2  N   UNL     1      -7.888   7.402  72.596  1.00  0.00    -0.093 NA 
HETATM    3  H   UNL     1      -7.798   8.104  71.862  1.00  0.00     0.000 HD 
ENDROOT
BRANCH   2   4
HETATM    4  C   UNL     1      -9.117   6.615  72.445  1.00  0.00    -0.135 C  
BRANCH   4   5
HETATM    5  C   UNL     1      -9.739   6.709  71.042  1.00  0.00    -0.185 C  
BRANCH   5   6
HETATM    6  C   UNL     1      -9.617   8.061  70.319  1.00  0.00    -0.171 C  
BRANCH   6   7
HETATM    7  C   UNL     1      -8.657   8.004  69.144  1.00  0.00    -0.137 A  
HETATM    8  C   UNL     1      -6.838   8.514  67.541  1.00  0.00    -0.071 A  
HETATM    9  S   UNL     1      -7.457   9.227  68.965  1.00  0.00    -0.074 SA 
HETATM   10  C   UNL     1      -8.586   7.090  68.107  1.00  0.00    -0.128 A  
HETATM   11  C   UNL     1      -7.535   7.382  67.187  1.00  0.00    -0.106 A  
ENDBRANCH   6   7
BRANCH   6  12
HETATM   12  O   UNL     1     -10.909   8.439  69.773  1.00  0.00    -0.238 OA 
BRANCH  12  13
HETATM   13  C   UNL     1     -11.592   9.452  70.416  1.00  0.00    -0.192 A  
HETATM   14  C   UNL     1     -13.057  10.246  72.182  1.00  0.00    -0.444 A  
HETATM   15  C   UNL     1     -12.333   9.222  71.582  1.00  0.00    -0.450 A  
HETATM   16  C   UNL     1     -13.034  11.524  71.635  1.00  0.00    -0.499 A  
HETATM   17  C   UNL     1     -12.251  11.808  70.513  1.00  0.00    -0.438 A  
HETATM   18  C   UNL     1     -12.220  13.116  70.007  1.00  0.00    -0.323 A  
HETATM   19  C   UNL     1     -11.412  13.449  68.923  1.00  0.00    -0.347 A  
HETATM   20  C   UNL     1     -10.622  12.469  68.335  1.00  0.00    -0.256 A  
HETATM   21  C   UNL     1     -10.664  11.150  68.809  1.00  0.00    -0.236 A  
HETATM   22  C   UNL     1     -11.488  10.777  69.899  1.00  0.00    -0.398 A  
ENDBRANCH  12  13
ENDBRANCH   6  12
ENDBRANCH   5   6
ENDBRANCH   4   5
ENDBRANCH   2   4
TORSDOF 6
ENDMDL
MODEL      201
REMARK 921   NORMALIZED FREE ENERGY PREDICTED BY IDOCK:   -3.61 KCAL/MOL
REMARK 922        TOTAL FREE ENERGY PREDICTED BY IDOCK:   -5.77 KCAL/MOL
REMARK 923 INTER-LIGAND FREE ENERGY PREDICTED BY IDOCK:   -5.17 KCAL/MOL
REMARK 924 INTRA-LIGAND FREE ENERGY PREDICTED BY IDOCK:   -0.60 KCAL/MOL
REMARK 927      BINDING AFFINITY PREDICTED BY RF-SCORE:    0.00 PKD
ROOT
HETATM    1  C   UNL     1      -6.530   8.129  65.113  1.00  0.00    -0.052 C  
HETATM    2  N   UNL     1      -7.855   8.736  65.225  1.00  0.00    -0.104 NA 
HETATM    3  H   UNL     1      -8.589   8.030  65.282  1.00  0.00     0.000 HD 
ENDROOT
BRANCH   2   4
HETATM    4  C   UNL     1      -7.911   9.667  66.358  1.00  0.00    -0.108 C  
BRANCH   4   5
HETATM    5  C   UNL     1      -7.789   8.978  67.727  1.00  0.00    -0.101 C  
BRANCH   5   6
HETATM    6  C   UNL     1      -9.086   8.430  68.346  1.00  0.00    -0.135 C  
BRANCH   6   7
HETATM    7  C   UNL     1      -9.477   7.081  67.768  1.00  0.00    -0.124 A  
HETATM    8  C   UNL     1      -9.425   4.731  66.989  1.00  0.00    -0.152 A  
HETATM    9  S   UNL     1      -8.311   5.816  67.693  1.00  0.00    -0.103 SA 
HETATM   10  C   UNL     1     -10.685   6.668  67.233  1.00  0.00    -0.427 A  
HETATM   11  C   UNL     1     -10.656   5.312  66.789  1.00  0.00    -0.309 A  
ENDBRANCH   6   7
BRANCH   6  12
HETATM   12  O   UNL     1      -8.896   8.224  69.771  1.00  0.00    -0.139 OA 
BRANCH  12  13
HETATM   13  C   UNL     1      -9.991   7.797  70.497  1.00  0.00    -0.187 A  
HETATM   14  C   UNL     1     -11.207   6.074  71.701  1.00  0.00    -0.328 A  
HETATM   15  C   UNL     1     -10.072   6.500  71.020  1.00  0.00    -0.208 A  
HETATM   16  C   UNL     1     -12.272   6.947  71.888  1.00  0.00    -0.370 A  
HETATM   17  C   UNL     1     -12.199   8.270  71.441  1.00  0.00    -0.328 A  
HETATM   18  C   UNL     1     -13.276   9.138  71.677  1.00  0.00    -0.438 A  
HETATM   19  C   UNL     1     -13.219  10.475  71.294  1.00  0.00    -0.399 A  
HETATM   20  C   UNL     1     -12.077  10.958  70.669  1.00  0.00    -0.468 A  
HETATM   21  C   UNL     1     -11.003  10.097  70.398  1.00  0.00    -0.386 A  
HETATM   22  C   UNL     1     -11.038   8.728  70.761  1.00  0.00    -0.306 A  
ENDBRANCH  12  13
ENDBRANCH   6  12
ENDBRANCH   5   6
ENDBRANCH   4   5
ENDBRANCH   2   4
TORSDOF 6
ENDMDL
MODEL      202
REMARK 921   NORMALIZED FREE ENERGY PREDICTED BY IDOCK:   -3.61 KCAL/MOL
REMARK 922        TOTAL FREE ENERGY PREDICTED BY IDOCK:   -5.77 KCAL/MOL
REMARK 923 INTER-LIGAND FREE ENERGY PREDICTED BY IDOCK:   -5.39 KCAL/MOL
REMARK 924 INTRA-LIGAND FREE ENERGY PREDICTED BY IDOCK:   -0.38 KCAL/MOL
REMARK 927      BINDING AFFINITY PREDICTED BY RF-SCORE:    0.00 PKD
ROOT
HETATM    1  C   UNL     1     -11.851   6.494  71.762  1.00  0.00    -0.335 C  
HETATM    2  N   UNL     1     -11.467   7.295  70.601  1.00  0.00    -0.290 NA 
HETATM    3  H   UNL     1     -10.626   7.843  70.782  1.00  0.00     0.000 HD 
ENDROOT
BRANCH   2   4
HETATM    4  C   UNL     1     -11.316   6.452  69.409  1.00  0.00    -0.377 C  
BRANCH   4   5
HETATM    5  C   UNL     1     -10.819   7.219  68.172  1.00  0.00    -0.130 C  
BRANCH   5   6
HETATM    6  C   UNL     1      -9.329   7.072  67.819  1.00  0.00    -0.125 C  
BRANCH   6   7
HETATM    7  C   UNL     1      -9.109   6.226  66.578  1.00  0.00    -0.153 A  
HETATM    8  C   UNL     1      -9.288   4.459  64.851  1.00  0.00    -0.163 A  
HETATM    9  S   UNL     1     -10.069   4.817  66.327  1.00  0.00    -0.282 SA 
HETATM   10  C   UNL     1      -8.195   6.386  65.552  1.00  0.00    -0.142 A  
HETATM   11  C   UNL     1      -8.301   5.371  64.555  1.00  0.00    -0.138 A  
ENDBRANCH   6   7
BRANCH   6  12
HETATM   12  O   UNL     1      -8.768   8.380  67.526  1.00  0.00    -0.134 OA 
BRANCH  12  13
HETATM   13  C   UNL     1      -9.589   9.474  67.717  1.00  0.00    -0.133 A  
HETATM   14  C   UNL     1     -10.814  10.989  69.165  1.00  0.00    -0.283 A  
HETATM   15  C   UNL     1      -9.943   9.919  68.996  1.00  0.00    -0.193 A  
HETATM   16  C   UNL     1     -11.329  11.646  68.053  1.00  0.00    -0.366 A  
HETATM   17  C   UNL     1     -10.944  11.275  66.761  1.00  0.00    -0.339 A  
HETATM   18  C   UNL     1     -11.452  11.981  65.661  1.00  0.00    -0.372 A  
HETATM   19  C   UNL     1     -11.052  11.675  64.363  1.00  0.00    -0.382 A  
HETATM   20  C   UNL     1     -10.132  10.655  64.155  1.00  0.00    -0.402 A  
HETATM   21  C   UNL     1      -9.636   9.919  65.242  1.00  0.00    -0.361 A  
HETATM   22  C   UNL     1     -10.038  10.196  66.572  1.00  0.00    -0.296 A  
ENDBRANCH  12  13
ENDBRANCH   6  12
ENDBRANCH   5   6
ENDBRANCH   4   5
ENDBRANCH   2   4
TORSDOF 6
ENDMDL
MODEL      203
REMARK 921   NORMALIZED FREE ENERGY PREDICTED BY IDOCK:   -3.61 KCAL/MOL
REMARK 922        TOTAL FREE ENERGY PREDICTED BY IDOCK:   -5.77 KCAL/MOL
REMARK 923 INTER-LIGAND FREE ENERGY PREDICTED BY IDOCK:   -4.88 KCAL/MOL
REMARK 924 INTRA-LIGAND FREE ENERGY PREDICTED BY IDOCK:   -0.89 KCAL/MOL
REMARK 927      BINDING AFFINITY PREDICTED BY RF-SCORE:    0.00 PKD
ROOT
HETATM    1  C   UNL     1      -9.291   2.743  70.392  1.00  0.00    -0.147 C  
HETATM    2  N   UNL     1      -9.114   3.417  71.677  1.00  0.00    -0.103 NA 
HETATM    3  H   UNL     1      -8.136   3.652  71.847  1.00  0.00     0.000 HD 
ENDROOT
BRANCH   2   4
HETATM    4  C   UNL     1      -9.980   4.597  71.774  1.00  0.00    -0.192 C  
BRANCH   4   5
HETATM    5  C   UNL     1     -10.136   5.356  70.445  1.00  0.00    -0.314 C  
BRANCH   5   6
HETATM    6  C   UNL     1      -9.715   6.836  70.439  1.00  0.00    -0.175 C  
BRANCH   6   7
HETATM    7  C   UNL     1      -8.265   7.023  70.032  1.00  0.00    -0.133 A  
HETATM    8  C   UNL     1      -5.795   7.208  70.075  1.00  0.00    -0.024 A  
HETATM    9  S   UNL     1      -7.025   6.912  71.222  1.00  0.00    -0.063 SA 
HETATM   10  C   UNL     1      -7.728   7.309  68.789  1.00  0.00    -0.119 A  
HETATM   11  C   UNL     1      -6.305   7.411  68.813  1.00  0.00    -0.036 A  
ENDBRANCH   6   7
BRANCH   6  12
HETATM   12  O   UNL     1     -10.510   7.563  69.464  1.00  0.00    -0.218 OA 
BRANCH  12  13
HETATM   13  C   UNL     1     -11.004   8.795  69.847  1.00  0.00    -0.179 A  
HETATM   14  C   UNL     1     -11.978  10.275  71.507  1.00  0.00    -0.357 A  
HETATM   15  C   UNL     1     -11.434   9.045  71.156  1.00  0.00    -0.376 A  
HETATM   16  C   UNL     1     -12.080  11.285  70.556  1.00  0.00    -0.481 A  
HETATM   17  C   UNL     1     -11.596  11.096  69.258  1.00  0.00    -0.388 A  
HETATM   18  C   UNL     1     -11.679  12.146  68.331  1.00  0.00    -0.388 A  
HETATM   19  C   UNL     1     -11.161  12.013  67.045  1.00  0.00    -0.377 A  
HETATM   20  C   UNL     1     -10.551  10.821  66.675  1.00  0.00    -0.291 A  
HETATM   21  C   UNL     1     -10.486   9.751  67.580  1.00  0.00    -0.309 A  
HETATM   22  C   UNL     1     -11.019   9.850  68.888  1.00  0.00    -0.214 A  
ENDBRANCH  12  13
ENDBRANCH   6  12
ENDBRANCH   5   6
ENDBRANCH   4   5
ENDBRANCH   2   4
TORSDOF 6
ENDMDL
MODEL      204
REMARK 921   NORMALIZED FREE ENERGY PREDICTED BY IDOCK:   -3.60 KCAL/MOL
REMARK 922        TOTAL FREE ENERGY PREDICTED BY IDOCK:   -5.77 KCAL/MOL
REMARK 923 INTER-LIGAND FREE ENERGY PREDICTED BY IDOCK:   -5.04 KCAL/MOL
REMARK 924 INTRA-LIGAND FREE ENERGY PREDICTED BY IDOCK:   -0.73 KCAL/MOL
REMARK 927      BINDING AFFINITY PREDICTED BY RF-SCORE:    0.00 PKD
ROOT
HETATM    1  C   UNL     1      -9.115   9.250  64.730  1.00  0.00    -0.144 C  
HETATM    2  N   UNL     1     -10.190   9.320  65.719  1.00  0.00    -0.288 NA 
HETATM    3  H   UNL     1     -10.388   8.405  66.125  1.00  0.00     0.000 HD 
ENDROOT
BRANCH   2   4
HETATM    4  C   UNL     1      -9.888  10.317  66.751  1.00  0.00    -0.197 C  
BRANCH   4   5
HETATM    5  C   UNL     1     -11.091  10.660  67.646  1.00  0.00    -0.385 C  
BRANCH   5   6
HETATM    6  C   UNL     1     -10.789  10.991  69.117  1.00  0.00    -0.237 C  
BRANCH   6   7
HETATM    7  C   UNL     1     -11.568  12.196  69.611  1.00  0.00    -0.291 A  
HETATM    8  C   UNL     1     -13.041  13.690  70.928  1.00  0.00    -0.114 A  
HETATM    9  S   UNL     1     -12.546  12.059  71.022  1.00  0.00    -0.175 SA 
HETATM   10  C   UNL     1     -11.654  13.470  69.077  1.00  0.00    -0.356 A  
HETATM   11  C   UNL     1     -12.498  14.332  69.838  1.00  0.00    -0.315 A  
ENDBRANCH   6   7
BRANCH   6  12
HETATM   12  O   UNL     1     -11.187   9.874  69.958  1.00  0.00    -0.251 OA 
BRANCH  12  13
HETATM   13  C   UNL     1     -10.179   9.152  70.564  1.00  0.00    -0.235 A  
HETATM   14  C   UNL     1      -7.839   8.816  71.121  1.00  0.00    -0.161 A  
HETATM   15  C   UNL     1      -8.847   9.586  70.553  1.00  0.00    -0.253 A  
HETATM   16  C   UNL     1      -8.152   7.606  71.731  1.00  0.00    -0.112 A  
HETATM   17  C   UNL     1      -9.478   7.173  71.823  1.00  0.00    -0.160 A  
HETATM   18  C   UNL     1      -9.766   5.965  72.477  1.00  0.00    -0.172 A  
HETATM   19  C   UNL     1     -11.078   5.527  72.635  1.00  0.00    -0.334 A  
HETATM   20  C   UNL     1     -12.119   6.300  72.138  1.00  0.00    -0.304 A  
HETATM   21  C   UNL     1     -11.848   7.495  71.456  1.00  0.00    -0.324 A  
HETATM   22  C   UNL     1     -10.523   7.958  71.265  1.00  0.00    -0.233 A  
ENDBRANCH  12  13
ENDBRANCH   6  12
ENDBRANCH   5   6
ENDBRANCH   4   5
ENDBRANCH   2   4
TORSDOF 6
ENDMDL
MODEL      205
REMARK 921   NORMALIZED FREE ENERGY PREDICTED BY IDOCK:   -3.58 KCAL/MOL
REMARK 922        TOTAL FREE ENERGY PREDICTED BY IDOCK:   -5.74 KCAL/MOL
REMARK 923 INTER-LIGAND FREE ENERGY PREDICTED BY IDOCK:   -5.25 KCAL/MOL
REMARK 924 INTRA-LIGAND FREE ENERGY PREDICTED BY IDOCK:   -0.49 KCAL/MOL
REMARK 927      BINDING AFFINITY PREDICTED BY RF-SCORE:    0.00 PKD
ROOT
HETATM    1  C   UNL     1      -9.880   9.853  65.535  1.00  0.00    -0.311 C  
HETATM    2  N   UNL     1      -9.915   8.517  66.127  1.00  0.00    -0.468 NA 
HETATM    3  H   UNL     1      -9.411   7.838  65.557  1.00  0.00     0.000 HD 
ENDROOT
BRANCH   2   4
HETATM    4  C   UNL     1      -9.416   8.542  67.507  1.00  0.00    -0.149 C  
BRANCH   4   5
HETATM    5  C   UNL     1     -10.447   8.063  68.543  1.00  0.00    -0.200 C  
BRANCH   5   6
HETATM    6  C   UNL     1     -10.328   8.648  69.961  1.00  0.00    -0.207 C  
BRANCH   6   7
HETATM    7  C   UNL     1     -11.230   9.851  70.167  1.00  0.00    -0.289 A  
HETATM    8  C   UNL     1     -12.994  11.377  71.002  1.00  0.00    -0.187 A  
HETATM    9  S   UNL     1     -12.484   9.784  71.346  1.00  0.00    -0.416 SA 
HETATM   10  C   UNL     1     -11.235  11.072  69.514  1.00  0.00    -0.343 A  
HETATM   11  C   UNL     1     -12.248  11.952  69.999  1.00  0.00    -0.291 A  
ENDBRANCH   6   7
BRANCH   6  12
HETATM   12  O   UNL     1     -10.746   7.652  70.934  1.00  0.00    -0.229 OA 
BRANCH  12  13
HETATM   13  C   UNL     1      -9.911   7.438  72.012  1.00  0.00    -0.162 A  
HETATM   14  C   UNL     1      -8.116   8.141  73.488  1.00  0.00    -0.261 A  
HETATM   15  C   UNL     1      -8.984   8.399  72.434  1.00  0.00    -0.309 A  
HETATM   16  C   UNL     1      -8.176   6.921  74.153  1.00  0.00    -0.153 A  
HETATM   17  C   UNL     1      -9.134   5.964  73.806  1.00  0.00    -0.127 A  
HETATM   18  C   UNL     1      -9.193   4.758  74.520  1.00  0.00    -0.118 A  
HETATM   19  C   UNL     1     -10.166   3.803  74.238  1.00  0.00    -0.237 A  
HETATM   20  C   UNL     1     -11.095   4.050  73.235  1.00  0.00    -0.301 A  
HETATM   21  C   UNL     1     -11.031   5.238  72.492  1.00  0.00    -0.298 A  
HETATM   22  C   UNL     1     -10.043   6.220  72.743  1.00  0.00    -0.194 A  
ENDBRANCH  12  13
ENDBRANCH   6  12
ENDBRANCH   5   6
ENDBRANCH   4   5
ENDBRANCH   2   4
TORSDOF 6
ENDMDL
MODEL      206
REMARK 921   NORMALIZED FREE ENERGY PREDICTED BY IDOCK:   -3.57 KCAL/MOL
REMARK 922        TOTAL FREE ENERGY PREDICTED BY IDOCK:   -5.72 KCAL/MOL
REMARK 923 INTER-LIGAND FREE ENERGY PREDICTED BY IDOCK:   -4.87 KCAL/MOL
REMARK 924 INTRA-LIGAND FREE ENERGY PREDICTED BY IDOCK:   -0.85 KCAL/MOL
REMARK 927      BINDING AFFINITY PREDICTED BY RF-SCORE:    0.00 PKD
ROOT
HETATM    1  C   UNL     1     -10.807  19.808  65.397  1.00  0.00    -0.019 C  
HETATM    2  N   UNL     1     -10.559  18.780  66.405  1.00  0.00    -0.405 NA 
HETATM    3  H   UNL     1      -9.602  18.429  66.358  1.00  0.00     0.000 HD 
ENDROOT
BRANCH   2   4
HETATM    4  C   UNL     1     -10.890  19.272  67.748  1.00  0.00    -0.308 C  
BRANCH   4   5
HETATM    5  C   UNL     1      -9.968  18.721  68.849  1.00  0.00    -0.423 C  
BRANCH   5   6
HETATM    6  C   UNL     1      -8.825  17.795  68.398  1.00  0.00    -0.285 C  
BRANCH   6   7
HETATM    7  C   UNL     1      -7.473  18.484  68.436  1.00  0.00    -0.296 A  
HETATM    8  C   UNL     1      -5.626  20.102  68.108  1.00  0.00    -0.211 A  
HETATM    9  S   UNL     1      -7.265  19.997  67.639  1.00  0.00    -0.291 SA 
HETATM   10  C   UNL     1      -6.289  18.071  69.022  1.00  0.00    -0.236 A  
HETATM   11  C   UNL     1      -5.227  19.005  68.837  1.00  0.00    -0.194 A  
ENDBRANCH   6   7
BRANCH   6  12
HETATM   12  O   UNL     1      -8.732  16.662  69.302  1.00  0.00    -0.178 OA 
BRANCH  12  13
HETATM   13  C   UNL     1      -9.361  15.495  68.915  1.00  0.00    -0.222 A  
HETATM   14  C   UNL     1     -11.360  14.146  68.632  1.00  0.00    -0.306 A  
HETATM   15  C   UNL     1     -10.752  15.348  68.975  1.00  0.00    -0.242 A  
HETATM   16  C   UNL     1     -10.584  13.075  68.201  1.00  0.00    -0.257 A  
HETATM   17  C   UNL     1      -9.199  13.206  68.060  1.00  0.00    -0.211 A  
HETATM   18  C   UNL     1      -8.448  12.120  67.588  1.00  0.00    -0.163 A  
HETATM   19  C   UNL     1      -7.075  12.228  67.385  1.00  0.00    -0.151 A  
HETATM   20  C   UNL     1      -6.439  13.433  67.654  1.00  0.00    -0.169 A  
HETATM   21  C   UNL     1      -7.170  14.521  68.156  1.00  0.00    -0.132 A  
HETATM   22  C   UNL     1      -8.564  14.435  68.388  1.00  0.00    -0.174 A  
ENDBRANCH  12  13
ENDBRANCH   6  12
ENDBRANCH   5   6
ENDBRANCH   4   5
ENDBRANCH   2   4
TORSDOF 6
ENDMDL
MODEL      207
REMARK 921   NORMALIZED FREE ENERGY PREDICTED BY IDOCK:   -3.57 KCAL/MOL
REMARK 922        TOTAL FREE ENERGY PREDICTED BY IDOCK:   -5.72 KCAL/MOL
REMARK 923 INTER-LIGAND FREE ENERGY PREDICTED BY IDOCK:   -4.93 KCAL/MOL
REMARK 924 INTRA-LIGAND FREE ENERGY PREDICTED BY IDOCK:   -0.78 KCAL/MOL
REMARK 927      BINDING AFFINITY PREDICTED BY RF-SCORE:    0.00 PKD
ROOT
HETATM    1  C   UNL     1     -11.134  16.704  68.678  1.00  0.00    -0.294 C  
HETATM    2  N   UNL     1     -11.929  15.480  68.748  1.00  0.00    -0.552 NA 
HETATM    3  H   UNL     1     -12.806  15.627  69.247  1.00  0.00     0.000 HD 
ENDROOT
BRANCH   2   4
HETATM    4  C   UNL     1     -12.156  14.926  67.408  1.00  0.00     0.004 C  
BRANCH   4   5
HETATM    5  C   UNL     1     -11.546  13.528  67.209  1.00  0.00    -0.398 C  
BRANCH   5   6
HETATM    6  C   UNL     1     -10.415  13.407  66.172  1.00  0.00    -0.295 C  
BRANCH   6   7
HETATM    7  C   UNL     1      -9.329  14.449  66.377  1.00  0.00    -0.258 A  
HETATM    8  C   UNL     1      -7.328  15.658  67.193  1.00  0.00    -0.212 A  
HETATM    9  S   UNL     1      -8.086  14.167  67.535  1.00  0.00    -0.194 SA 
HETATM   10  C   UNL     1      -9.164  15.681  65.768  1.00  0.00    -0.247 A  
HETATM   11  C   UNL     1      -8.008  16.375  66.235  1.00  0.00    -0.264 A  
ENDBRANCH   6   7
BRANCH   6  12
HETATM   12  O   UNL     1      -9.770  12.112  66.306  1.00  0.00    -0.228 OA 
BRANCH  12  13
HETATM   13  C   UNL     1      -9.560  11.391  65.148  1.00  0.00    -0.229 A  
HETATM   14  C   UNL     1      -9.900  11.036  62.770  1.00  0.00    -0.262 A  
HETATM   15  C   UNL     1     -10.077  11.806  63.914  1.00  0.00    -0.399 A  
HETATM   16  C   UNL     1      -9.184   9.846  62.839  1.00  0.00    -0.287 A  
HETATM   17  C   UNL     1      -8.593   9.435  64.037  1.00  0.00    -0.222 A  
HETATM   18  C   UNL     1      -7.845   8.249  64.066  1.00  0.00    -0.146 A  
HETATM   19  C   UNL     1      -7.200   7.833  65.228  1.00  0.00    -0.068 A  
HETATM   20  C   UNL     1      -7.297   8.608  66.377  1.00  0.00    -0.080 A  
HETATM   21  C   UNL     1      -8.066   9.782  66.373  1.00  0.00    -0.116 A  
HETATM   22  C   UNL     1      -8.747  10.221  65.212  1.00  0.00    -0.186 A  
ENDBRANCH  12  13
ENDBRANCH   6  12
ENDBRANCH   5   6
ENDBRANCH   4   5
ENDBRANCH   2   4
TORSDOF 6
ENDMDL
MODEL      208
REMARK 921   NORMALIZED FREE ENERGY PREDICTED BY IDOCK:   -3.56 KCAL/MOL
REMARK 922        TOTAL FREE ENERGY PREDICTED BY IDOCK:   -5.70 KCAL/MOL
REMARK 923 INTER-LIGAND FREE ENERGY PREDICTED BY IDOCK:   -4.96 KCAL/MOL
REMARK 924 INTRA-LIGAND FREE ENERGY PREDICTED BY IDOCK:   -0.74 KCAL/MOL
REMARK 927      BINDING AFFINITY PREDICTED BY RF-SCORE:    0.00 PKD
ROOT
HETATM    1  C   UNL     1      -7.000   5.436  68.552  1.00  0.00    -0.061 C  
HETATM    2  N   UNL     1      -6.728   6.531  69.481  1.00  0.00    -0.051 NA 
HETATM    3  H   UNL     1      -5.899   6.348  70.046  1.00  0.00     0.000 HD 
ENDROOT
BRANCH   2   4
HETATM    4  C   UNL     1      -6.627   7.810  68.770  1.00  0.00    -0.049 C  
BRANCH   4   5
HETATM    5  C   UNL     1      -7.852   8.125  67.895  1.00  0.00    -0.122 C  
BRANCH   5   6
HETATM    6  C   UNL     1      -8.942   9.012  68.521  1.00  0.00    -0.133 C  
BRANCH   6   7
HETATM    7  C   UNL     1      -9.092  10.340  67.801  1.00  0.00    -0.134 A  
HETATM    8  C   UNL     1      -9.446  12.065  66.059  1.00  0.00    -0.219 A  
HETATM    9  S   UNL     1      -9.414  10.358  66.109  1.00  0.00    -0.191 SA 
HETATM   10  C   UNL     1      -8.988  11.628  68.295  1.00  0.00    -0.185 A  
HETATM   11  C   UNL     1      -9.196  12.621  67.292  1.00  0.00    -0.195 A  
ENDBRANCH   6   7
BRANCH   6  12
HETATM   12  O   UNL     1     -10.228   8.344  68.421  1.00  0.00    -0.197 OA 
BRANCH  12  13
HETATM   13  C   UNL     1     -10.780   7.864  69.592  1.00  0.00    -0.218 A  
HETATM   14  C   UNL     1     -11.163   6.075  71.189  1.00  0.00    -0.328 A  
HETATM   15  C   UNL     1     -10.553   6.555  70.036  1.00  0.00    -0.280 A  
HETATM   16  C   UNL     1     -11.995   6.906  71.930  1.00  0.00    -0.363 A  
HETATM   17  C   UNL     1     -12.191   8.239  71.558  1.00  0.00    -0.334 A  
HETATM   18  C   UNL     1     -13.007   9.063  72.347  1.00  0.00    -0.471 A  
HETATM   19  C   UNL     1     -13.184  10.409  72.037  1.00  0.00    -0.497 A  
HETATM   20  C   UNL     1     -12.540  10.945  70.929  1.00  0.00    -0.494 A  
HETATM   21  C   UNL     1     -11.744  10.128  70.113  1.00  0.00    -0.330 A  
HETATM   22  C   UNL     1     -11.559   8.752  70.392  1.00  0.00    -0.105 A  
ENDBRANCH  12  13
ENDBRANCH   6  12
ENDBRANCH   5   6
ENDBRANCH   4   5
ENDBRANCH   2   4
TORSDOF 6
ENDMDL
MODEL      209
REMARK 921   NORMALIZED FREE ENERGY PREDICTED BY IDOCK:   -3.56 KCAL/MOL
REMARK 922        TOTAL FREE ENERGY PREDICTED BY IDOCK:   -5.70 KCAL/MOL
REMARK 923 INTER-LIGAND FREE ENERGY PREDICTED BY IDOCK:   -4.98 KCAL/MOL
REMARK 924 INTRA-LIGAND FREE ENERGY PREDICTED BY IDOCK:   -0.72 KCAL/MOL
REMARK 927      BINDING AFFINITY PREDICTED BY RF-SCORE:    0.00 PKD
ROOT
HETATM    1  C   UNL     1      -6.903  11.043  69.668  1.00  0.00    -0.129 C  
HETATM    2  N   UNL     1      -8.250  11.041  69.100  1.00  0.00    -0.336 NA 
HETATM    3  H   UNL     1      -8.440  11.896  68.577  1.00  0.00     0.000 HD 
ENDROOT
BRANCH   2   4
HETATM    4  C   UNL     1      -8.471   9.844  68.279  1.00  0.00    -0.111 C  
BRANCH   4   5
HETATM    5  C   UNL     1      -9.933   9.369  68.266  1.00  0.00    -0.197 C  
BRANCH   5   6
HETATM    6  C   UNL     1     -10.345   8.362  69.354  1.00  0.00    -0.215 C  
BRANCH   6   7
HETATM    7  C   UNL     1     -11.317   8.958  70.356  1.00  0.00    -0.202 A  
HETATM    8  C   UNL     1     -13.010  10.398  71.448  1.00  0.00    -0.443 A  
HETATM    9  S   UNL     1     -12.221  10.362  69.934  1.00  0.00    -0.077 SA 
HETATM   10  C   UNL     1     -11.609   8.555  71.648  1.00  0.00    -0.364 A  
HETATM   11  C   UNL     1     -12.588   9.382  72.275  1.00  0.00    -0.378 A  
ENDBRANCH   6   7
BRANCH   6  12
HETATM   12  O   UNL     1     -11.029   7.236  68.740  1.00  0.00    -0.130 OA 
BRANCH  12  13
HETATM   13  C   UNL     1     -10.537   5.975  69.015  1.00  0.00    -0.291 A  
HETATM   14  C   UNL     1      -9.876   4.243  70.583  1.00  0.00    -0.265 A  
HETATM   15  C   UNL     1     -10.425   5.494  70.325  1.00  0.00    -0.365 A  
HETATM   16  C   UNL     1      -9.451   3.442  69.528  1.00  0.00    -0.219 A  
HETATM   17  C   UNL     1      -9.611   3.859  68.203  1.00  0.00    -0.182 A  
HETATM   18  C   UNL     1      -9.206   3.014  67.160  1.00  0.00    -0.204 A  
HETATM   19  C   UNL     1      -9.397   3.371  65.828  1.00  0.00    -0.144 A  
HETATM   20  C   UNL     1     -10.001   4.586  65.528  1.00  0.00    -0.230 A  
HETATM   21  C   UNL     1     -10.385   5.457  66.559  1.00  0.00    -0.320 A  
HETATM   22  C   UNL     1     -10.188   5.128  67.922  1.00  0.00    -0.180 A  
ENDBRANCH  12  13
ENDBRANCH   6  12
ENDBRANCH   5   6
ENDBRANCH   4   5
ENDBRANCH   2   4
TORSDOF 6
ENDMDL
MODEL      210
REMARK 921   NORMALIZED FREE ENERGY PREDICTED BY IDOCK:   -3.54 KCAL/MOL
REMARK 922        TOTAL FREE ENERGY PREDICTED BY IDOCK:   -5.68 KCAL/MOL
REMARK 923 INTER-LIGAND FREE ENERGY PREDICTED BY IDOCK:   -4.87 KCAL/MOL
REMARK 924 INTRA-LIGAND FREE ENERGY PREDICTED BY IDOCK:   -0.81 KCAL/MOL
REMARK 927      BINDING AFFINITY PREDICTED BY RF-SCORE:    0.00 PKD
ROOT
HETATM    1  C   UNL     1      -8.384   8.409  63.068  1.00  0.00    -0.102 C  
HETATM    2  N   UNL     1      -9.049   9.479  63.809  1.00  0.00    -0.403 NA 
HETATM    3  H   UNL     1     -10.055   9.327  63.869  1.00  0.00     0.000 HD 
ENDROOT
BRANCH   2   4
HETATM    4  C   UNL     1      -8.447   9.651  65.136  1.00  0.00    -0.150 C  
BRANCH   4   5
HETATM    5  C   UNL     1      -9.287   9.049  66.275  1.00  0.00    -0.284 C  
BRANCH   5   6
HETATM    6  C   UNL     1      -9.700  10.003  67.409  1.00  0.00    -0.161 C  
BRANCH   6   7
HETATM    7  C   UNL     1      -9.079   9.621  68.741  1.00  0.00    -0.134 A  
HETATM    8  C   UNL     1      -8.759   8.866  71.078  1.00  0.00    -0.224 A  
HETATM    9  S   UNL     1     -10.088   9.084  70.029  1.00  0.00    -0.208 SA 
HETATM   10  C   UNL     1      -7.753   9.651  69.135  1.00  0.00    -0.087 A  
HETATM   11  C   UNL     1      -7.568   9.211  70.480  1.00  0.00    -0.130 A  
ENDBRANCH   6   7
BRANCH   6  12
HETATM   12  O   UNL     1      -9.233  11.346  67.110  1.00  0.00    -0.163 OA 
BRANCH  12  13
HETATM   13  C   UNL     1     -10.190  12.335  66.999  1.00  0.00    -0.215 A  
HETATM   14  C   UNL     1     -12.349  13.132  66.226  1.00  0.00    -0.346 A  
HETATM   15  C   UNL     1     -11.422  12.107  66.375  1.00  0.00    -0.430 A  
HETATM   16  C   UNL     1     -12.065  14.400  66.721  1.00  0.00    -0.393 A  
HETATM   17  C   UNL     1     -10.876  14.648  67.412  1.00  0.00    -0.298 A  
HETATM   18  C   UNL     1     -10.635  15.929  67.932  1.00  0.00    -0.300 A  
HETATM   19  C   UNL     1      -9.487  16.201  68.671  1.00  0.00    -0.227 A  
HETATM   20  C   UNL     1      -8.565  15.186  68.898  1.00  0.00    -0.200 A  
HETATM   21  C   UNL     1      -8.776  13.908  68.360  1.00  0.00    -0.173 A  
HETATM   22  C   UNL     1      -9.926  13.606  67.591  1.00  0.00    -0.239 A  
ENDBRANCH  12  13
ENDBRANCH   6  12
ENDBRANCH   5   6
ENDBRANCH   4   5
ENDBRANCH   2   4
TORSDOF 6
ENDMDL
MODEL      211
REMARK 921   NORMALIZED FREE ENERGY PREDICTED BY IDOCK:   -3.54 KCAL/MOL
REMARK 922        TOTAL FREE ENERGY PREDICTED BY IDOCK:   -5.68 KCAL/MOL
REMARK 923 INTER-LIGAND FREE ENERGY PREDICTED BY IDOCK:   -5.02 KCAL/MOL
REMARK 924 INTRA-LIGAND FREE ENERGY PREDICTED BY IDOCK:   -0.66 KCAL/MOL
REMARK 927      BINDING AFFINITY PREDICTED BY RF-SCORE:    0.00 PKD
ROOT
HETATM    1  C   UNL     1      -6.489   6.654  73.143  1.00  0.00    -0.064 C  
HETATM    2  N   UNL     1      -7.720   7.440  73.207  1.00  0.00    -0.092 NA 
HETATM    3  H   UNL     1      -7.990   7.792  72.289  1.00  0.00     0.000 HD 
ENDROOT
BRANCH   2   4
HETATM    4  C   UNL     1      -8.801   6.671  73.833  1.00  0.00    -0.145 C  
BRANCH   4   5
HETATM    5  C   UNL     1     -10.061   6.558  72.958  1.00  0.00    -0.206 C  
BRANCH   5   6
HETATM    6  C   UNL     1      -9.903   6.902  71.467  1.00  0.00    -0.169 C  
BRANCH   6   7
HETATM    7  C   UNL     1      -9.303   5.757  70.670  1.00  0.00    -0.159 A  
HETATM    8  C   UNL     1      -7.889   4.421  69.137  1.00  0.00    -0.061 A  
HETATM    9  S   UNL     1      -7.975   6.058  69.615  1.00  0.00    -0.107 SA 
HETATM   10  C   UNL     1      -9.676   4.425  70.622  1.00  0.00    -0.283 A  
HETATM   11  C   UNL     1      -8.858   3.655  69.743  1.00  0.00    -0.152 A  
ENDBRANCH   6   7
BRANCH   6  12
HETATM   12  O   UNL     1     -11.209   7.164  70.887  1.00  0.00    -0.257 OA 
BRANCH  12  13
HETATM   13  C   UNL     1     -11.666   8.466  70.928  1.00  0.00    -0.246 A  
HETATM   14  C   UNL     1     -12.938  10.244  71.985  1.00  0.00    -0.503 A  
HETATM   15  C   UNL     1     -12.442   8.945  71.990  1.00  0.00    -0.461 A  
HETATM   16  C   UNL     1     -12.645  11.093  70.923  1.00  0.00    -0.483 A  
HETATM   17  C   UNL     1     -11.816  10.673  69.879  1.00  0.00    -0.392 A  
HETATM   18  C   UNL     1     -11.509  11.565  68.841  1.00  0.00    -0.352 A  
HETATM   19  C   UNL     1     -10.645  11.201  67.811  1.00  0.00    -0.248 A  
HETATM   20  C   UNL     1     -10.077   9.933  67.814  1.00  0.00    -0.221 A  
HETATM   21  C   UNL     1     -10.396   9.018  68.828  1.00  0.00    -0.236 A  
HETATM   22  C   UNL     1     -11.284   9.354  69.879  1.00  0.00    -0.180 A  
ENDBRANCH  12  13
ENDBRANCH   6  12
ENDBRANCH   5   6
ENDBRANCH   4   5
ENDBRANCH   2   4
TORSDOF 6
ENDMDL
MODEL      212
REMARK 921   NORMALIZED FREE ENERGY PREDICTED BY IDOCK:   -3.54 KCAL/MOL
REMARK 922        TOTAL FREE ENERGY PREDICTED BY IDOCK:   -5.68 KCAL/MOL
REMARK 923 INTER-LIGAND FREE ENERGY PREDICTED BY IDOCK:   -4.95 KCAL/MOL
REMARK 924 INTRA-LIGAND FREE ENERGY PREDICTED BY IDOCK:   -0.72 KCAL/MOL
REMARK 927      BINDING AFFINITY PREDICTED BY RF-SCORE:    0.00 PKD
ROOT
HETATM    1  C   UNL     1      -7.393   7.111  67.366  1.00  0.00    -0.092 C  
HETATM    2  N   UNL     1      -6.445   8.179  67.682  1.00  0.00    -0.056 NA 
HETATM    3  H   UNL     1      -5.530   8.005  67.268  1.00  0.00     0.000 HD 
ENDROOT
BRANCH   2   4
HETATM    4  C   UNL     1      -6.979   9.487  67.287  1.00  0.00    -0.085 C  
BRANCH   4   5
HETATM    5  C   UNL     1      -8.515   9.531  67.223  1.00  0.00    -0.128 C  
BRANCH   5   6
HETATM    6  C   UNL     1      -9.224  10.464  68.219  1.00  0.00    -0.149 C  
BRANCH   6   7
HETATM    7  C   UNL     1      -9.005  11.931  67.894  1.00  0.00    -0.179 A  
HETATM    8  C   UNL     1      -9.141  14.175  66.853  1.00  0.00    -0.245 A  
HETATM    9  S   UNL     1      -9.873  12.653  66.593  1.00  0.00    -0.249 SA 
HETATM   10  C   UNL     1      -8.155  12.848  68.487  1.00  0.00    -0.080 A  
HETATM   11  C   UNL     1      -8.237  14.142  67.890  1.00  0.00    -0.155 A  
ENDBRANCH   6   7
BRANCH   6  12
HETATM   12  O   UNL     1     -10.658  10.242  68.157  1.00  0.00    -0.190 OA 
BRANCH  12  13
HETATM   13  C   UNL     1     -11.370  10.399  69.330  1.00  0.00    -0.235 A  
HETATM   14  C   UNL     1     -12.689  11.753  70.854  1.00  0.00    -0.328 A  
HETATM   15  C   UNL     1     -12.024  11.597  69.644  1.00  0.00    -0.390 A  
HETATM   16  C   UNL     1     -12.730  10.701  71.763  1.00  0.00    -0.489 A  
HETATM   17  C   UNL     1     -12.150   9.467  71.455  1.00  0.00    -0.468 A  
HETATM   18  C   UNL     1     -12.239   8.414  72.377  1.00  0.00    -0.430 A  
HETATM   19  C   UNL     1     -11.720   7.156  72.085  1.00  0.00    -0.322 A  
HETATM   20  C   UNL     1     -11.103   6.940  70.859  1.00  0.00    -0.313 A  
HETATM   21  C   UNL     1     -10.979   7.990  69.937  1.00  0.00    -0.172 A  
HETATM   22  C   UNL     1     -11.482   9.285  70.213  1.00  0.00    -0.198 A  
ENDBRANCH  12  13
ENDBRANCH   6  12
ENDBRANCH   5   6
ENDBRANCH   4   5
ENDBRANCH   2   4
TORSDOF 6
ENDMDL
MODEL      213
REMARK 921   NORMALIZED FREE ENERGY PREDICTED BY IDOCK:   -3.52 KCAL/MOL
REMARK 922        TOTAL FREE ENERGY PREDICTED BY IDOCK:   -5.66 KCAL/MOL
REMARK 923 INTER-LIGAND FREE ENERGY PREDICTED BY IDOCK:   -5.53 KCAL/MOL
REMARK 924 INTRA-LIGAND FREE ENERGY PREDICTED BY IDOCK:   -0.13 KCAL/MOL
REMARK 927      BINDING AFFINITY PREDICTED BY RF-SCORE:    0.00 PKD
ROOT
HETATM    1  C   UNL     1     -12.447  12.745  64.534  1.00  0.00    -0.428 C  
HETATM    2  N   UNL     1     -11.132  13.352  64.730  1.00  0.00    -0.333 NA 
HETATM    3  H   UNL     1     -10.769  13.752  63.865  1.00  0.00     0.000 HD 
ENDROOT
BRANCH   2   4
HETATM    4  C   UNL     1     -11.168  14.343  65.811  1.00  0.00    -0.326 C  
BRANCH   4   5
HETATM    5  C   UNL     1     -11.994  13.895  67.030  1.00  0.00    -0.459 C  
BRANCH   5   6
HETATM    6  C   UNL     1     -11.214  13.293  68.211  1.00  0.00    -0.277 C  
BRANCH   6   7
HETATM    7  C   UNL     1     -11.840  13.634  69.551  1.00  0.00    -0.337 A  
HETATM    8  C   UNL     1     -12.766  14.866  71.491  1.00  0.00    -0.331 A  
HETATM    9  S   UNL     1     -12.074  15.284  69.986  1.00  0.00    -0.356 SA 
HETATM   10  C   UNL     1     -12.266  12.794  70.565  1.00  0.00    -0.389 A  
HETATM   11  C   UNL     1     -12.804  13.503  71.680  1.00  0.00    -0.419 A  
ENDBRANCH   6   7
BRANCH   6  12
HETATM   12  O   UNL     1     -11.225  11.843  68.112  1.00  0.00    -0.221 OA 
BRANCH  12  13
HETATM   13  C   UNL     1     -10.244  11.258  67.336  1.00  0.00    -0.188 A  
HETATM   14  C   UNL     1      -9.531   9.657  65.656  1.00  0.00    -0.318 A  
HETATM   15  C   UNL     1     -10.540  10.271  66.387  1.00  0.00    -0.177 A  
HETATM   16  C   UNL     1      -8.207  10.036  65.847  1.00  0.00    -0.128 A  
HETATM   17  C   UNL     1      -7.879  11.065  66.735  1.00  0.00    -0.149 A  
HETATM   18  C   UNL     1      -6.537  11.450  66.879  1.00  0.00    -0.141 A  
HETATM   19  C   UNL     1      -6.177  12.505  67.713  1.00  0.00    -0.119 A  
HETATM   20  C   UNL     1      -7.164  13.189  68.412  1.00  0.00    -0.107 A  
HETATM   21  C   UNL     1      -8.506  12.798  68.303  1.00  0.00    -0.161 A  
HETATM   22  C   UNL     1      -8.901  11.718  67.476  1.00  0.00    -0.162 A  
ENDBRANCH  12  13
ENDBRANCH   6  12
ENDBRANCH   5   6
ENDBRANCH   4   5
ENDBRANCH   2   4
TORSDOF 6
ENDMDL
MODEL      214
REMARK 921   NORMALIZED FREE ENERGY PREDICTED BY IDOCK:   -3.51 KCAL/MOL
REMARK 922        TOTAL FREE ENERGY PREDICTED BY IDOCK:   -5.64 KCAL/MOL
REMARK 923 INTER-LIGAND FREE ENERGY PREDICTED BY IDOCK:   -4.67 KCAL/MOL
REMARK 924 INTRA-LIGAND FREE ENERGY PREDICTED BY IDOCK:   -0.97 KCAL/MOL
REMARK 927      BINDING AFFINITY PREDICTED BY RF-SCORE:    0.00 PKD
ROOT
HETATM    1  C   UNL     1     -14.091   8.572  72.185  1.00  0.00    -0.421 C  
HETATM    2  N   UNL     1     -13.009   8.327  71.232  1.00  0.00    -0.486 NA 
HETATM    3  H   UNL     1     -12.317   9.076  71.248  1.00  0.00     0.000 HD 
ENDROOT
BRANCH   2   4
HETATM    4  C   UNL     1     -12.393   7.016  71.464  1.00  0.00    -0.379 C  
BRANCH   4   5
HETATM    5  C   UNL     1     -11.626   6.473  70.246  1.00  0.00    -0.473 C  
BRANCH   5   6
HETATM    6  C   UNL     1     -10.671   7.449  69.537  1.00  0.00    -0.224 C  
BRANCH   6   7
HETATM    7  C   UNL     1      -9.290   7.468  70.166  1.00  0.00    -0.157 A  
HETATM    8  C   UNL     1      -7.254   8.160  71.395  1.00  0.00    -0.074 A  
HETATM    9  S   UNL     1      -8.764   8.866  71.023  1.00  0.00    -0.233 SA 
HETATM   10  C   UNL     1      -8.302   6.499  70.154  1.00  0.00    -0.134 A  
HETATM   11  C   UNL     1      -7.131   6.896  70.865  1.00  0.00    -0.068 A  
ENDBRANCH   6   7
BRANCH   6  12
HETATM   12  O   UNL     1     -10.486   7.031  68.157  1.00  0.00    -0.182 OA 
BRANCH  12  13
HETATM   13  C   UNL     1     -10.102   8.001  67.253  1.00  0.00    -0.240 A  
HETATM   14  C   UNL     1     -10.312  10.222  66.293  1.00  0.00    -0.256 A  
HETATM   15  C   UNL     1     -10.675   9.279  67.248  1.00  0.00    -0.244 A  
HETATM   16  C   UNL     1      -9.350   9.907  65.339  1.00  0.00    -0.297 A  
HETATM   17  C   UNL     1      -8.705   8.667  65.355  1.00  0.00    -0.208 A  
HETATM   18  C   UNL     1      -7.713   8.393  64.402  1.00  0.00    -0.133 A  
HETATM   19  C   UNL     1      -7.012   7.190  64.418  1.00  0.00    -0.052 A  
HETATM   20  C   UNL     1      -7.299   6.246  65.396  1.00  0.00    -0.076 A  
HETATM   21  C   UNL     1      -8.309   6.492  66.339  1.00  0.00    -0.120 A  
HETATM   22  C   UNL     1      -9.050   7.698  66.337  1.00  0.00    -0.214 A  
ENDBRANCH  12  13
ENDBRANCH   6  12
ENDBRANCH   5   6
ENDBRANCH   4   5
ENDBRANCH   2   4
TORSDOF 6
ENDMDL
MODEL      215
REMARK 921   NORMALIZED FREE ENERGY PREDICTED BY IDOCK:   -3.51 KCAL/MOL
REMARK 922        TOTAL FREE ENERGY PREDICTED BY IDOCK:   -5.64 KCAL/MOL
REMARK 923 INTER-LIGAND FREE ENERGY PREDICTED BY IDOCK:   -4.95 KCAL/MOL
REMARK 924 INTRA-LIGAND FREE ENERGY PREDICTED BY IDOCK:   -0.69 KCAL/MOL
REMARK 927      BINDING AFFINITY PREDICTED BY RF-SCORE:    0.00 PKD
ROOT
HETATM    1  C   UNL     1     -12.217  11.861  70.148  1.00  0.00    -0.241 C  
HETATM    2  N   UNL     1     -12.311  10.402  70.166  1.00  0.00    -0.478 NA 
HETATM    3  H   UNL     1     -12.138  10.002  69.244  1.00  0.00     0.000 HD 
ENDROOT
BRANCH   2   4
HETATM    4  C   UNL     1     -11.418   9.832  71.180  1.00  0.00    -0.398 C  
BRANCH   4   5
HETATM    5  C   UNL     1     -11.099   8.344  70.952  1.00  0.00    -0.289 C  
BRANCH   5   6
HETATM    6  C   UNL     1     -10.084   8.014  69.844  1.00  0.00    -0.198 C  
BRANCH   6   7
HETATM    7  C   UNL     1      -9.336   6.721  70.112  1.00  0.00    -0.159 A  
HETATM    8  C   UNL     1      -8.787   4.340  70.518  1.00  0.00    -0.085 A  
HETATM    9  S   UNL     1     -10.211   5.244  70.247  1.00  0.00    -0.275 SA 
HETATM   10  C   UNL     1      -7.982   6.509  70.300  1.00  0.00    -0.115 A  
HETATM   11  C   UNL     1      -7.665   5.137  70.530  1.00  0.00    -0.071 A  
ENDBRANCH   6   7
BRANCH   6  12
HETATM   12  O   UNL     1     -10.784   7.829  68.584  1.00  0.00    -0.159 OA 
BRANCH  12  13
HETATM   13  C   UNL     1     -10.037   7.940  67.428  1.00  0.00    -0.226 A  
HETATM   14  C   UNL     1      -8.536   7.003  65.765  1.00  0.00    -0.154 A  
HETATM   15  C   UNL     1      -9.325   6.856  66.899  1.00  0.00    -0.177 A  
HETATM   16  C   UNL     1      -8.463   8.236  65.127  1.00  0.00    -0.164 A  
HETATM   17  C   UNL     1      -9.214   9.324  65.583  1.00  0.00    -0.291 A  
HETATM   18  C   UNL     1      -9.149  10.545  64.896  1.00  0.00    -0.235 A  
HETATM   19  C   UNL     1      -9.921  11.634  65.289  1.00  0.00    -0.292 A  
HETATM   20  C   UNL     1     -10.772  11.508  66.380  1.00  0.00    -0.320 A  
HETATM   21  C   UNL     1     -10.828  10.304  67.096  1.00  0.00    -0.278 A  
HETATM   22  C   UNL     1     -10.042   9.184  66.731  1.00  0.00    -0.341 A  
ENDBRANCH  12  13
ENDBRANCH   6  12
ENDBRANCH   5   6
ENDBRANCH   4   5
ENDBRANCH   2   4
TORSDOF 6
ENDMDL
MODEL      216
REMARK 921   NORMALIZED FREE ENERGY PREDICTED BY IDOCK:   -3.49 KCAL/MOL
REMARK 922        TOTAL FREE ENERGY PREDICTED BY IDOCK:   -5.61 KCAL/MOL
REMARK 923 INTER-LIGAND FREE ENERGY PREDICTED BY IDOCK:   -5.58 KCAL/MOL
REMARK 924 INTRA-LIGAND FREE ENERGY PREDICTED BY IDOCK:   -0.03 KCAL/MOL
REMARK 927      BINDING AFFINITY PREDICTED BY RF-SCORE:    0.00 PKD
ROOT
HETATM    1  C   UNL     1      -7.677  15.359  67.560  1.00  0.00    -0.181 C  
HETATM    2  N   UNL     1      -7.687  13.897  67.546  1.00  0.00    -0.175 NA 
HETATM    3  H   UNL     1      -7.386  13.510  68.440  1.00  0.00     0.000 HD 
ENDROOT
BRANCH   2   4
HETATM    4  C   UNL     1      -9.004  13.386  67.151  1.00  0.00    -0.226 C  
BRANCH   4   5
HETATM    5  C   UNL     1      -9.621  12.418  68.175  1.00  0.00    -0.218 C  
BRANCH   5   6
HETATM    6  C   UNL     1     -10.620  11.380  67.634  1.00  0.00    -0.202 C  
BRANCH   6   7
HETATM    7  C   UNL     1     -10.979  11.626  66.180  1.00  0.00    -0.288 A  
HETATM    8  C   UNL     1     -10.983  11.607  63.703  1.00  0.00    -0.431 A  
HETATM    9  S   UNL     1     -10.012  10.932  64.935  1.00  0.00    -0.328 SA 
HETATM   10  C   UNL     1     -12.006  12.381  65.641  1.00  0.00    -0.449 A  
HETATM   11  C   UNL     1     -12.011  12.366  64.214  1.00  0.00    -0.489 A  
ENDBRANCH   6   7
BRANCH   6  12
HETATM   12  O   UNL     1     -10.022  10.057  67.690  1.00  0.00    -0.163 OA 
BRANCH  12  13
HETATM   13  C   UNL     1      -9.234   9.768  68.786  1.00  0.00    -0.143 A  
HETATM   14  C   UNL     1      -7.062   9.569  69.854  1.00  0.00    -0.084 A  
HETATM   15  C   UNL     1      -7.842   9.917  68.757  1.00  0.00    -0.091 A  
HETATM   16  C   UNL     1      -7.667   9.084  71.008  1.00  0.00    -0.153 A  
HETATM   17  C   UNL     1      -9.059   8.987  71.100  1.00  0.00    -0.316 A  
HETATM   18  C   UNL     1      -9.641   8.529  72.291  1.00  0.00    -0.377 A  
HETATM   19  C   UNL     1     -11.024   8.469  72.439  1.00  0.00    -0.390 A  
HETATM   20  C   UNL     1     -11.841   8.870  71.389  1.00  0.00    -0.383 A  
HETATM   21  C   UNL     1     -11.275   9.302  70.180  1.00  0.00    -0.237 A  
HETATM   22  C   UNL     1      -9.872   9.358  69.994  1.00  0.00    -0.253 A  
ENDBRANCH  12  13
ENDBRANCH   6  12
ENDBRANCH   5   6
ENDBRANCH   4   5
ENDBRANCH   2   4
TORSDOF 6
ENDMDL
MODEL      217
REMARK 921   NORMALIZED FREE ENERGY PREDICTED BY IDOCK:   -3.49 KCAL/MOL
REMARK 922        TOTAL FREE ENERGY PREDICTED BY IDOCK:   -5.61 KCAL/MOL
REMARK 923 INTER-LIGAND FREE ENERGY PREDICTED BY IDOCK:   -4.75 KCAL/MOL
REMARK 924 INTRA-LIGAND FREE ENERGY PREDICTED BY IDOCK:   -0.86 KCAL/MOL
REMARK 927      BINDING AFFINITY PREDICTED BY RF-SCORE:    0.00 PKD
ROOT
HETATM    1  C   UNL     1      -7.907   6.607  73.974  1.00  0.00    -0.102 C  
HETATM    2  N   UNL     1      -8.913   7.556  74.447  1.00  0.00    -0.421 NA 
HETATM    3  H   UNL     1      -8.495   8.302  75.003  1.00  0.00     0.000 HD 
ENDROOT
BRANCH   2   4
HETATM    4  C   UNL     1      -9.698   8.089  73.328  1.00  0.00    -0.238 C  
BRANCH   4   5
HETATM    5  C   UNL     1     -10.765   7.112  72.805  1.00  0.00    -0.325 C  
BRANCH   5   6
HETATM    6  C   UNL     1     -11.418   7.457  71.455  1.00  0.00    -0.263 C  
BRANCH   6   7
HETATM    7  C   UNL     1     -12.028   8.847  71.446  1.00  0.00    -0.311 A  
HETATM    8  C   UNL     1     -12.452  11.247  71.006  1.00  0.00    -0.400 A  
HETATM    9  S   UNL     1     -11.261  10.108  70.560  1.00  0.00    -0.345 SA 
HETATM   10  C   UNL     1     -13.161   9.316  72.088  1.00  0.00    -0.535 A  
HETATM   11  C   UNL     1     -13.408  10.698  71.830  1.00  0.00    -0.437 A  
ENDBRANCH   6   7
BRANCH   6  12
HETATM   12  O   UNL     1     -10.408   7.447  70.411  1.00  0.00    -0.204 OA 
BRANCH  12  13
HETATM   13  C   UNL     1      -9.675   6.287  70.255  1.00  0.00    -0.164 A  
HETATM   14  C   UNL     1      -9.532   3.895  69.862  1.00  0.00    -0.267 A  
HETATM   15  C   UNL     1     -10.283   5.061  69.961  1.00  0.00    -0.339 A  
HETATM   16  C   UNL     1      -8.153   3.943  70.036  1.00  0.00    -0.060 A  
HETATM   17  C   UNL     1      -7.502   5.160  70.260  1.00  0.00    -0.067 A  
HETATM   18  C   UNL     1      -6.106   5.180  70.394  1.00  0.00    -0.018 A  
HETATM   19  C   UNL     1      -5.417   6.378  70.567  1.00  0.00    -0.018 A  
HETATM   20  C   UNL     1      -6.125   7.572  70.606  1.00  0.00    -0.034 A  
HETATM   21  C   UNL     1      -7.524   7.567  70.504  1.00  0.00    -0.080 A  
HETATM   22  C   UNL     1      -8.253   6.363  70.344  1.00  0.00    -0.121 A  
ENDBRANCH  12  13
ENDBRANCH   6  12
ENDBRANCH   5   6
ENDBRANCH   4   5
ENDBRANCH   2   4
TORSDOF 6
ENDMDL
MODEL      218
REMARK 921   NORMALIZED FREE ENERGY PREDICTED BY IDOCK:   -3.46 KCAL/MOL
REMARK 922        TOTAL FREE ENERGY PREDICTED BY IDOCK:   -5.57 KCAL/MOL
REMARK 923 INTER-LIGAND FREE ENERGY PREDICTED BY IDOCK:   -5.27 KCAL/MOL
REMARK 924 INTRA-LIGAND FREE ENERGY PREDICTED BY IDOCK:   -0.30 KCAL/MOL
REMARK 927      BINDING AFFINITY PREDICTED BY RF-SCORE:    0.00 PKD
ROOT
HETATM    1  C   UNL     1      -7.109  11.126  69.704  1.00  0.00    -0.048 C  
HETATM    2  N   UNL     1      -7.446   9.704  69.700  1.00  0.00    -0.088 NA 
HETATM    3  H   UNL     1      -6.650   9.129  69.422  1.00  0.00     0.000 HD 
ENDROOT
BRANCH   2   4
HETATM    4  C   UNL     1      -7.985   9.289  71.000  1.00  0.00    -0.069 C  
BRANCH   4   5
HETATM    5  C   UNL     1      -9.522   9.224  71.035  1.00  0.00    -0.313 C  
BRANCH   5   6
HETATM    6  C   UNL     1     -10.240   9.056  69.685  1.00  0.00    -0.206 C  
BRANCH   6   7
HETATM    7  C   UNL     1     -10.149   7.637  69.154  1.00  0.00    -0.194 A  
HETATM    8  C   UNL     1     -10.459   5.200  68.835  1.00  0.00    -0.061 A  
HETATM    9  S   UNL     1     -11.035   6.380  69.928  1.00  0.00    -0.383 SA 
HETATM   10  C   UNL     1      -9.410   7.138  68.095  1.00  0.00    -0.129 A  
HETATM   11  C   UNL     1      -9.593   5.735  67.909  1.00  0.00    -0.124 A  
ENDBRANCH   6   7
BRANCH   6  12
HETATM   12  O   UNL     1     -11.655   9.342  69.849  1.00  0.00    -0.074 OA 
BRANCH  12  13
HETATM   13  C   UNL     1     -11.997  10.617  70.253  1.00  0.00    -0.339 A  
HETATM   14  C   UNL     1     -12.947  12.153  71.876  1.00  0.00    -0.419 A  
HETATM   15  C   UNL     1     -12.559  10.869  71.510  1.00  0.00    -0.480 A  
HETATM   16  C   UNL     1     -12.757  13.211  70.994  1.00  0.00    -0.361 A  
HETATM   17  C   UNL     1     -12.136  13.010  69.758  1.00  0.00    -0.325 A  
HETATM   18  C   UNL     1     -11.925  14.105  68.905  1.00  0.00    -0.376 A  
HETATM   19  C   UNL     1     -11.263  13.953  67.690  1.00  0.00    -0.316 A  
HETATM   20  C   UNL     1     -10.802  12.697  67.317  1.00  0.00    -0.277 A  
HETATM   21  C   UNL     1     -11.030  11.587  68.143  1.00  0.00    -0.279 A  
HETATM   22  C   UNL     1     -11.715  11.707  69.377  1.00  0.00    -0.405 A  
ENDBRANCH  12  13
ENDBRANCH   6  12
ENDBRANCH   5   6
ENDBRANCH   4   5
ENDBRANCH   2   4
TORSDOF 6
ENDMDL
MODEL      219
REMARK 921   NORMALIZED FREE ENERGY PREDICTED BY IDOCK:   -3.44 KCAL/MOL
REMARK 922        TOTAL FREE ENERGY PREDICTED BY IDOCK:   -5.54 KCAL/MOL
REMARK 923 INTER-LIGAND FREE ENERGY PREDICTED BY IDOCK:   -4.73 KCAL/MOL
REMARK 924 INTRA-LIGAND FREE ENERGY PREDICTED BY IDOCK:   -0.81 KCAL/MOL
REMARK 927      BINDING AFFINITY PREDICTED BY RF-SCORE:    0.00 PKD
ROOT
HETATM    1  C   UNL     1      -5.841   8.233  65.764  1.00  0.00    -0.041 C  
HETATM    2  N   UNL     1      -7.301   8.271  65.721  1.00  0.00    -0.071 NA 
HETATM    3  H   UNL     1      -7.701   7.335  65.657  1.00  0.00     0.000 HD 
ENDROOT
BRANCH   2   4
HETATM    4  C   UNL     1      -7.840   9.012  66.868  1.00  0.00    -0.101 C  
BRANCH   4   5
HETATM    5  C   UNL     1      -7.875   8.192  68.169  1.00  0.00    -0.122 C  
BRANCH   5   6
HETATM    6  C   UNL     1      -9.234   7.600  68.579  1.00  0.00    -0.143 C  
BRANCH   6   7
HETATM    7  C   UNL     1      -9.228   6.082  68.580  1.00  0.00    -0.115 A  
HETATM    8  C   UNL     1      -8.657   3.714  68.134  1.00  0.00    -0.097 A  
HETATM    9  S   UNL     1      -8.060   5.235  67.640  1.00  0.00    -0.099 SA 
HETATM   10  C   UNL     1     -10.069   5.198  69.233  1.00  0.00    -0.283 A  
HETATM   11  C   UNL     1      -9.737   3.833  68.979  1.00  0.00    -0.094 A  
ENDBRANCH   6   7
BRANCH   6  12
HETATM   12  O   UNL     1      -9.552   8.009  69.937  1.00  0.00    -0.170 OA 
BRANCH  12  13
HETATM   13  C   UNL     1     -10.477   9.022  70.089  1.00  0.00    -0.214 A  
HETATM   14  C   UNL     1     -11.177  11.329  69.794  1.00  0.00    -0.294 A  
HETATM   15  C   UNL     1     -10.257  10.309  69.582  1.00  0.00    -0.268 A  
HETATM   16  C   UNL     1     -12.347  11.071  70.500  1.00  0.00    -0.462 A  
HETATM   17  C   UNL     1     -12.635   9.783  70.961  1.00  0.00    -0.406 A  
HETATM   18  C   UNL     1     -13.840   9.546  71.638  1.00  0.00    -0.287 A  
HETATM   19  C   UNL     1     -14.186   8.267  72.066  1.00  0.00    -0.507 A  
HETATM   20  C   UNL     1     -13.323   7.208  71.817  1.00  0.00    -0.347 A  
HETATM   21  C   UNL     1     -12.100   7.432  71.167  1.00  0.00    -0.357 A  
HETATM   22  C   UNL     1     -11.713   8.724  70.736  1.00  0.00    -0.253 A  
ENDBRANCH  12  13
ENDBRANCH   6  12
ENDBRANCH   5   6
ENDBRANCH   4   5
ENDBRANCH   2   4
TORSDOF 6
ENDMDL
MODEL      220
REMARK 921   NORMALIZED FREE ENERGY PREDICTED BY IDOCK:   -3.43 KCAL/MOL
REMARK 922        TOTAL FREE ENERGY PREDICTED BY IDOCK:   -5.53 KCAL/MOL
REMARK 923 INTER-LIGAND FREE ENERGY PREDICTED BY IDOCK:   -4.95 KCAL/MOL
REMARK 924 INTRA-LIGAND FREE ENERGY PREDICTED BY IDOCK:   -0.58 KCAL/MOL
REMARK 927      BINDING AFFINITY PREDICTED BY RF-SCORE:    0.00 PKD
ROOT
HETATM    1  C   UNL     1      -6.088   6.828  66.995  1.00  0.00    -0.032 C  
HETATM    2  N   UNL     1      -6.082   8.289  66.987  1.00  0.00    -0.053 NA 
HETATM    3  H   UNL     1      -5.135   8.662  66.919  1.00  0.00     0.000 HD 
ENDROOT
BRANCH   2   4
HETATM    4  C   UNL     1      -6.946   8.811  65.922  1.00  0.00    -0.076 C  
BRANCH   4   5
HETATM    5  C   UNL     1      -8.411   8.360  66.042  1.00  0.00    -0.142 C  
BRANCH   5   6
HETATM    6  C   UNL     1      -9.301   9.148  67.019  1.00  0.00    -0.148 C  
BRANCH   6   7
HETATM    7  C   UNL     1      -9.726  10.493  66.457  1.00  0.00    -0.192 A  
HETATM    8  C   UNL     1     -10.114  12.921  66.156  1.00  0.00    -0.276 A  
HETATM    9  S   UNL     1      -9.398  11.930  67.349  1.00  0.00    -0.180 SA 
HETATM   10  C   UNL     1     -10.396  10.786  65.282  1.00  0.00    -0.327 A  
HETATM   11  C   UNL     1     -10.616  12.185  65.107  1.00  0.00    -0.324 A  
ENDBRANCH   6   7
BRANCH   6  12
HETATM   12  O   UNL     1     -10.524   8.405  67.270  1.00  0.00    -0.279 OA 
BRANCH  12  13
HETATM   13  C   UNL     1     -10.483   7.440  68.256  1.00  0.00    -0.189 A  
HETATM   14  C   UNL     1     -10.131   5.150  68.982  1.00  0.00    -0.257 A  
HETATM   15  C   UNL     1     -10.113   6.117  67.984  1.00  0.00    -0.178 A  
HETATM   16  C   UNL     1     -10.500   5.496  70.277  1.00  0.00    -0.365 A  
HETATM   17  C   UNL     1     -10.808   6.821  70.603  1.00  0.00    -0.292 A  
HETATM   18  C   UNL     1     -11.140   7.146  71.926  1.00  0.00    -0.268 A  
HETATM   19  C   UNL     1     -11.401   8.461  72.300  1.00  0.00    -0.448 A  
HETATM   20  C   UNL     1     -11.330   9.468  71.346  1.00  0.00    -0.462 A  
HETATM   21  C   UNL     1     -11.029   9.157  70.012  1.00  0.00    -0.240 A  
HETATM   22  C   UNL     1     -10.775   7.826  69.598  1.00  0.00    -0.223 A  
ENDBRANCH  12  13
ENDBRANCH   6  12
ENDBRANCH   5   6
ENDBRANCH   4   5
ENDBRANCH   2   4
TORSDOF 6
ENDMDL
MODEL      221
REMARK 921   NORMALIZED FREE ENERGY PREDICTED BY IDOCK:   -3.40 KCAL/MOL
REMARK 922        TOTAL FREE ENERGY PREDICTED BY IDOCK:   -5.49 KCAL/MOL
REMARK 923 INTER-LIGAND FREE ENERGY PREDICTED BY IDOCK:   -4.92 KCAL/MOL
REMARK 924 INTRA-LIGAND FREE ENERGY PREDICTED BY IDOCK:   -0.58 KCAL/MOL
REMARK 927      BINDING AFFINITY PREDICTED BY RF-SCORE:    0.00 PKD
ROOT
HETATM    1  C   UNL     1      -9.751   4.119  67.646  1.00  0.00    -0.122 C  
HETATM    2  N   UNL     1      -9.136   4.834  68.762  1.00  0.00    -0.107 NA 
HETATM    3  H   UNL     1      -8.270   4.389  69.063  1.00  0.00     0.000 HD 
ENDROOT
BRANCH   2   4
HETATM    4  C   UNL     1      -8.931   6.248  68.429  1.00  0.00    -0.116 C  
BRANCH   4   5
HETATM    5  C   UNL     1     -10.233   7.066  68.386  1.00  0.00    -0.196 C  
BRANCH   5   6
HETATM    6  C   UNL     1     -10.524   7.971  69.595  1.00  0.00    -0.224 C  
BRANCH   6   7
HETATM    7  C   UNL     1      -9.260   8.366  70.339  1.00  0.00    -0.153 A  
HETATM    8  C   UNL     1      -7.450   8.517  72.023  1.00  0.00    -0.084 A  
HETATM    9  S   UNL     1      -8.895   7.624  71.850  1.00  0.00    -0.121 SA 
HETATM   10  C   UNL     1      -8.294   9.298  70.003  1.00  0.00    -0.176 A  
HETATM   11  C   UNL     1      -7.249   9.381  70.971  1.00  0.00    -0.054 A  
ENDBRANCH   6   7
BRANCH   6  12
HETATM   12  O   UNL     1     -11.134   9.209  69.140  1.00  0.00    -0.098 OA 
BRANCH  12  13
HETATM   13  C   UNL     1     -11.790   9.972  70.085  1.00  0.00    -0.173 A  
HETATM   14  C   UNL     1     -12.992  10.191  72.184  1.00  0.00    -0.436 A  
HETATM   15  C   UNL     1     -12.286   9.416  71.271  1.00  0.00    -0.425 A  
HETATM   16  C   UNL     1     -13.195  11.544  71.934  1.00  0.00    -0.479 A  
HETATM   17  C   UNL     1     -12.655  12.150  70.795  1.00  0.00    -0.305 A  
HETATM   18  C   UNL     1     -12.845  13.524  70.589  1.00  0.00    -0.189 A  
HETATM   19  C   UNL     1     -12.280  14.173  69.495  1.00  0.00    -0.351 A  
HETATM   20  C   UNL     1     -11.512  13.446  68.593  1.00  0.00    -0.345 A  
HETATM   21  C   UNL     1     -11.336  12.066  68.768  1.00  0.00    -0.331 A  
HETATM   22  C   UNL     1     -11.913  11.375  69.862  1.00  0.00    -0.434 A  
ENDBRANCH  12  13
ENDBRANCH   6  12
ENDBRANCH   5   6
ENDBRANCH   4   5
ENDBRANCH   2   4
TORSDOF 6
ENDMDL
MODEL      222
REMARK 921   NORMALIZED FREE ENERGY PREDICTED BY IDOCK:   -3.40 KCAL/MOL
REMARK 922        TOTAL FREE ENERGY PREDICTED BY IDOCK:   -5.49 KCAL/MOL
REMARK 923 INTER-LIGAND FREE ENERGY PREDICTED BY IDOCK:   -4.75 KCAL/MOL
REMARK 924 INTRA-LIGAND FREE ENERGY PREDICTED BY IDOCK:   -0.74 KCAL/MOL
REMARK 927      BINDING AFFINITY PREDICTED BY RF-SCORE:    0.00 PKD
ROOT
HETATM    1  C   UNL     1     -11.860  14.282  70.440  1.00  0.00    -0.305 C  
HETATM    2  N   UNL     1     -11.731  12.829  70.349  1.00  0.00    -0.541 NA 
HETATM    3  H   UNL     1     -12.306  12.356  71.047  1.00  0.00     0.000 HD 
ENDROOT
BRANCH   2   4
HETATM    4  C   UNL     1     -12.030  12.359  68.992  1.00  0.00    -0.241 C  
BRANCH   4   5
HETATM    5  C   UNL     1     -10.861  11.614  68.327  1.00  0.00    -0.260 C  
BRANCH   5   6
HETATM    6  C   UNL     1     -10.455  12.079  66.917  1.00  0.00    -0.223 C  
BRANCH   6   7
HETATM    7  C   UNL     1     -10.163  13.567  66.860  1.00  0.00    -0.256 A  
HETATM    8  C   UNL     1     -10.320  15.999  66.415  1.00  0.00    -0.305 A  
HETATM    9  S   UNL     1     -11.274  14.624  66.075  1.00  0.00    -0.342 SA 
HETATM   10  C   UNL     1      -9.074  14.271  67.344  1.00  0.00    -0.199 A  
HETATM   11  C   UNL     1      -9.167  15.672  67.091  1.00  0.00    -0.226 A  
ENDBRANCH   6   7
BRANCH   6  12
HETATM   12  O   UNL     1      -9.231  11.406  66.518  1.00  0.00    -0.178 OA 
BRANCH  12  13
HETATM   13  C   UNL     1      -9.136  11.002  65.201  1.00  0.00    -0.181 A  
HETATM   14  C   UNL     1     -10.080  10.749  62.978  1.00  0.00    -0.207 A  
HETATM   15  C   UNL     1     -10.175  11.212  64.285  1.00  0.00    -0.399 A  
HETATM   16  C   UNL     1      -8.932  10.086  62.559  1.00  0.00    -0.285 A  
HETATM   17  C   UNL     1      -7.845   9.920  63.423  1.00  0.00    -0.152 A  
HETATM   18  C   UNL     1      -6.687   9.280  62.960  1.00  0.00    -0.093 A  
HETATM   19  C   UNL     1      -5.566   9.142  63.775  1.00  0.00    -0.066 A  
HETATM   20  C   UNL     1      -5.596   9.649  65.068  1.00  0.00    -0.062 A  
HETATM   21  C   UNL     1      -6.757  10.266  65.557  1.00  0.00    -0.128 A  
HETATM   22  C   UNL     1      -7.918  10.405  64.758  1.00  0.00    -0.103 A  
ENDBRANCH  12  13
ENDBRANCH   6  12
ENDBRANCH   5   6
ENDBRANCH   4   5
ENDBRANCH   2   4
TORSDOF 6
ENDMDL
MODEL      223
REMARK 921   NORMALIZED FREE ENERGY PREDICTED BY IDOCK:   -3.40 KCAL/MOL
REMARK 922        TOTAL FREE ENERGY PREDICTED BY IDOCK:   -5.49 KCAL/MOL
REMARK 923 INTER-LIGAND FREE ENERGY PREDICTED BY IDOCK:   -6.60 KCAL/MOL
REMARK 924 INTRA-LIGAND FREE ENERGY PREDICTED BY IDOCK:    1.12 KCAL/MOL
REMARK 927      BINDING AFFINITY PREDICTED BY RF-SCORE:    0.00 PKD
ROOT
HETATM    1  C   UNL     1     -10.167  12.443  64.589  1.00  0.00    -0.287 C  
HETATM    2  N   UNL     1     -10.123  13.814  64.083  1.00  0.00    -0.655 NA 
HETATM    3  H   UNL     1     -10.858  13.985  63.397  1.00  0.00     0.000 HD 
ENDROOT
BRANCH   2   4
HETATM    4  C   UNL     1     -10.173  14.782  65.184  1.00  0.00    -0.377 C  
BRANCH   4   5
HETATM    5  C   UNL     1      -9.217  14.447  66.341  1.00  0.00    -0.242 C  
BRANCH   5   6
HETATM    6  C   UNL     1      -9.519  15.099  67.701  1.00  0.00    -0.201 C  
BRANCH   6   7
HETATM    7  C   UNL     1     -10.420  14.237  68.568  1.00  0.00    -0.253 A  
HETATM    8  C   UNL     1     -11.720  12.337  69.481  1.00  0.00    -0.332 A  
HETATM    9  S   UNL     1     -10.710  12.597  68.129  1.00  0.00    -0.233 SA 
HETATM   10  C   UNL     1     -11.115  14.568  69.718  1.00  0.00    -0.239 A  
HETATM   11  C   UNL     1     -11.860  13.472  70.246  1.00  0.00    -0.327 A  
ENDBRANCH   6   7
BRANCH   6  12
HETATM   12  O   UNL     1      -8.282  15.272  68.443  1.00  0.00    -0.138 OA 
BRANCH  12  13
HETATM   13  C   UNL     1      -7.807  16.561  68.582  1.00  0.00    -0.226 A  
HETATM   14  C   UNL     1      -6.114  18.139  69.318  1.00  0.00    -0.245 A  
HETATM   15  C   UNL     1      -6.550  16.831  69.137  1.00  0.00    -0.214 A  
HETATM   16  C   UNL     1      -6.922  19.199  68.925  1.00  0.00    -0.371 A  
HETATM   17  C   UNL     1      -8.153  18.968  68.303  1.00  0.00    -0.359 A  
HETATM   18  C   UNL     1      -8.930  20.059  67.885  1.00  0.00    -0.356 A  
HETATM   19  C   UNL     1     -10.136  19.869  67.216  1.00  0.00    -0.569 A  
HETATM   20  C   UNL     1     -10.576  18.577  66.957  1.00  0.00    -0.421 A  
HETATM   21  C   UNL     1      -9.827  17.475  67.395  1.00  0.00    -0.297 A  
HETATM   22  C   UNL     1      -8.605  17.637  68.093  1.00  0.00    -0.261 A  
ENDBRANCH  12  13
ENDBRANCH   6  12
ENDBRANCH   5   6
ENDBRANCH   4   5
ENDBRANCH   2   4
TORSDOF 6
ENDMDL
MODEL      224
REMARK 921   NORMALIZED FREE ENERGY PREDICTED BY IDOCK:   -3.39 KCAL/MOL
REMARK 922        TOTAL FREE ENERGY PREDICTED BY IDOCK:   -5.48 KCAL/MOL
REMARK 923 INTER-LIGAND FREE ENERGY PREDICTED BY IDOCK:   -4.60 KCAL/MOL
REMARK 924 INTRA-LIGAND FREE ENERGY PREDICTED BY IDOCK:   -0.88 KCAL/MOL
REMARK 927      BINDING AFFINITY PREDICTED BY RF-SCORE:    0.00 PKD
ROOT
HETATM    1  C   UNL     1     -12.364  10.564  71.040  1.00  0.00    -0.399 C  
HETATM    2  N   UNL     1     -13.293   9.446  70.893  1.00  0.00    -0.575 NA 
HETATM    3  H   UNL     1     -13.425   9.192  69.914  1.00  0.00     0.000 HD 
ENDROOT
BRANCH   2   4
HETATM    4  C   UNL     1     -12.864   8.297  71.697  1.00  0.00    -0.329 C  
BRANCH   4   5
HETATM    5  C   UNL     1     -12.175   7.194  70.876  1.00  0.00    -0.354 C  
BRANCH   5   6
HETATM    6  C   UNL     1     -10.755   6.790  71.311  1.00  0.00    -0.226 C  
BRANCH   6   7
HETATM    7  C   UNL     1     -10.709   5.398  71.912  1.00  0.00    -0.211 A  
HETATM    8  C   UNL     1     -10.187   3.013  72.333  1.00  0.00    -0.130 A  
HETATM    9  S   UNL     1      -9.754   4.177  71.161  1.00  0.00    -0.180 SA 
HETATM   10  C   UNL     1     -11.362   4.895  73.025  1.00  0.00    -0.354 A  
HETATM   11  C   UNL     1     -11.057   3.523  73.269  1.00  0.00    -0.245 A  
ENDBRANCH   6   7
BRANCH   6  12
HETATM   12  O   UNL     1      -9.881   6.764  70.151  1.00  0.00    -0.176 OA 
BRANCH  12  13
HETATM   13  C   UNL     1      -8.868   7.701  70.105  1.00  0.00    -0.146 A  
HETATM   14  C   UNL     1      -6.660   8.483  70.746  1.00  0.00    -0.041 A  
HETATM   15  C   UNL     1      -7.646   7.503  70.760  1.00  0.00    -0.081 A  
HETATM   16  C   UNL     1      -6.874   9.671  70.057  1.00  0.00    -0.085 A  
HETATM   17  C   UNL     1      -8.052   9.877  69.333  1.00  0.00    -0.139 A  
HETATM   18  C   UNL     1      -8.223  11.071  68.617  1.00  0.00    -0.151 A  
HETATM   19  C   UNL     1      -9.359  11.290  67.843  1.00  0.00    -0.161 A  
HETATM   20  C   UNL     1     -10.340  10.307  67.778  1.00  0.00    -0.246 A  
HETATM   21  C   UNL     1     -10.199   9.120  68.511  1.00  0.00    -0.223 A  
HETATM   22  C   UNL     1      -9.062   8.876  69.320  1.00  0.00    -0.145 A  
ENDBRANCH  12  13
ENDBRANCH   6  12
ENDBRANCH   5   6
ENDBRANCH   4   5
ENDBRANCH   2   4
TORSDOF 6
ENDMDL
MODEL      225
REMARK 921   NORMALIZED FREE ENERGY PREDICTED BY IDOCK:   -3.39 KCAL/MOL
REMARK 922        TOTAL FREE ENERGY PREDICTED BY IDOCK:   -5.47 KCAL/MOL
REMARK 923 INTER-LIGAND FREE ENERGY PREDICTED BY IDOCK:   -4.65 KCAL/MOL
REMARK 924 INTRA-LIGAND FREE ENERGY PREDICTED BY IDOCK:   -0.82 KCAL/MOL
REMARK 927      BINDING AFFINITY PREDICTED BY RF-SCORE:    0.00 PKD
ROOT
HETATM    1  C   UNL     1     -10.553  16.080  65.285  1.00  0.00    -0.402 C  
HETATM    2  N   UNL     1     -10.205  15.634  66.633  1.00  0.00    -0.271 NA 
HETATM    3  H   UNL     1     -11.036  15.452  67.196  1.00  0.00     0.000 HD 
ENDROOT
BRANCH   2   4
HETATM    4  C   UNL     1      -9.318  14.466  66.585  1.00  0.00    -0.278 C  
BRANCH   4   5
HETATM    5  C   UNL     1      -9.788  13.300  67.471  1.00  0.00    -0.220 C  
BRANCH   5   6
HETATM    6  C   UNL     1     -10.253  12.024  66.749  1.00  0.00    -0.202 C  
BRANCH   6   7
HETATM    7  C   UNL     1     -11.050  12.328  65.494  1.00  0.00    -0.307 A  
HETATM    8  C   UNL     1     -11.719  12.655  63.131  1.00  0.00    -0.217 A  
HETATM    9  S   UNL     1     -10.292  12.199  63.952  1.00  0.00    -0.439 SA 
HETATM   10  C   UNL     1     -12.365  12.739  65.362  1.00  0.00    -0.528 A  
HETATM   11  C   UNL     1     -12.751  12.923  64.001  1.00  0.00    -0.233 A  
ENDBRANCH   6   7
BRANCH   6  12
HETATM   12  O   UNL     1      -9.095  11.257  66.323  1.00  0.00    -0.187 OA 
BRANCH  12  13
HETATM   13  C   UNL     1      -8.976   9.972  66.813  1.00  0.00    -0.135 A  
HETATM   14  C   UNL     1      -9.107   8.364  68.628  1.00  0.00    -0.140 A  
HETATM   15  C   UNL     1      -9.286   9.654  68.141  1.00  0.00    -0.140 A  
HETATM   16  C   UNL     1      -8.634   7.365  67.785  1.00  0.00    -0.120 A  
HETATM   17  C   UNL     1      -8.379   7.627  66.436  1.00  0.00    -0.129 A  
HETATM   18  C   UNL     1      -7.938   6.589  65.602  1.00  0.00    -0.114 A  
HETATM   19  C   UNL     1      -7.724   6.799  64.243  1.00  0.00    -0.109 A  
HETATM   20  C   UNL     1      -7.954   8.059  63.703  1.00  0.00    -0.130 A  
HETATM   21  C   UNL     1      -8.367   9.115  64.527  1.00  0.00    -0.175 A  
HETATM   22  C   UNL     1      -8.576   8.936  65.917  1.00  0.00    -0.177 A  
ENDBRANCH  12  13
ENDBRANCH   6  12
ENDBRANCH   5   6
ENDBRANCH   4   5
ENDBRANCH   2   4
TORSDOF 6
ENDMDL
MODEL      226
REMARK 921   NORMALIZED FREE ENERGY PREDICTED BY IDOCK:   -3.39 KCAL/MOL
REMARK 922        TOTAL FREE ENERGY PREDICTED BY IDOCK:   -5.47 KCAL/MOL
REMARK 923 INTER-LIGAND FREE ENERGY PREDICTED BY IDOCK:   -5.23 KCAL/MOL
REMARK 924 INTRA-LIGAND FREE ENERGY PREDICTED BY IDOCK:   -0.24 KCAL/MOL
REMARK 927      BINDING AFFINITY PREDICTED BY RF-SCORE:    0.00 PKD
ROOT
HETATM    1  C   UNL     1      -6.637   8.215  68.973  1.00  0.00    -0.048 C  
HETATM    2  N   UNL     1      -7.043   8.910  67.753  1.00  0.00    -0.079 NA 
HETATM    3  H   UNL     1      -6.365   8.780  67.002  1.00  0.00     0.000 HD 
ENDROOT
BRANCH   2   4
HETATM    4  C   UNL     1      -8.391   8.502  67.342  1.00  0.00    -0.120 C  
BRANCH   4   5
HETATM    5  C   UNL     1      -9.365   9.681  67.169  1.00  0.00    -0.168 C  
BRANCH   5   6
HETATM    6  C   UNL     1     -10.651   9.647  68.013  1.00  0.00    -0.243 C  
BRANCH   6   7
HETATM    7  C   UNL     1     -10.434   9.007  69.373  1.00  0.00    -0.222 A  
HETATM    8  C   UNL     1     -10.373   7.395  71.252  1.00  0.00    -0.192 A  
HETATM    9  S   UNL     1     -10.901   7.369  69.628  1.00  0.00    -0.169 SA 
HETATM   10  C   UNL     1      -9.910   9.555  70.531  1.00  0.00    -0.331 A  
HETATM   11  C   UNL     1      -9.871   8.624  71.611  1.00  0.00    -0.351 A  
ENDBRANCH   6   7
BRANCH   6  12
HETATM   12  O   UNL     1     -11.102  11.004  68.266  1.00  0.00    -0.215 OA 
BRANCH  12  13
HETATM   13  C   UNL     1     -10.360  12.028  67.711  1.00  0.00    -0.197 A  
HETATM   14  C   UNL     1      -8.367  13.414  67.632  1.00  0.00    -0.179 A  
HETATM   15  C   UNL     1      -9.075  12.344  68.168  1.00  0.00    -0.200 A  
HETATM   16  C   UNL     1      -8.928  14.173  66.611  1.00  0.00    -0.193 A  
HETATM   17  C   UNL     1     -10.179  13.845  66.080  1.00  0.00    -0.317 A  
HETATM   18  C   UNL     1     -10.702  14.607  65.025  1.00  0.00    -0.448 A  
HETATM   19  C   UNL     1     -11.921  14.280  64.435  1.00  0.00    -0.476 A  
HETATM   20  C   UNL     1     -12.629  13.179  64.900  1.00  0.00    -0.468 A  
HETATM   21  C   UNL     1     -12.135  12.423  65.973  1.00  0.00    -0.327 A  
HETATM   22  C   UNL     1     -10.907  12.742  66.604  1.00  0.00    -0.288 A  
ENDBRANCH  12  13
ENDBRANCH   6  12
ENDBRANCH   5   6
ENDBRANCH   4   5
ENDBRANCH   2   4
TORSDOF 6
ENDMDL
MODEL      227
REMARK 921   NORMALIZED FREE ENERGY PREDICTED BY IDOCK:   -3.38 KCAL/MOL
REMARK 922        TOTAL FREE ENERGY PREDICTED BY IDOCK:   -5.47 KCAL/MOL
REMARK 923 INTER-LIGAND FREE ENERGY PREDICTED BY IDOCK:   -4.82 KCAL/MOL
REMARK 924 INTRA-LIGAND FREE ENERGY PREDICTED BY IDOCK:   -0.64 KCAL/MOL
REMARK 927      BINDING AFFINITY PREDICTED BY RF-SCORE:    0.00 PKD
ROOT
HETATM    1  C   UNL     1     -12.219  12.688  70.295  1.00  0.00    -0.271 C  
HETATM    2  N   UNL     1     -10.936  12.651  69.594  1.00  0.00    -0.445 NA 
HETATM    3  H   UNL     1     -10.177  12.996  70.181  1.00  0.00     0.000 HD 
ENDROOT
BRANCH   2   4
HETATM    4  C   UNL     1     -10.657  11.304  69.084  1.00  0.00    -0.187 C  
BRANCH   4   5
HETATM    5  C   UNL     1     -10.850  10.196  70.133  1.00  0.00    -0.368 C  
BRANCH   5   6
HETATM    6  C   UNL     1     -10.082   8.883  69.903  1.00  0.00    -0.195 C  
BRANCH   6   7
HETATM    7  C   UNL     1     -10.335   7.866  71.001  1.00  0.00    -0.201 A  
HETATM    8  C   UNL     1     -11.364   6.118  72.423  1.00  0.00    -0.296 A  
HETATM    9  S   UNL     1     -11.805   6.969  71.010  1.00  0.00    -0.365 SA 
HETATM   10  C   UNL     1      -9.545   7.524  72.085  1.00  0.00    -0.190 A  
HETATM   11  C   UNL     1     -10.136   6.513  72.901  1.00  0.00    -0.197 A  
ENDBRANCH   6   7
BRANCH   6  12
HETATM   12  O   UNL     1     -10.530   8.268  68.665  1.00  0.00    -0.211 OA 
BRANCH  12  13
HETATM   13  C   UNL     1      -9.558   7.924  67.746  1.00  0.00    -0.147 A  
HETATM   14  C   UNL     1      -7.694   6.539  67.036  1.00  0.00    -0.100 A  
HETATM   15  C   UNL     1      -8.701   6.835  67.948  1.00  0.00    -0.120 A  
HETATM   16  C   UNL     1      -7.543   7.318  65.894  1.00  0.00    -0.090 A  
HETATM   17  C   UNL     1      -8.423   8.369  65.623  1.00  0.00    -0.179 A  
HETATM   18  C   UNL     1      -8.268   9.113  64.444  1.00  0.00    -0.158 A  
HETATM   19  C   UNL     1      -9.155  10.134  64.115  1.00  0.00    -0.287 A  
HETATM   20  C   UNL     1     -10.214  10.418  64.968  1.00  0.00    -0.334 A  
HETATM   21  C   UNL     1     -10.367   9.704  66.165  1.00  0.00    -0.202 A  
HETATM   22  C   UNL     1      -9.471   8.673  66.536  1.00  0.00    -0.278 A  
ENDBRANCH  12  13
ENDBRANCH   6  12
ENDBRANCH   5   6
ENDBRANCH   4   5
ENDBRANCH   2   4
TORSDOF 6
ENDMDL
MODEL      228
REMARK 921   NORMALIZED FREE ENERGY PREDICTED BY IDOCK:   -3.38 KCAL/MOL
REMARK 922        TOTAL FREE ENERGY PREDICTED BY IDOCK:   -5.46 KCAL/MOL
REMARK 923 INTER-LIGAND FREE ENERGY PREDICTED BY IDOCK:   -4.91 KCAL/MOL
REMARK 924 INTRA-LIGAND FREE ENERGY PREDICTED BY IDOCK:   -0.55 KCAL/MOL
REMARK 927      BINDING AFFINITY PREDICTED BY RF-SCORE:    0.00 PKD
ROOT
HETATM    1  C   UNL     1      -6.933   7.965  70.665  1.00  0.00    -0.041 C  
HETATM    2  N   UNL     1      -7.975   8.567  69.835  1.00  0.00    -0.103 NA 
HETATM    3  H   UNL     1      -8.515   9.260  70.352  1.00  0.00     0.000 HD 
ENDROOT
BRANCH   2   4
HETATM    4  C   UNL     1      -7.405   9.131  68.606  1.00  0.00    -0.076 C  
BRANCH   4   5
HETATM    5  C   UNL     1      -8.205  10.319  68.045  1.00  0.00    -0.113 C  
BRANCH   5   6
HETATM    6  C   UNL     1      -9.097  10.039  66.824  1.00  0.00    -0.139 C  
BRANCH   6   7
HETATM    7  C   UNL     1      -9.519   8.583  66.737  1.00  0.00    -0.194 A  
HETATM    8  C   UNL     1      -9.593   6.164  66.212  1.00  0.00    -0.085 A  
HETATM    9  S   UNL     1      -8.540   7.464  65.868  1.00  0.00    -0.136 SA 
HETATM   10  C   UNL     1     -10.642   7.958  67.251  1.00  0.00    -0.365 A  
HETATM   11  C   UNL     1     -10.682   6.564  66.952  1.00  0.00    -0.403 A  
ENDBRANCH   6   7
BRANCH   6  12
HETATM   12  O   UNL     1     -10.322  10.814  66.929  1.00  0.00    -0.221 OA 
BRANCH  12  13
HETATM   13  C   UNL     1     -10.673  11.587  65.840  1.00  0.00    -0.272 A  
HETATM   14  C   UNL     1     -11.387  11.812  63.530  1.00  0.00    -0.496 A  
HETATM   15  C   UNL     1     -11.091  11.017  64.632  1.00  0.00    -0.041 A  
HETATM   16  C   UNL     1     -11.291  13.196  63.629  1.00  0.00    -0.307 A  
HETATM   17  C   UNL     1     -10.945  13.804  64.839  1.00  0.00    -0.378 A  
HETATM   18  C   UNL     1     -10.893  15.204  64.917  1.00  0.00    -0.437 A  
HETATM   19  C   UNL     1     -10.603  15.848  66.117  1.00  0.00    -0.310 A  
HETATM   20  C   UNL     1     -10.365  15.090  67.257  1.00  0.00    -0.249 A  
HETATM   21  C   UNL     1     -10.384  13.689  67.190  1.00  0.00    -0.250 A  
HETATM   22  C   UNL     1     -10.658  13.006  65.980  1.00  0.00    -0.292 A  
ENDBRANCH  12  13
ENDBRANCH   6  12
ENDBRANCH   5   6
ENDBRANCH   4   5
ENDBRANCH   2   4
TORSDOF 6
ENDMDL
MODEL      229
REMARK 921   NORMALIZED FREE ENERGY PREDICTED BY IDOCK:   -3.37 KCAL/MOL
REMARK 922        TOTAL FREE ENERGY PREDICTED BY IDOCK:   -5.45 KCAL/MOL
REMARK 923 INTER-LIGAND FREE ENERGY PREDICTED BY IDOCK:   -4.91 KCAL/MOL
REMARK 924 INTRA-LIGAND FREE ENERGY PREDICTED BY IDOCK:   -0.54 KCAL/MOL
REMARK 927      BINDING AFFINITY PREDICTED BY RF-SCORE:    0.00 PKD
ROOT
HETATM    1  C   UNL     1     -12.965  11.517  71.874  1.00  0.00    -0.348 C  
HETATM    2  N   UNL     1     -12.503  10.211  71.405  1.00  0.00    -0.388 NA 
HETATM    3  H   UNL     1     -13.169   9.785  70.761  1.00  0.00     0.000 HD 
ENDROOT
BRANCH   2   4
HETATM    4  C   UNL     1     -11.165  10.311  70.811  1.00  0.00    -0.293 C  
BRANCH   4   5
HETATM    5  C   UNL     1     -11.165  10.222  69.276  1.00  0.00    -0.281 C  
BRANCH   5   6
HETATM    6  C   UNL     1     -10.266   9.146  68.644  1.00  0.00    -0.204 C  
BRANCH   6   7
HETATM    7  C   UNL     1     -10.243   7.862  69.454  1.00  0.00    -0.206 A  
HETATM    8  C   UNL     1      -9.575   6.047  71.001  1.00  0.00    -0.172 A  
HETATM    9  S   UNL     1      -8.906   7.532  70.488  1.00  0.00    -0.148 SA 
HETATM   10  C   UNL     1     -11.162   6.829  69.494  1.00  0.00    -0.319 A  
HETATM   11  C   UNL     1     -10.779   5.785  70.389  1.00  0.00    -0.372 A  
ENDBRANCH   6   7
BRANCH   6  12
HETATM   12  O   UNL     1     -10.780   8.792  67.332  1.00  0.00    -0.267 OA 
BRANCH  12  13
HETATM   13  C   UNL     1     -10.269   9.480  66.249  1.00  0.00    -0.220 A  
HETATM   14  C   UNL     1     -10.207  11.427  64.800  1.00  0.00    -0.338 A  
HETATM   15  C   UNL     1     -10.695  10.774  65.926  1.00  0.00    -0.143 A  
HETATM   16  C   UNL     1      -9.267  10.801  63.989  1.00  0.00    -0.252 A  
HETATM   17  C   UNL     1      -8.766   9.538  64.317  1.00  0.00    -0.232 A  
HETATM   18  C   UNL     1      -7.791   8.948  63.499  1.00  0.00    -0.141 A  
HETATM   19  C   UNL     1      -7.230   7.715  63.822  1.00  0.00    -0.085 A  
HETATM   20  C   UNL     1      -7.643   7.059  64.975  1.00  0.00    -0.104 A  
HETATM   21  C   UNL     1      -8.639   7.620  65.788  1.00  0.00    -0.156 A  
HETATM   22  C   UNL     1      -9.239   8.865  65.477  1.00  0.00    -0.242 A  
ENDBRANCH  12  13
ENDBRANCH   6  12
ENDBRANCH   5   6
ENDBRANCH   4   5
ENDBRANCH   2   4
TORSDOF 6
ENDMDL
MODEL      230
REMARK 921   NORMALIZED FREE ENERGY PREDICTED BY IDOCK:   -3.36 KCAL/MOL
REMARK 922        TOTAL FREE ENERGY PREDICTED BY IDOCK:   -5.44 KCAL/MOL
REMARK 923 INTER-LIGAND FREE ENERGY PREDICTED BY IDOCK:   -5.04 KCAL/MOL
REMARK 924 INTRA-LIGAND FREE ENERGY PREDICTED BY IDOCK:   -0.40 KCAL/MOL
REMARK 927      BINDING AFFINITY PREDICTED BY RF-SCORE:    0.00 PKD
ROOT
HETATM    1  C   UNL     1     -10.679  11.786  66.771  1.00  0.00    -0.253 C  
HETATM    2  N   UNL     1     -10.778  13.048  67.502  1.00  0.00    -0.236 NA 
HETATM    3  H   UNL     1     -10.284  13.007  68.394  1.00  0.00     0.000 HD 
ENDROOT
BRANCH   2   4
HETATM    4  C   UNL     1     -10.313  14.169  66.678  1.00  0.00    -0.277 C  
BRANCH   4   5
HETATM    5  C   UNL     1      -8.857  14.578  66.960  1.00  0.00    -0.256 C  
BRANCH   5   6
HETATM    6  C   UNL     1      -8.383  14.490  68.421  1.00  0.00    -0.153 C  
BRANCH   6   7
HETATM    7  C   UNL     1      -7.198  13.556  68.589  1.00  0.00    -0.107 A  
HETATM    8  C   UNL     1      -5.509  11.780  68.229  1.00  0.00    -0.042 A  
HETATM    9  S   UNL     1      -6.875  12.365  67.388  1.00  0.00    -0.130 SA 
HETATM   10  C   UNL     1      -6.281  13.473  69.622  1.00  0.00    -0.121 A  
HETATM   11  C   UNL     1      -5.305  12.454  69.412  1.00  0.00    -0.072 A  
ENDBRANCH   6   7
BRANCH   6  12
HETATM   12  O   UNL     1      -7.938  15.799  68.867  1.00  0.00    -0.166 OA 
BRANCH  12  13
HETATM   13  C   UNL     1      -7.594  16.713  67.891  1.00  0.00    -0.160 A  
HETATM   14  C   UNL     1      -6.138  17.469  66.100  1.00  0.00    -0.235 A  
HETATM   15  C   UNL     1      -6.501  16.510  67.040  1.00  0.00    -0.221 A  
HETATM   16  C   UNL     1      -6.880  18.639  65.983  1.00  0.00    -0.296 A  
HETATM   17  C   UNL     1      -8.019  18.846  66.767  1.00  0.00    -0.269 A  
HETATM   18  C   UNL     1      -8.767  20.021  66.600  1.00  0.00    -0.397 A  
HETATM   19  C   UNL     1      -9.936  20.239  67.325  1.00  0.00    -0.580 A  
HETATM   20  C   UNL     1     -10.368  19.276  68.228  1.00  0.00    -0.478 A  
HETATM   21  C   UNL     1      -9.616  18.109  68.429  1.00  0.00    -0.345 A  
HETATM   22  C   UNL     1      -8.414  17.867  67.719  1.00  0.00    -0.242 A  
ENDBRANCH  12  13
ENDBRANCH   6  12
ENDBRANCH   5   6
ENDBRANCH   4   5
ENDBRANCH   2   4
TORSDOF 6
ENDMDL
MODEL      231
REMARK 921   NORMALIZED FREE ENERGY PREDICTED BY IDOCK:   -3.34 KCAL/MOL
REMARK 922        TOTAL FREE ENERGY PREDICTED BY IDOCK:   -5.41 KCAL/MOL
REMARK 923 INTER-LIGAND FREE ENERGY PREDICTED BY IDOCK:   -5.47 KCAL/MOL
REMARK 924 INTRA-LIGAND FREE ENERGY PREDICTED BY IDOCK:    0.06 KCAL/MOL
REMARK 927      BINDING AFFINITY PREDICTED BY RF-SCORE:    0.00 PKD
ROOT
HETATM    1  C   UNL     1     -12.210  10.351  70.776  1.00  0.00    -0.359 C  
HETATM    2  N   UNL     1     -13.091   9.188  70.865  1.00  0.00    -0.530 NA 
HETATM    3  H   UNL     1     -13.130   8.676  69.984  1.00  0.00     0.000 HD 
ENDROOT
BRANCH   2   4
HETATM    4  C   UNL     1     -12.700   8.318  71.980  1.00  0.00    -0.342 C  
BRANCH   4   5
HETATM    5  C   UNL     1     -12.515   6.846  71.576  1.00  0.00    -0.420 C  
BRANCH   5   6
HETATM    6  C   UNL     1     -11.070   6.354  71.387  1.00  0.00    -0.277 C  
BRANCH   6   7
HETATM    7  C   UNL     1     -10.740   5.171  72.279  1.00  0.00    -0.203 A  
HETATM    8  C   UNL     1      -9.798   3.057  73.161  1.00  0.00    -0.110 A  
HETATM    9  S   UNL     1      -9.671   3.947  71.709  1.00  0.00    -0.178 SA 
HETATM   10  C   UNL     1     -11.196   4.872  73.551  1.00  0.00    -0.375 A  
HETATM   11  C   UNL     1     -10.649   3.657  74.061  1.00  0.00    -0.278 A  
ENDBRANCH   6   7
BRANCH   6  12
HETATM   12  O   UNL     1     -10.886   5.899  70.019  1.00  0.00    -0.302 OA 
BRANCH  12  13
HETATM   13  C   UNL     1     -10.492   6.841  69.090  1.00  0.00    -0.216 A  
HETATM   14  C   UNL     1     -10.526   7.759  66.842  1.00  0.00    -0.388 A  
HETATM   15  C   UNL     1     -10.978   6.834  67.777  1.00  0.00    -0.321 A  
HETATM   16  C   UNL     1      -9.594   8.721  67.214  1.00  0.00    -0.214 A  
HETATM   17  C   UNL     1      -9.138   8.803  68.533  1.00  0.00    -0.138 A  
HETATM   18  C   UNL     1      -8.225   9.808  68.886  1.00  0.00    -0.117 A  
HETATM   19  C   UNL     1      -7.788   9.954  70.200  1.00  0.00    -0.186 A  
HETATM   20  C   UNL     1      -8.266   9.091  71.177  1.00  0.00    -0.198 A  
HETATM   21  C   UNL     1      -9.156   8.062  70.837  1.00  0.00    -0.161 A  
HETATM   22  C   UNL     1      -9.605   7.878  69.506  1.00  0.00    -0.160 A  
ENDBRANCH  12  13
ENDBRANCH   6  12
ENDBRANCH   5   6
ENDBRANCH   4   5
ENDBRANCH   2   4
TORSDOF 6
ENDMDL
MODEL      232
REMARK 921   NORMALIZED FREE ENERGY PREDICTED BY IDOCK:   -3.34 KCAL/MOL
REMARK 922        TOTAL FREE ENERGY PREDICTED BY IDOCK:   -5.40 KCAL/MOL
REMARK 923 INTER-LIGAND FREE ENERGY PREDICTED BY IDOCK:   -4.52 KCAL/MOL
REMARK 924 INTRA-LIGAND FREE ENERGY PREDICTED BY IDOCK:   -0.88 KCAL/MOL
REMARK 927      BINDING AFFINITY PREDICTED BY RF-SCORE:    0.00 PKD
ROOT
HETATM    1  C   UNL     1     -10.865   4.985  73.966  1.00  0.00    -0.220 C  
HETATM    2  N   UNL     1     -10.855   6.330  73.393  1.00  0.00    -0.394 NA 
HETATM    3  H   UNL     1     -11.552   6.931  73.833  1.00  0.00     0.000 HD 
ENDROOT
BRANCH   2   4
HETATM    4  C   UNL     1      -9.513   6.918  73.460  1.00  0.00    -0.178 C  
BRANCH   4   5
HETATM    5  C   UNL     1      -8.528   6.321  72.440  1.00  0.00    -0.114 C  
BRANCH   5   6
HETATM    6  C   UNL     1      -8.512   6.955  71.039  1.00  0.00    -0.131 C  
BRANCH   6   7
HETATM    7  C   UNL     1      -7.703   6.142  70.045  1.00  0.00    -0.097 A  
HETATM    8  C   UNL     1      -6.914   4.338  68.542  1.00  0.00    -0.051 A  
HETATM    9  S   UNL     1      -8.237   4.567  69.597  1.00  0.00    -0.063 SA 
HETATM   10  C   UNL     1      -6.516   6.457  69.407  1.00  0.00    -0.040 A  
HETATM   11  C   UNL     1      -6.064   5.420  68.538  1.00  0.00    -0.026 A  
ENDBRANCH   6   7
BRANCH   6  12
HETATM   12  O   UNL     1      -9.867   7.010  70.515  1.00  0.00    -0.179 OA 
BRANCH  12  13
HETATM   13  C   UNL     1     -10.166   8.045  69.652  1.00  0.00    -0.208 A  
HETATM   14  C   UNL     1      -9.950   9.156  67.503  1.00  0.00    -0.258 A  
HETATM   15  C   UNL     1      -9.682   8.077  68.338  1.00  0.00    -0.168 A  
HETATM   16  C   UNL     1     -10.728  10.213  67.964  1.00  0.00    -0.305 A  
HETATM   17  C   UNL     1     -11.286  10.184  69.246  1.00  0.00    -0.211 A  
HETATM   18  C   UNL     1     -12.097  11.248  69.669  1.00  0.00    -0.391 A  
HETATM   19  C   UNL     1     -12.713  11.231  70.917  1.00  0.00    -0.412 A  
HETATM   20  C   UNL     1     -12.522  10.141  71.757  1.00  0.00    -0.455 A  
HETATM   21  C   UNL     1     -11.692   9.082  71.362  1.00  0.00    -0.392 A  
HETATM   22  C   UNL     1     -11.038   9.079  70.105  1.00  0.00    -0.228 A  
ENDBRANCH  12  13
ENDBRANCH   6  12
ENDBRANCH   5   6
ENDBRANCH   4   5
ENDBRANCH   2   4
TORSDOF 6
ENDMDL
MODEL      233
REMARK 921   NORMALIZED FREE ENERGY PREDICTED BY IDOCK:   -3.33 KCAL/MOL
REMARK 922        TOTAL FREE ENERGY PREDICTED BY IDOCK:   -5.40 KCAL/MOL
REMARK 923 INTER-LIGAND FREE ENERGY PREDICTED BY IDOCK:   -4.73 KCAL/MOL
REMARK 924 INTRA-LIGAND FREE ENERGY PREDICTED BY IDOCK:   -0.67 KCAL/MOL
REMARK 927      BINDING AFFINITY PREDICTED BY RF-SCORE:    0.00 PKD
ROOT
HETATM    1  C   UNL     1      -9.027   3.671  73.403  1.00  0.00    -0.094 C  
HETATM    2  N   UNL     1      -9.512   4.930  73.966  1.00  0.00    -0.121 NA 
HETATM    3  H   UNL     1      -8.845   5.689  73.823  1.00  0.00     0.000 HD 
ENDROOT
BRANCH   2   4
HETATM    4  C   UNL     1     -10.837   5.267  73.434  1.00  0.00    -0.302 C  
BRANCH   4   5
HETATM    5  C   UNL     1     -10.982   6.744  73.034  1.00  0.00    -0.293 C  
BRANCH   5   6
HETATM    6  C   UNL     1      -9.966   7.289  72.015  1.00  0.00    -0.162 C  
BRANCH   6   7
HETATM    7  C   UNL     1     -10.143   6.677  70.637  1.00  0.00    -0.184 A  
HETATM    8  C   UNL     1      -9.740   5.492  68.500  1.00  0.00    -0.134 A  
HETATM    9  S   UNL     1      -8.822   5.863  69.891  1.00  0.00    -0.130 SA 
HETATM   10  C   UNL     1     -11.252   6.677  69.808  1.00  0.00    -0.413 A  
HETATM   11  C   UNL     1     -11.020   5.990  68.579  1.00  0.00    -0.350 A  
ENDBRANCH   6   7
BRANCH   6  12
HETATM   12  O   UNL     1     -10.159   8.721  71.855  1.00  0.00    -0.295 OA 
BRANCH  12  13
HETATM   13  C   UNL     1      -9.368   9.362  70.922  1.00  0.00    -0.193 A  
HETATM   14  C   UNL     1      -7.197   9.872  69.962  1.00  0.00    -0.146 A  
HETATM   15  C   UNL     1      -7.981   9.175  70.874  1.00  0.00    -0.192 A  
HETATM   16  C   UNL     1      -7.793  10.753  69.066  1.00  0.00    -0.138 A  
HETATM   17  C   UNL     1      -9.181  10.913  69.037  1.00  0.00    -0.128 A  
HETATM   18  C   UNL     1      -9.756  11.782  68.098  1.00  0.00    -0.192 A  
HETATM   19  C   UNL     1     -11.137  11.928  68.003  1.00  0.00    -0.293 A  
HETATM   20  C   UNL     1     -11.960  11.200  68.853  1.00  0.00    -0.367 A  
HETATM   21  C   UNL     1     -11.401  10.349  69.819  1.00  0.00    -0.353 A  
HETATM   22  C   UNL     1     -10.000  10.193  69.950  1.00  0.00    -0.250 A  
ENDBRANCH  12  13
ENDBRANCH   6  12
ENDBRANCH   5   6
ENDBRANCH   4   5
ENDBRANCH   2   4
TORSDOF 6
ENDMDL
MODEL      234
REMARK 921   NORMALIZED FREE ENERGY PREDICTED BY IDOCK:   -3.31 KCAL/MOL
REMARK 922        TOTAL FREE ENERGY PREDICTED BY IDOCK:   -5.37 KCAL/MOL
REMARK 923 INTER-LIGAND FREE ENERGY PREDICTED BY IDOCK:   -4.49 KCAL/MOL
REMARK 924 INTRA-LIGAND FREE ENERGY PREDICTED BY IDOCK:   -0.88 KCAL/MOL
REMARK 927      BINDING AFFINITY PREDICTED BY RF-SCORE:    0.00 PKD
ROOT
HETATM    1  C   UNL     1     -12.108  13.824  63.722  1.00  0.00    -0.336 C  
HETATM    2  N   UNL     1     -11.993  14.176  65.136  1.00  0.00    -0.370 NA 
HETATM    3  H   UNL     1     -12.511  15.026  65.357  1.00  0.00     0.000 HD 
ENDROOT
BRANCH   2   4
HETATM    4  C   UNL     1     -12.403  13.056  65.991  1.00  0.00    -0.319 C  
BRANCH   4   5
HETATM    5  C   UNL     1     -11.751  13.073  67.384  1.00  0.00    -0.427 C  
BRANCH   5   6
HETATM    6  C   UNL     1     -10.458  12.258  67.554  1.00  0.00    -0.213 C  
BRANCH   6   7
HETATM    7  C   UNL     1      -9.271  13.127  67.929  1.00  0.00    -0.207 A  
HETATM    8  C   UNL     1      -7.767  15.064  68.275  1.00  0.00    -0.111 A  
HETATM    9  S   UNL     1      -9.330  14.823  67.632  1.00  0.00    -0.199 SA 
HETATM   10  C   UNL     1      -8.057  12.768  68.487  1.00  0.00    -0.080 A  
HETATM   11  C   UNL     1      -7.192  13.885  68.690  1.00  0.00    -0.108 A  
ENDBRANCH   6   7
BRANCH   6  12
HETATM   12  O   UNL     1     -10.624  11.304  68.637  1.00  0.00    -0.184 OA 
BRANCH  12  13
HETATM   13  C   UNL     1     -10.460   9.968  68.329  1.00  0.00    -0.213 A  
HETATM   14  C   UNL     1     -10.750   8.075  66.835  1.00  0.00    -0.201 A  
HETATM   15  C   UNL     1     -10.875   9.434  67.103  1.00  0.00    -0.132 A  
HETATM   16  C   UNL     1     -10.186   7.231  67.786  1.00  0.00    -0.247 A  
HETATM   17  C   UNL     1      -9.696   7.738  68.993  1.00  0.00    -0.157 A  
HETATM   18  C   UNL     1      -9.099   6.867  69.916  1.00  0.00    -0.144 A  
HETATM   19  C   UNL     1      -8.553   7.342  71.105  1.00  0.00    -0.130 A  
HETATM   20  C   UNL     1      -8.600   8.702  71.381  1.00  0.00    -0.247 A  
HETATM   21  C   UNL     1      -9.219   9.584  70.483  1.00  0.00    -0.284 A  
HETATM   22  C   UNL     1      -9.798   9.128  69.274  1.00  0.00    -0.175 A  
ENDBRANCH  12  13
ENDBRANCH   6  12
ENDBRANCH   5   6
ENDBRANCH   4   5
ENDBRANCH   2   4
TORSDOF 6
ENDMDL
MODEL      235
REMARK 921   NORMALIZED FREE ENERGY PREDICTED BY IDOCK:   -3.31 KCAL/MOL
REMARK 922        TOTAL FREE ENERGY PREDICTED BY IDOCK:   -5.36 KCAL/MOL
REMARK 923 INTER-LIGAND FREE ENERGY PREDICTED BY IDOCK:   -4.54 KCAL/MOL
REMARK 924 INTRA-LIGAND FREE ENERGY PREDICTED BY IDOCK:   -0.82 KCAL/MOL
REMARK 927      BINDING AFFINITY PREDICTED BY RF-SCORE:    0.00 PKD
ROOT
HETATM    1  C   UNL     1     -10.596  19.986  65.435  1.00  0.00    -0.066 C  
HETATM    2  N   UNL     1     -10.219  19.107  66.540  1.00  0.00    -0.395 NA 
HETATM    3  H   UNL     1      -9.256  18.784  66.453  1.00  0.00     0.000 HD 
ENDROOT
BRANCH   2   4
HETATM    4  C   UNL     1     -10.458  19.759  67.833  1.00  0.00    -0.393 C  
BRANCH   4   5
HETATM    5  C   UNL     1      -9.666  19.132  68.993  1.00  0.00    -0.420 C  
BRANCH   5   6
HETATM    6  C   UNL     1      -8.681  18.006  68.632  1.00  0.00    -0.262 C  
BRANCH   6   7
HETATM    7  C   UNL     1      -7.297  18.242  69.207  1.00  0.00    -0.033 A  
HETATM    8  C   UNL     1      -5.252  19.319  70.099  1.00  0.00    -0.203 A  
HETATM    9  S   UNL     1      -6.761  19.852  69.506  1.00  0.00    -0.260 SA 
HETATM   10  C   UNL     1      -6.312  17.328  69.538  1.00  0.00    -0.235 A  
HETATM   11  C   UNL     1      -5.136  17.948  70.056  1.00  0.00    -0.204 A  
ENDBRANCH   6   7
BRANCH   6  12
HETATM   12  O   UNL     1      -9.150  16.751  69.195  1.00  0.00    -0.227 OA 
BRANCH  12  13
HETATM   13  C   UNL     1      -9.700  15.836  68.320  1.00  0.00    -0.201 A  
HETATM   14  C   UNL     1     -10.015  14.956  66.079  1.00  0.00    -0.337 A  
HETATM   15  C   UNL     1      -9.408  15.853  66.950  1.00  0.00    -0.244 A  
HETATM   16  C   UNL     1     -10.910  14.011  66.569  1.00  0.00    -0.300 A  
HETATM   17  C   UNL     1     -11.172  13.917  67.939  1.00  0.00    -0.302 A  
HETATM   18  C   UNL     1     -12.051  12.929  68.407  1.00  0.00    -0.169 A  
HETATM   19  C   UNL     1     -12.297  12.771  69.768  1.00  0.00    -0.096 A  
HETATM   20  C   UNL     1     -11.659  13.605  70.678  1.00  0.00     0.051 A  
HETATM   21  C   UNL     1     -10.801  14.618  70.225  1.00  0.00     0.004 A  
HETATM   22  C   UNL     1     -10.544  14.814  68.846  1.00  0.00    -0.250 A  
ENDBRANCH  12  13
ENDBRANCH   6  12
ENDBRANCH   5   6
ENDBRANCH   4   5
ENDBRANCH   2   4
TORSDOF 6
ENDMDL
MODEL      236
REMARK 921   NORMALIZED FREE ENERGY PREDICTED BY IDOCK:   -3.30 KCAL/MOL
REMARK 922        TOTAL FREE ENERGY PREDICTED BY IDOCK:   -5.36 KCAL/MOL
REMARK 923 INTER-LIGAND FREE ENERGY PREDICTED BY IDOCK:   -4.61 KCAL/MOL
REMARK 924 INTRA-LIGAND FREE ENERGY PREDICTED BY IDOCK:   -0.74 KCAL/MOL
REMARK 927      BINDING AFFINITY PREDICTED BY RF-SCORE:    0.00 PKD
ROOT
HETATM    1  C   UNL     1      -8.178   7.928  65.207  1.00  0.00    -0.145 C  
HETATM    2  N   UNL     1      -9.349   8.793  65.342  1.00  0.00    -0.443 NA 
HETATM    3  H   UNL     1     -10.024   8.632  64.595  1.00  0.00     0.000 HD 
ENDROOT
BRANCH   2   4
HETATM    4  C   UNL     1      -9.962   8.643  66.667  1.00  0.00    -0.287 C  
BRANCH   4   5
HETATM    5  C   UNL     1     -10.630   9.928  67.185  1.00  0.00    -0.295 C  
BRANCH   5   6
HETATM    6  C   UNL     1     -10.008  11.262  66.737  1.00  0.00    -0.206 C  
BRANCH   6   7
HETATM    7  C   UNL     1     -11.010  12.161  66.036  1.00  0.00    -0.293 A  
HETATM    8  C   UNL     1     -12.255  13.432  64.312  1.00  0.00    -0.392 A  
HETATM    9  S   UNL     1     -10.899  12.394  64.333  1.00  0.00    -0.367 SA 
HETATM   10  C   UNL     1     -12.058  12.894  66.565  1.00  0.00    -0.375 A  
HETATM   11  C   UNL     1     -12.777  13.623  65.571  1.00  0.00    -0.514 A  
ENDBRANCH   6   7
BRANCH   6  12
HETATM   12  O   UNL     1      -9.544  11.997  67.901  1.00  0.00    -0.183 OA 
BRANCH  12  13
HETATM   13  C   UNL     1      -8.202  11.902  68.211  1.00  0.00    -0.157 A  
HETATM   14  C   UNL     1      -6.289  10.651  69.033  1.00  0.00    -0.046 A  
HETATM   15  C   UNL     1      -7.631  10.710  68.674  1.00  0.00    -0.103 A  
HETATM   16  C   UNL     1      -5.490  11.783  68.912  1.00  0.00    -0.050 A  
HETATM   17  C   UNL     1      -6.007  12.971  68.388  1.00  0.00    -0.077 A  
HETATM   18  C   UNL     1      -5.166  14.085  68.244  1.00  0.00    -0.111 A  
HETATM   19  C   UNL     1      -5.630  15.269  67.678  1.00  0.00    -0.059 A  
HETATM   20  C   UNL     1      -6.949  15.348  67.247  1.00  0.00    -0.180 A  
HETATM   21  C   UNL     1      -7.811  14.254  67.410  1.00  0.00    -0.207 A  
HETATM   22  C   UNL     1      -7.372  13.042  67.998  1.00  0.00    -0.123 A  
ENDBRANCH  12  13
ENDBRANCH   6  12
ENDBRANCH   5   6
ENDBRANCH   4   5
ENDBRANCH   2   4
TORSDOF 6
ENDMDL
MODEL      237
REMARK 921   NORMALIZED FREE ENERGY PREDICTED BY IDOCK:   -3.28 KCAL/MOL
REMARK 922        TOTAL FREE ENERGY PREDICTED BY IDOCK:   -5.33 KCAL/MOL
REMARK 923 INTER-LIGAND FREE ENERGY PREDICTED BY IDOCK:   -4.55 KCAL/MOL
REMARK 924 INTRA-LIGAND FREE ENERGY PREDICTED BY IDOCK:   -0.78 KCAL/MOL
REMARK 927      BINDING AFFINITY PREDICTED BY RF-SCORE:    0.00 PKD
ROOT
HETATM    1  C   UNL     1     -12.345  12.901  70.437  1.00  0.00    -0.258 C  
HETATM    2  N   UNL     1     -11.102  12.586  69.736  1.00  0.00    -0.471 NA 
HETATM    3  H   UNL     1     -10.295  12.642  70.357  1.00  0.00     0.000 HD 
ENDROOT
BRANCH   2   4
HETATM    4  C   UNL     1     -11.188  11.278  69.077  1.00  0.00    -0.258 C  
BRANCH   4   5
HETATM    5  C   UNL     1     -11.352  10.105  70.058  1.00  0.00    -0.351 C  
BRANCH   5   6
HETATM    6  C   UNL     1     -10.532   8.836  69.764  1.00  0.00    -0.219 C  
BRANCH   6   7
HETATM    7  C   UNL     1     -10.621   7.818  70.887  1.00  0.00    -0.213 A  
HETATM    8  C   UNL     1     -11.409   6.030  72.409  1.00  0.00    -0.301 A  
HETATM    9  S   UNL     1     -12.032   6.842  71.042  1.00  0.00    -0.375 SA 
HETATM   10  C   UNL     1      -9.712   7.530  71.890  1.00  0.00    -0.191 A  
HETATM   11  C   UNL     1     -10.164   6.497  72.764  1.00  0.00    -0.206 A  
ENDBRANCH   6   7
BRANCH   6  12
HETATM   12  O   UNL     1     -11.057   8.183  68.577  1.00  0.00     0.137 OA 
BRANCH  12  13
HETATM   13  C   UNL     1     -10.181   7.985  67.529  1.00  0.00    -0.245 A  
HETATM   14  C   UNL     1      -8.827   8.827  65.697  1.00  0.00    -0.239 A  
HETATM   15  C   UNL     1      -9.665   9.052  66.783  1.00  0.00    -0.279 A  
HETATM   16  C   UNL     1      -8.474   7.527  65.352  1.00  0.00    -0.105 A  
HETATM   17  C   UNL     1      -8.912   6.440  66.115  1.00  0.00    -0.162 A  
HETATM   18  C   UNL     1      -8.509   5.144  65.764  1.00  0.00    -0.124 A  
HETATM   19  C   UNL     1      -8.882   4.042  66.529  1.00  0.00    -0.122 A  
HETATM   20  C   UNL     1      -9.666   4.231  67.660  1.00  0.00    -0.186 A  
HETATM   21  C   UNL     1     -10.103   5.517  68.009  1.00  0.00    -0.221 A  
HETATM   22  C   UNL     1      -9.753   6.655  67.241  1.00  0.00    -0.166 A  
ENDBRANCH  12  13
ENDBRANCH   6  12
ENDBRANCH   5   6
ENDBRANCH   4   5
ENDBRANCH   2   4
TORSDOF 6
ENDMDL
MODEL      238
REMARK 921   NORMALIZED FREE ENERGY PREDICTED BY IDOCK:   -3.27 KCAL/MOL
REMARK 922        TOTAL FREE ENERGY PREDICTED BY IDOCK:   -5.32 KCAL/MOL
REMARK 923 INTER-LIGAND FREE ENERGY PREDICTED BY IDOCK:   -4.46 KCAL/MOL
REMARK 924 INTRA-LIGAND FREE ENERGY PREDICTED BY IDOCK:   -0.85 KCAL/MOL
REMARK 927      BINDING AFFINITY PREDICTED BY RF-SCORE:    0.00 PKD
ROOT
HETATM    1  C   UNL     1     -11.874  14.826  65.281  1.00  0.00    -0.276 C  
HETATM    2  N   UNL     1     -12.130  14.018  66.472  1.00  0.00    -0.446 NA 
HETATM    3  H   UNL     1     -13.085  14.134  66.809  1.00  0.00     0.000 HD 
ENDROOT
BRANCH   2   4
HETATM    4  C   UNL     1     -11.810  12.607  66.227  1.00  0.00    -0.410 C  
BRANCH   4   5
HETATM    5  C   UNL     1     -10.305  12.335  66.073  1.00  0.00    -0.273 C  
BRANCH   5   6
HETATM    6  C   UNL     1      -9.477  12.265  67.368  1.00  0.00    -0.181 C  
BRANCH   6   7
HETATM    7  C   UNL     1      -9.294  10.841  67.862  1.00  0.00    -0.150 A  
HETATM    8  C   UNL     1      -9.521   8.721  69.122  1.00  0.00    -0.157 A  
HETATM    9  S   UNL     1     -10.256  10.261  69.167  1.00  0.00    -0.232 SA 
HETATM   10  C   UNL     1      -8.412   9.865  67.430  1.00  0.00    -0.118 A  
HETATM   11  C   UNL     1      -8.547   8.642  68.153  1.00  0.00    -0.141 A  
ENDBRANCH   6   7
BRANCH   6  12
HETATM   12  O   UNL     1      -8.144  12.787  67.122  1.00  0.00    -0.176 OA 
BRANCH  12  13
HETATM   13  C   UNL     1      -7.648  13.700  68.032  1.00  0.00    -0.139 A  
HETATM   14  C   UNL     1      -6.438  14.234  70.068  1.00  0.00    -0.126 A  
HETATM   15  C   UNL     1      -6.881  13.304  69.135  1.00  0.00    -0.067 A  
HETATM   16  C   UNL     1      -6.737  15.581  69.900  1.00  0.00    -0.112 A  
HETATM   17  C   UNL     1      -7.439  16.023  68.775  1.00  0.00    -0.176 A  
HETATM   18  C   UNL     1      -7.693  17.393  68.615  1.00  0.00    -0.273 A  
HETATM   19  C   UNL     1      -8.344  17.877  67.483  1.00  0.00    -0.228 A  
HETATM   20  C   UNL     1      -8.746  16.987  66.495  1.00  0.00    -0.297 A  
HETATM   21  C   UNL     1      -8.527  15.611  66.653  1.00  0.00    -0.323 A  
HETATM   22  C   UNL     1      -7.883  15.088  67.801  1.00  0.00    -0.161 A  
ENDBRANCH  12  13
ENDBRANCH   6  12
ENDBRANCH   5   6
ENDBRANCH   4   5
ENDBRANCH   2   4
TORSDOF 6
ENDMDL
MODEL      239
REMARK 921   NORMALIZED FREE ENERGY PREDICTED BY IDOCK:   -3.27 KCAL/MOL
REMARK 922        TOTAL FREE ENERGY PREDICTED BY IDOCK:   -5.31 KCAL/MOL
REMARK 923 INTER-LIGAND FREE ENERGY PREDICTED BY IDOCK:   -4.52 KCAL/MOL
REMARK 924 INTRA-LIGAND FREE ENERGY PREDICTED BY IDOCK:   -0.79 KCAL/MOL
REMARK 927      BINDING AFFINITY PREDICTED BY RF-SCORE:    0.00 PKD
ROOT
HETATM    1  C   UNL     1      -6.566   8.017  65.305  1.00  0.00    -0.051 C  
HETATM    2  N   UNL     1      -7.968   8.429  65.269  1.00  0.00    -0.117 NA 
HETATM    3  H   UNL     1      -8.595   7.644  65.441  1.00  0.00     0.000 HD 
ENDROOT
BRANCH   2   4
HETATM    4  C   UNL     1      -8.214   9.533  66.204  1.00  0.00    -0.115 C  
BRANCH   4   5
HETATM    5  C   UNL     1      -8.367   9.079  67.666  1.00  0.00    -0.117 C  
BRANCH   5   6
HETATM    6  C   UNL     1      -9.770   9.200  68.286  1.00  0.00    -0.154 C  
BRANCH   6   7
HETATM    7  C   UNL     1     -10.266   7.883  68.854  1.00  0.00    -0.205 A  
HETATM    8  C   UNL     1     -10.567   5.472  69.337  1.00  0.00    -0.279 A  
HETATM    9  S   UNL     1      -9.560   6.405  68.321  1.00  0.00    -0.123 SA 
HETATM   10  C   UNL     1     -11.272   7.643  69.774  1.00  0.00    -0.042 A  
HETATM   11  C   UNL     1     -11.442   6.254  70.056  1.00  0.00    -0.460 A  
ENDBRANCH   6   7
BRANCH   6  12
HETATM   12  O   UNL     1      -9.731  10.136  69.396  1.00  0.00    -0.207 OA 
BRANCH  12  13
HETATM   13  C   UNL     1     -10.262  11.392  69.179  1.00  0.00    -0.059 A  
HETATM   14  C   UNL     1     -10.330  13.495  67.966  1.00  0.00    -0.241 A  
HETATM   15  C   UNL     1      -9.820  12.212  68.133  1.00  0.00    -0.207 A  
HETATM   16  C   UNL     1     -11.308  13.970  68.832  1.00  0.00    -0.314 A  
HETATM   17  C   UNL     1     -11.825  13.155  69.844  1.00  0.00    -0.378 A  
HETATM   18  C   UNL     1     -12.838  13.651  70.678  1.00  0.00    -0.224 A  
HETATM   19  C   UNL     1     -13.414  12.852  71.663  1.00  0.00    -0.261 A  
HETATM   20  C   UNL     1     -12.978  11.543  71.821  1.00  0.00    -0.500 A  
HETATM   21  C   UNL     1     -11.945  11.041  71.015  1.00  0.00    -0.334 A  
HETATM   22  C   UNL     1     -11.329  11.834  70.016  1.00  0.00    -0.130 A  
ENDBRANCH  12  13
ENDBRANCH   6  12
ENDBRANCH   5   6
ENDBRANCH   4   5
ENDBRANCH   2   4
TORSDOF 6
ENDMDL
MODEL      240
REMARK 921   NORMALIZED FREE ENERGY PREDICTED BY IDOCK:   -3.25 KCAL/MOL
REMARK 922        TOTAL FREE ENERGY PREDICTED BY IDOCK:   -5.29 KCAL/MOL
REMARK 923 INTER-LIGAND FREE ENERGY PREDICTED BY IDOCK:   -4.76 KCAL/MOL
REMARK 924 INTRA-LIGAND FREE ENERGY PREDICTED BY IDOCK:   -0.53 KCAL/MOL
REMARK 927      BINDING AFFINITY PREDICTED BY RF-SCORE:    0.00 PKD
ROOT
HETATM    1  C   UNL     1     -10.625  19.794  65.501  1.00  0.00    -0.246 C  
HETATM    2  N   UNL     1     -10.162  18.613  66.227  1.00  0.00    -0.411 NA 
HETATM    3  H   UNL     1      -9.144  18.576  66.276  1.00  0.00     0.000 HD 
ENDROOT
BRANCH   2   4
HETATM    4  C   UNL     1     -10.769  18.546  67.561  1.00  0.00    -0.377 C  
BRANCH   4   5
HETATM    5  C   UNL     1      -9.787  18.114  68.664  1.00  0.00    -0.389 C  
BRANCH   5   6
HETATM    6  C   UNL     1      -8.514  17.380  68.209  1.00  0.00    -0.249 C  
BRANCH   6   7
HETATM    7  C   UNL     1      -7.342  18.324  68.012  1.00  0.00    -0.239 A  
HETATM    8  C   UNL     1      -5.350  19.469  67.087  1.00  0.00    -0.161 A  
HETATM    9  S   UNL     1      -6.342  18.161  66.619  1.00  0.00    -0.201 SA 
HETATM   10  C   UNL     1      -6.890  19.351  68.823  1.00  0.00    -0.354 A  
HETATM   11  C   UNL     1      -5.746  20.013  68.287  1.00  0.00    -0.255 A  
ENDBRANCH   6   7
BRANCH   6  12
HETATM   12  O   UNL     1      -8.108  16.432  69.232  1.00  0.00    -0.228 OA 
BRANCH  12  13
HETATM   13  C   UNL     1      -7.493  15.271  68.807  1.00  0.00    -0.135 A  
HETATM   14  C   UNL     1      -5.524  13.873  68.557  1.00  0.00    -0.095 A  
HETATM   15  C   UNL     1      -6.135  15.023  69.042  1.00  0.00    -0.097 A  
HETATM   16  C   UNL     1      -6.269  12.939  67.845  1.00  0.00    -0.125 A  
HETATM   17  C   UNL     1      -7.642  13.118  67.651  1.00  0.00    -0.171 A  
HETATM   18  C   UNL     1      -8.374  12.140  66.961  1.00  0.00    -0.173 A  
HETATM   19  C   UNL     1      -9.751  12.257  66.793  1.00  0.00    -0.219 A  
HETATM   20  C   UNL     1     -10.411  13.361  67.320  1.00  0.00    -0.248 A  
HETATM   21  C   UNL     1      -9.691  14.362  67.986  1.00  0.00    -0.221 A  
HETATM   22  C   UNL     1      -8.287  14.279  68.158  1.00  0.00    -0.162 A  
ENDBRANCH  12  13
ENDBRANCH   6  12
ENDBRANCH   5   6
ENDBRANCH   4   5
ENDBRANCH   2   4
TORSDOF 6
ENDMDL
MODEL      241
REMARK 921   NORMALIZED FREE ENERGY PREDICTED BY IDOCK:   -3.23 KCAL/MOL
REMARK 922        TOTAL FREE ENERGY PREDICTED BY IDOCK:   -5.26 KCAL/MOL
REMARK 923 INTER-LIGAND FREE ENERGY PREDICTED BY IDOCK:   -4.46 KCAL/MOL
REMARK 924 INTRA-LIGAND FREE ENERGY PREDICTED BY IDOCK:   -0.80 KCAL/MOL
REMARK 927      BINDING AFFINITY PREDICTED BY RF-SCORE:    0.00 PKD
ROOT
HETATM    1  C   UNL     1      -8.767   3.954  72.259  1.00  0.00    -0.105 C  
HETATM    2  N   UNL     1      -9.104   5.323  71.874  1.00  0.00    -0.137 NA 
HETATM    3  H   UNL     1      -8.757   5.548  70.941  1.00  0.00     0.000 HD 
ENDROOT
BRANCH   2   4
HETATM    4  C   UNL     1     -10.548   5.559  71.986  1.00  0.00    -0.228 C  
BRANCH   4   5
HETATM    5  C   UNL     1     -11.140   6.328  70.793  1.00  0.00    -0.377 C  
BRANCH   5   6
HETATM    6  C   UNL     1     -10.151   6.801  69.713  1.00  0.00    -0.183 C  
BRANCH   6   7
HETATM    7  C   UNL     1     -10.164   5.908  68.486  1.00  0.00    -0.192 A  
HETATM    8  C   UNL     1     -10.527   5.025  66.200  1.00  0.00    -0.286 A  
HETATM    9  S   UNL     1     -10.894   6.471  67.031  1.00  0.00    -0.371 SA 
HETATM   10  C   UNL     1      -9.677   4.622  68.326  1.00  0.00    -0.193 A  
HETATM   11  C   UNL     1      -9.882   4.116  67.008  1.00  0.00    -0.190 A  
ENDBRANCH   6   7
BRANCH   6  12
HETATM   12  O   UNL     1     -10.527   8.128  69.257  1.00  0.00    -0.220 OA 
BRANCH  12  13
HETATM   13  C   UNL     1      -9.532   9.085  69.216  1.00  0.00    -0.157 A  
HETATM   14  C   UNL     1      -7.351   9.919  69.883  1.00  0.00    -0.147 A  
HETATM   15  C   UNL     1      -8.317   8.919  69.893  1.00  0.00    -0.128 A  
HETATM   16  C   UNL     1      -7.578  11.095  69.177  1.00  0.00    -0.098 A  
HETATM   17  C   UNL     1      -8.748  11.268  68.432  1.00  0.00    -0.159 A  
HETATM   18  C   UNL     1      -8.932  12.450  67.700  1.00  0.00    -0.183 A  
HETATM   19  C   UNL     1     -10.060  12.637  66.906  1.00  0.00    -0.234 A  
HETATM   20  C   UNL     1     -11.019  11.635  66.836  1.00  0.00    -0.342 A  
HETATM   21  C   UNL     1     -10.866  10.459  67.585  1.00  0.00    -0.361 A  
HETATM   22  C   UNL     1      -9.738  10.247  68.415  1.00  0.00    -0.165 A  
ENDBRANCH  12  13
ENDBRANCH   6  12
ENDBRANCH   5   6
ENDBRANCH   4   5
ENDBRANCH   2   4
TORSDOF 6
ENDMDL
MODEL      242
REMARK 921   NORMALIZED FREE ENERGY PREDICTED BY IDOCK:   -3.21 KCAL/MOL
REMARK 922        TOTAL FREE ENERGY PREDICTED BY IDOCK:   -5.24 KCAL/MOL
REMARK 923 INTER-LIGAND FREE ENERGY PREDICTED BY IDOCK:   -4.60 KCAL/MOL
REMARK 924 INTRA-LIGAND FREE ENERGY PREDICTED BY IDOCK:   -0.63 KCAL/MOL
REMARK 927      BINDING AFFINITY PREDICTED BY RF-SCORE:    0.00 PKD
ROOT
HETATM    1  C   UNL     1      -6.561   7.640  70.556  1.00  0.00    -0.038 C  
HETATM    2  N   UNL     1      -7.735   8.063  69.794  1.00  0.00    -0.099 NA 
HETATM    3  H   UNL     1      -8.518   8.293  70.405  1.00  0.00     0.000 HD 
ENDROOT
BRANCH   2   4
HETATM    4  C   UNL     1      -7.404   9.176  68.897  1.00  0.00    -0.074 C  
BRANCH   4   5
HETATM    5  C   UNL     1      -8.512  10.238  68.799  1.00  0.00    -0.130 C  
BRANCH   5   6
HETATM    6  C   UNL     1      -9.387  10.212  67.534  1.00  0.00    -0.151 C  
BRANCH   6   7
HETATM    7  C   UNL     1      -8.736   9.446  66.396  1.00  0.00    -0.135 A  
HETATM    8  C   UNL     1      -7.314   8.823  64.466  1.00  0.00    -0.102 A  
HETATM    9  S   UNL     1      -7.532  10.214  65.432  1.00  0.00    -0.146 SA 
HETATM   10  C   UNL     1      -8.972   8.157  65.952  1.00  0.00    -0.195 A  
HETATM   11  C   UNL     1      -8.150   7.796  64.843  1.00  0.00    -0.136 A  
ENDBRANCH   6   7
BRANCH   6  12
HETATM   12  O   UNL     1     -10.638   9.531  67.822  1.00  0.00    -0.243 OA 
BRANCH  12  13
HETATM   13  C   UNL     1     -11.256   9.831  69.019  1.00  0.00    -0.038 A  
HETATM   14  C   UNL     1     -12.369  11.394  70.508  1.00  0.00    -0.439 A  
HETATM   15  C   UNL     1     -11.799  11.096  69.275  1.00  0.00    -0.422 A  
HETATM   16  C   UNL     1     -12.424  10.420  71.499  1.00  0.00    -0.508 A  
HETATM   17  C   UNL     1     -11.956   9.125  71.256  1.00  0.00    -0.394 A  
HETATM   18  C   UNL     1     -12.059   8.154  72.264  1.00  0.00    -0.419 A  
HETATM   19  C   UNL     1     -11.652   6.841  72.043  1.00  0.00    -0.327 A  
HETATM   20  C   UNL     1     -11.136   6.487  70.802  1.00  0.00    -0.354 A  
HETATM   21  C   UNL     1     -10.999   7.452  69.793  1.00  0.00    -0.215 A  
HETATM   22  C   UNL     1     -11.388   8.799  69.995  1.00  0.00    -0.040 A  
ENDBRANCH  12  13
ENDBRANCH   6  12
ENDBRANCH   5   6
ENDBRANCH   4   5
ENDBRANCH   2   4
TORSDOF 6
ENDMDL
MODEL      243
REMARK 921   NORMALIZED FREE ENERGY PREDICTED BY IDOCK:   -3.21 KCAL/MOL
REMARK 922        TOTAL FREE ENERGY PREDICTED BY IDOCK:   -5.23 KCAL/MOL
REMARK 923 INTER-LIGAND FREE ENERGY PREDICTED BY IDOCK:   -4.66 KCAL/MOL
REMARK 924 INTRA-LIGAND FREE ENERGY PREDICTED BY IDOCK:   -0.58 KCAL/MOL
REMARK 927      BINDING AFFINITY PREDICTED BY RF-SCORE:    0.00 PKD
ROOT
HETATM    1  C   UNL     1     -10.404  16.300  65.652  1.00  0.00    -0.363 C  
HETATM    2  N   UNL     1     -10.658  16.140  67.083  1.00  0.00    -0.306 NA 
HETATM    3  H   UNL     1     -11.656  16.130  67.289  1.00  0.00     0.000 HD 
ENDROOT
BRANCH   2   4
HETATM    4  C   UNL     1      -9.986  14.943  67.603  1.00  0.00    -0.226 C  
BRANCH   4   5
HETATM    5  C   UNL     1     -10.952  13.798  67.951  1.00  0.00    -0.270 C  
BRANCH   5   6
HETATM    6  C   UNL     1     -10.787  12.489  67.160  1.00  0.00    -0.250 C  
BRANCH   6   7
HETATM    7  C   UNL     1     -11.440  12.553  65.792  1.00  0.00    -0.365 A  
HETATM    8  C   UNL     1     -11.814  12.720  63.349  1.00  0.00    -0.518 A  
HETATM    9  S   UNL     1     -10.459  12.736  64.388  1.00  0.00    -0.384 SA 
HETATM   10  C   UNL     1     -12.781  12.510  65.452  1.00  0.00     0.045 A  
HETATM   11  C   UNL     1     -12.996  12.601  64.044  1.00  0.00    -0.136 A  
ENDBRANCH   6   7
BRANCH   6  12
HETATM   12  O   UNL     1      -9.375  12.236  66.928  1.00  0.00    -0.197 OA 
BRANCH  12  13
HETATM   13  C   UNL     1      -8.743  11.360  67.788  1.00  0.00    -0.136 A  
HETATM   14  C   UNL     1      -7.153  10.895  69.564  1.00  0.00    -0.123 A  
HETATM   15  C   UNL     1      -7.819  11.799  68.745  1.00  0.00    -0.076 A  
HETATM   16  C   UNL     1      -7.418   9.535  69.453  1.00  0.00    -0.088 A  
HETATM   17  C   UNL     1      -8.385   9.064  68.559  1.00  0.00    -0.124 A  
HETATM   18  C   UNL     1      -8.656   7.689  68.497  1.00  0.00    -0.129 A  
HETATM   19  C   UNL     1      -9.647   7.189  67.658  1.00  0.00    -0.152 A  
HETATM   20  C   UNL     1     -10.381   8.067  66.869  1.00  0.00    -0.408 A  
HETATM   21  C   UNL     1     -10.102   9.441  66.897  1.00  0.00    -0.314 A  
HETATM   22  C   UNL     1      -9.089   9.978  67.728  1.00  0.00    -0.137 A  
ENDBRANCH  12  13
ENDBRANCH   6  12
ENDBRANCH   5   6
ENDBRANCH   4   5
ENDBRANCH   2   4
TORSDOF 6
ENDMDL
MODEL      244
REMARK 921   NORMALIZED FREE ENERGY PREDICTED BY IDOCK:   -3.20 KCAL/MOL
REMARK 922        TOTAL FREE ENERGY PREDICTED BY IDOCK:   -5.21 KCAL/MOL
REMARK 923 INTER-LIGAND FREE ENERGY PREDICTED BY IDOCK:   -4.42 KCAL/MOL
REMARK 924 INTRA-LIGAND FREE ENERGY PREDICTED BY IDOCK:   -0.80 KCAL/MOL
REMARK 927      BINDING AFFINITY PREDICTED BY RF-SCORE:    0.00 PKD
ROOT
HETATM    1  C   UNL     1      -9.411   5.482  65.930  1.00  0.00    -0.096 C  
HETATM    2  N   UNL     1     -10.572   6.066  66.599  1.00  0.00    -0.423 NA 
HETATM    3  H   UNL     1     -11.305   5.374  66.756  1.00  0.00     0.000 HD 
ENDROOT
BRANCH   2   4
HETATM    4  C   UNL     1     -10.179   6.730  67.848  1.00  0.00    -0.171 C  
BRANCH   4   5
HETATM    5  C   UNL     1      -8.968   7.665  67.692  1.00  0.00    -0.127 C  
BRANCH   5   6
HETATM    6  C   UNL     1      -9.021   9.000  68.455  1.00  0.00    -0.133 C  
BRANCH   6   7
HETATM    7  C   UNL     1      -8.387   8.905  69.831  1.00  0.00    -0.128 A  
HETATM    8  C   UNL     1      -8.026   8.548  72.256  1.00  0.00    -0.074 A  
HETATM    9  S   UNL     1      -9.346   8.426  71.179  1.00  0.00    -0.194 SA 
HETATM   10  C   UNL     1      -7.088   9.175  70.224  1.00  0.00    -0.063 A  
HETATM   11  C   UNL     1      -6.879   8.965  71.620  1.00  0.00    -0.065 A  
ENDBRANCH   6   7
BRANCH   6  12
HETATM   12  O   UNL     1      -8.267  10.006  67.726  1.00  0.00    -0.113 OA 
BRANCH  12  13
HETATM   13  C   UNL     1      -8.927  11.175  67.403  1.00  0.00    -0.139 A  
HETATM   14  C   UNL     1      -9.743  13.388  67.978  1.00  0.00    -0.222 A  
HETATM   15  C   UNL     1      -9.028  12.242  68.304  1.00  0.00    -0.182 A  
HETATM   16  C   UNL     1     -10.353  13.493  66.733  1.00  0.00    -0.264 A  
HETATM   17  C   UNL     1     -10.216  12.479  65.781  1.00  0.00    -0.289 A  
HETATM   18  C   UNL     1     -10.813  12.630  64.520  1.00  0.00    -0.365 A  
HETATM   19  C   UNL     1     -10.655  11.666  63.529  1.00  0.00    -0.496 A  
HETATM   20  C   UNL     1      -9.892  10.535  63.792  1.00  0.00    -0.363 A  
HETATM   21  C   UNL     1      -9.314  10.353  65.057  1.00  0.00    -0.279 A  
HETATM   22  C   UNL     1      -9.471  11.309  66.091  1.00  0.00    -0.232 A  
ENDBRANCH  12  13
ENDBRANCH   6  12
ENDBRANCH   5   6
ENDBRANCH   4   5
ENDBRANCH   2   4
TORSDOF 6
ENDMDL
MODEL      245
REMARK 921   NORMALIZED FREE ENERGY PREDICTED BY IDOCK:   -3.19 KCAL/MOL
REMARK 922        TOTAL FREE ENERGY PREDICTED BY IDOCK:   -5.20 KCAL/MOL
REMARK 923 INTER-LIGAND FREE ENERGY PREDICTED BY IDOCK:   -4.61 KCAL/MOL
REMARK 924 INTRA-LIGAND FREE ENERGY PREDICTED BY IDOCK:   -0.59 KCAL/MOL
REMARK 927      BINDING AFFINITY PREDICTED BY RF-SCORE:    0.00 PKD
ROOT
HETATM    1  C   UNL     1     -12.406  13.163  70.593  1.00  0.00    -0.326 C  
HETATM    2  N   UNL     1     -11.236  12.870  69.767  1.00  0.00    -0.489 NA 
HETATM    3  H   UNL     1     -10.391  12.779  70.330  1.00  0.00     0.000 HD 
ENDROOT
BRANCH   2   4
HETATM    4  C   UNL     1     -11.464  11.681  68.938  1.00  0.00    -0.287 C  
BRANCH   4   5
HETATM    5  C   UNL     1     -11.921  10.450  69.739  1.00  0.00    -0.242 C  
BRANCH   5   6
HETATM    6  C   UNL     1     -10.934   9.274  69.826  1.00  0.00    -0.196 C  
BRANCH   6   7
HETATM    7  C   UNL     1     -10.126   9.101  68.553  1.00  0.00    -0.191 A  
HETATM    8  C   UNL     1      -8.374   9.292  66.812  1.00  0.00    -0.123 A  
HETATM    9  S   UNL     1      -8.654   9.974  68.353  1.00  0.00    -0.115 SA 
HETATM   10  C   UNL     1     -10.394   8.328  67.437  1.00  0.00    -0.350 A  
HETATM   11  C   UNL     1      -9.382   8.435  66.436  1.00  0.00    -0.274 A  
ENDBRANCH   6   7
BRANCH   6  12
HETATM   12  O   UNL     1      -9.974   9.523  70.889  1.00  0.00    -0.284 OA 
BRANCH  12  13
HETATM   13  C   UNL     1      -9.917   8.600  71.914  1.00  0.00    -0.322 A  
HETATM   14  C   UNL     1     -10.970   7.323  73.691  1.00  0.00    -0.011 A  
HETATM   15  C   UNL     1     -11.059   8.213  72.627  1.00  0.00    -0.450 A  
HETATM   16  C   UNL     1      -9.736   6.789  74.046  1.00  0.00    -0.308 A  
HETATM   17  C   UNL     1      -8.586   7.096  73.314  1.00  0.00    -0.157 A  
HETATM   18  C   UNL     1      -7.362   6.512  73.674  1.00  0.00    -0.084 A  
HETATM   19  C   UNL     1      -6.205   6.753  72.938  1.00  0.00    -0.057 A  
HETATM   20  C   UNL     1      -6.265   7.585  71.828  1.00  0.00    -0.039 A  
HETATM   21  C   UNL     1      -7.473   8.202  71.471  1.00  0.00    -0.086 A  
HETATM   22  C   UNL     1      -8.663   7.989  72.210  1.00  0.00    -0.220 A  
ENDBRANCH  12  13
ENDBRANCH   6  12
ENDBRANCH   5   6
ENDBRANCH   4   5
ENDBRANCH   2   4
TORSDOF 6
ENDMDL
MODEL      246
REMARK 921   NORMALIZED FREE ENERGY PREDICTED BY IDOCK:   -3.15 KCAL/MOL
REMARK 922        TOTAL FREE ENERGY PREDICTED BY IDOCK:   -5.15 KCAL/MOL
REMARK 923 INTER-LIGAND FREE ENERGY PREDICTED BY IDOCK:   -5.01 KCAL/MOL
REMARK 924 INTRA-LIGAND FREE ENERGY PREDICTED BY IDOCK:   -0.14 KCAL/MOL
REMARK 927      BINDING AFFINITY PREDICTED BY RF-SCORE:    0.00 PKD
ROOT
HETATM    1  C   UNL     1      -9.541  10.233  64.156  1.00  0.00    -0.315 C  
HETATM    2  N   UNL     1      -8.500   9.346  64.671  1.00  0.00    -0.156 NA 
HETATM    3  H   UNL     1      -7.997   8.878  63.917  1.00  0.00     0.000 HD 
ENDROOT
BRANCH   2   4
HETATM    4  C   UNL     1      -7.587  10.070  65.562  1.00  0.00    -0.136 C  
BRANCH   4   5
HETATM    5  C   UNL     1      -8.267  11.200  66.353  1.00  0.00    -0.164 C  
BRANCH   5   6
HETATM    6  C   UNL     1      -9.064  10.789  67.603  1.00  0.00    -0.147 C  
BRANCH   6   7
HETATM    7  C   UNL     1      -8.164  10.426  68.769  1.00  0.00    -0.128 A  
HETATM    8  C   UNL     1      -6.295  10.370  70.394  1.00  0.00    -0.127 A  
HETATM    9  S   UNL     1      -6.689  11.284  69.007  1.00  0.00    -0.099 SA 
HETATM   10  C   UNL     1      -8.320   9.442  69.730  1.00  0.00    -0.161 A  
HETATM   11  C   UNL     1      -7.245   9.413  70.669  1.00  0.00    -0.134 A  
ENDBRANCH   6   7
BRANCH   6  12
HETATM   12  O   UNL     1      -9.880  11.906  68.048  1.00  0.00    -0.178 OA 
BRANCH  12  13
HETATM   13  C   UNL     1      -9.785  13.081  67.329  1.00  0.00    -0.225 A  
HETATM   14  C   UNL     1      -8.709  15.205  66.850  1.00  0.00    -0.289 A  
HETATM   15  C   UNL     1      -8.754  14.003  67.548  1.00  0.00    -0.201 A  
HETATM   16  C   UNL     1      -9.686  15.493  65.904  1.00  0.00    -0.392 A  
HETATM   17  C   UNL     1     -10.691  14.568  65.607  1.00  0.00    -0.335 A  
HETATM   18  C   UNL     1     -11.641  14.873  64.621  1.00  0.00    -0.395 A  
HETATM   19  C   UNL     1     -12.625  13.956  64.261  1.00  0.00    -0.181 A  
HETATM   20  C   UNL     1     -12.665  12.717  64.889  1.00  0.00    -0.479 A  
HETATM   21  C   UNL     1     -11.741  12.407  65.898  1.00  0.00    -0.476 A  
HETATM   22  C   UNL     1     -10.740  13.326  66.297  1.00  0.00    -0.293 A  
ENDBRANCH  12  13
ENDBRANCH   6  12
ENDBRANCH   5   6
ENDBRANCH   4   5
ENDBRANCH   2   4
TORSDOF 6
ENDMDL
MODEL      247
REMARK 921   NORMALIZED FREE ENERGY PREDICTED BY IDOCK:   -3.15 KCAL/MOL
REMARK 922        TOTAL FREE ENERGY PREDICTED BY IDOCK:   -5.15 KCAL/MOL
REMARK 923 INTER-LIGAND FREE ENERGY PREDICTED BY IDOCK:   -4.57 KCAL/MOL
REMARK 924 INTRA-LIGAND FREE ENERGY PREDICTED BY IDOCK:   -0.58 KCAL/MOL
REMARK 927      BINDING AFFINITY PREDICTED BY RF-SCORE:    0.00 PKD
ROOT
HETATM    1  C   UNL     1      -5.415   9.376  67.425  1.00  0.00    -0.037 C  
HETATM    2  N   UNL     1      -6.181   8.131  67.374  1.00  0.00    -0.054 NA 
HETATM    3  H   UNL     1      -6.005   7.616  66.511  1.00  0.00     0.000 HD 
ENDROOT
BRANCH   2   4
HETATM    4  C   UNL     1      -5.922   7.307  68.559  1.00  0.00    -0.027 C  
BRANCH   4   5
HETATM    5  C   UNL     1      -6.498   7.898  69.857  1.00  0.00    -0.037 C  
BRANCH   5   6
HETATM    6  C   UNL     1      -8.027   7.859  70.018  1.00  0.00    -0.111 C  
BRANCH   6   7
HETATM    7  C   UNL     1      -8.553   6.448  70.207  1.00  0.00    -0.135 A  
HETATM    8  C   UNL     1      -9.814   4.333  69.943  1.00  0.00    -0.197 A  
HETATM    9  S   UNL     1      -9.773   5.845  69.151  1.00  0.00    -0.147 SA 
HETATM   10  C   UNL     1      -8.217   5.502  71.160  1.00  0.00    -0.120 A  
HETATM   11  C   UNL     1      -8.940   4.282  71.004  1.00  0.00    -0.167 A  
ENDBRANCH   6   7
BRANCH   6  12
HETATM   12  O   UNL     1      -8.410   8.601  71.208  1.00  0.00    -0.139 OA 
BRANCH  12  13
HETATM   13  C   UNL     1      -9.757   8.843  71.393  1.00  0.00    -0.300 A  
HETATM   14  C   UNL     1     -11.852   8.442  72.552  1.00  0.00    -0.427 A  
HETATM   15  C   UNL     1     -10.485   8.226  72.418  1.00  0.00    -0.404 A  
HETATM   16  C   UNL     1     -12.509   9.296  71.674  1.00  0.00    -0.448 A  
HETATM   17  C   UNL     1     -11.803   9.984  70.682  1.00  0.00    -0.411 A  
HETATM   18  C   UNL     1     -12.487  10.868  69.835  1.00  0.00    -0.292 A  
HETATM   19  C   UNL     1     -11.810  11.609  68.871  1.00  0.00    -0.392 A  
HETATM   20  C   UNL     1     -10.434  11.472  68.747  1.00  0.00    -0.227 A  
HETATM   21  C   UNL     1      -9.738  10.571  69.566  1.00  0.00    -0.147 A  
HETATM   22  C   UNL     1     -10.401   9.790  70.544  1.00  0.00    -0.348 A  
ENDBRANCH  12  13
ENDBRANCH   6  12
ENDBRANCH   5   6
ENDBRANCH   4   5
ENDBRANCH   2   4
TORSDOF 6
ENDMDL
MODEL      248
REMARK 921   NORMALIZED FREE ENERGY PREDICTED BY IDOCK:   -3.14 KCAL/MOL
REMARK 922        TOTAL FREE ENERGY PREDICTED BY IDOCK:   -5.15 KCAL/MOL
REMARK 923 INTER-LIGAND FREE ENERGY PREDICTED BY IDOCK:   -4.06 KCAL/MOL
REMARK 924 INTRA-LIGAND FREE ENERGY PREDICTED BY IDOCK:   -1.09 KCAL/MOL
REMARK 927      BINDING AFFINITY PREDICTED BY RF-SCORE:    0.00 PKD
ROOT
HETATM    1  C   UNL     1      -8.250   6.312  64.956  1.00  0.00    -0.132 C  
HETATM    2  N   UNL     1      -8.983   5.070  64.715  1.00  0.00    -0.260 NA 
HETATM    3  H   UNL     1      -8.355   4.270  64.645  1.00  0.00     0.000 HD 
ENDROOT
BRANCH   2   4
HETATM    4  C   UNL     1     -10.012   4.862  65.740  1.00  0.00    -0.170 C  
BRANCH   4   5
HETATM    5  C   UNL     1     -10.176   6.054  66.699  1.00  0.00    -0.246 C  
BRANCH   5   6
HETATM    6  C   UNL     1     -10.039   5.758  68.202  1.00  0.00    -0.165 C  
BRANCH   6   7
HETATM    7  C   UNL     1      -8.797   4.946  68.521  1.00  0.00    -0.102 A  
HETATM    8  C   UNL     1      -7.268   3.121  69.203  1.00  0.00    -0.048 A  
HETATM    9  S   UNL     1      -8.959   3.329  69.091  1.00  0.00    -0.134 SA 
HETATM   10  C   UNL     1      -7.464   5.311  68.450  1.00  0.00    -0.075 A  
HETATM   11  C   UNL     1      -6.583   4.257  68.839  1.00  0.00    -0.045 A  
ENDBRANCH   6   7
BRANCH   6  12
HETATM   12  O   UNL     1      -9.911   7.007  68.933  1.00  0.00    -0.154 OA 
BRANCH  12  13
HETATM   13  C   UNL     1     -10.445   7.048  70.206  1.00  0.00    -0.208 A  
HETATM   14  C   UNL     1     -12.304   6.779  71.745  1.00  0.00    -0.400 A  
HETATM   15  C   UNL     1     -11.771   6.678  70.465  1.00  0.00    -0.453 A  
HETATM   16  C   UNL     1     -11.511   7.233  72.793  1.00  0.00    -0.273 A  
HETATM   17  C   UNL     1     -10.163   7.545  72.587  1.00  0.00    -0.297 A  
HETATM   18  C   UNL     1      -9.379   7.965  73.671  1.00  0.00    -0.288 A  
HETATM   19  C   UNL     1      -8.022   8.234  73.516  1.00  0.00    -0.222 A  
HETATM   20  C   UNL     1      -7.435   8.083  72.266  1.00  0.00    -0.117 A  
HETATM   21  C   UNL     1      -8.211   7.692  71.165  1.00  0.00    -0.100 A  
HETATM   22  C   UNL     1      -9.597   7.428  71.288  1.00  0.00    -0.166 A  
ENDBRANCH  12  13
ENDBRANCH   6  12
ENDBRANCH   5   6
ENDBRANCH   4   5
ENDBRANCH   2   4
TORSDOF 6
ENDMDL
MODEL      249
REMARK 921   NORMALIZED FREE ENERGY PREDICTED BY IDOCK:   -3.13 KCAL/MOL
REMARK 922        TOTAL FREE ENERGY PREDICTED BY IDOCK:   -5.13 KCAL/MOL
REMARK 923 INTER-LIGAND FREE ENERGY PREDICTED BY IDOCK:   -5.42 KCAL/MOL
REMARK 924 INTRA-LIGAND FREE ENERGY PREDICTED BY IDOCK:    0.30 KCAL/MOL
REMARK 927      BINDING AFFINITY PREDICTED BY RF-SCORE:    0.00 PKD
ROOT
HETATM    1  C   UNL     1      -8.744   9.223  65.242  1.00  0.00    -0.184 C  
HETATM    2  N   UNL     1      -9.056   7.908  65.801  1.00  0.00    -0.370 NA 
HETATM    3  H   UNL     1      -8.276   7.534  66.341  1.00  0.00     0.000 HD 
ENDROOT
BRANCH   2   4
HETATM    4  C   UNL     1     -10.289   7.955  66.594  1.00  0.00    -0.200 C  
BRANCH   4   5
HETATM    5  C   UNL     1     -10.289   6.989  67.791  1.00  0.00    -0.255 C  
BRANCH   5   6
HETATM    6  C   UNL     1      -9.721   7.526  69.115  1.00  0.00    -0.166 C  
BRANCH   6   7
HETATM    7  C   UNL     1      -8.566   6.688  69.632  1.00  0.00    -0.133 A  
HETATM    8  C   UNL     1      -6.567   5.231  69.764  1.00  0.00    -0.042 A  
HETATM    9  S   UNL     1      -7.517   5.903  68.514  1.00  0.00    -0.087 SA 
HETATM   10  C   UNL     1      -8.194   6.406  70.935  1.00  0.00    -0.125 A  
HETATM   11  C   UNL     1      -7.040   5.571  71.011  1.00  0.00    -0.069 A  
ENDBRANCH   6   7
BRANCH   6  12
HETATM   12  O   UNL     1      -9.195   8.865  68.911  1.00  0.00    -0.140 OA 
BRANCH  12  13
HETATM   13  C   UNL     1     -10.060   9.920  69.124  1.00  0.00    -0.200 A  
HETATM   14  C   UNL     1     -10.855  12.158  68.616  1.00  0.00    -0.268 A  
HETATM   15  C   UNL     1     -10.012  11.086  68.349  1.00  0.00    -0.194 A  
HETATM   16  C   UNL     1     -11.778  12.072  69.653  1.00  0.00    -0.405 A  
HETATM   17  C   UNL     1     -11.904  10.899  70.404  1.00  0.00    -0.449 A  
HETATM   18  C   UNL     1     -12.869  10.830  71.419  1.00  0.00    -0.557 A  
HETATM   19  C   UNL     1     -13.060   9.662  72.152  1.00  0.00    -0.520 A  
HETATM   20  C   UNL     1     -12.281   8.546  71.873  1.00  0.00    -0.411 A  
HETATM   21  C   UNL     1     -11.290   8.607  70.881  1.00  0.00    -0.314 A  
HETATM   22  C   UNL     1     -11.062   9.786  70.130  1.00  0.00    -0.335 A  
ENDBRANCH  12  13
ENDBRANCH   6  12
ENDBRANCH   5   6
ENDBRANCH   4   5
ENDBRANCH   2   4
TORSDOF 6
ENDMDL
MODEL      250
REMARK 921   NORMALIZED FREE ENERGY PREDICTED BY IDOCK:   -3.11 KCAL/MOL
REMARK 922        TOTAL FREE ENERGY PREDICTED BY IDOCK:   -5.10 KCAL/MOL
REMARK 923 INTER-LIGAND FREE ENERGY PREDICTED BY IDOCK:   -4.63 KCAL/MOL
REMARK 924 INTRA-LIGAND FREE ENERGY PREDICTED BY IDOCK:   -0.46 KCAL/MOL
REMARK 927      BINDING AFFINITY PREDICTED BY RF-SCORE:    0.00 PKD
ROOT
HETATM    1  C   UNL     1      -9.667   5.351  65.813  1.00  0.00    -0.016 C  
HETATM    2  N   UNL     1     -11.073   5.227  66.196  1.00  0.00    -0.761 NA 
HETATM    3  H   UNL     1     -11.291   4.289  66.532  1.00  0.00     0.000 HD 
ENDROOT
BRANCH   2   4
HETATM    4  C   UNL     1     -11.441   6.254  67.177  1.00  0.00     0.320 C  
BRANCH   4   5
HETATM    5  C   UNL     1     -10.276   6.683  68.085  1.00  0.00    -0.193 C  
BRANCH   5   6
HETATM    6  C   UNL     1     -10.465   7.982  68.887  1.00  0.00    -0.191 C  
BRANCH   6   7
HETATM    7  C   UNL     1     -10.602   7.727  70.377  1.00  0.00    -0.227 A  
HETATM    8  C   UNL     1     -11.282   7.871  72.755  1.00  0.00    -0.405 A  
HETATM    9  S   UNL     1     -11.645   8.722  71.319  1.00  0.00    -0.309 SA 
HETATM   10  C   UNL     1      -9.975   6.782  71.171  1.00  0.00    -0.194 A  
HETATM   11  C   UNL     1     -10.371   6.862  72.540  1.00  0.00    -0.220 A  
ENDBRANCH   6   7
BRANCH   6  12
HETATM   12  O   UNL     1      -9.296   8.829  68.723  1.00  0.00    -0.141 OA 
BRANCH  12  13
HETATM   13  C   UNL     1      -9.115   9.420  67.488  1.00  0.00    -0.124 A  
HETATM   14  C   UNL     1      -8.075   9.494  65.295  1.00  0.00    -0.124 A  
HETATM   15  C   UNL     1      -8.285   8.855  66.511  1.00  0.00    -0.114 A  
HETATM   16  C   UNL     1      -8.709  10.702  65.028  1.00  0.00    -0.186 A  
HETATM   17  C   UNL     1      -9.599  11.262  65.950  1.00  0.00    -0.249 A  
HETATM   18  C   UNL     1     -10.253  12.463  65.636  1.00  0.00    -0.285 A  
HETATM   19  C   UNL     1     -11.184  13.024  66.506  1.00  0.00    -0.335 A  
HETATM   20  C   UNL     1     -11.472  12.381  67.703  1.00  0.00    -0.399 A  
HETATM   21  C   UNL     1     -10.806  11.196  68.047  1.00  0.00    -0.274 A  
HETATM   22  C   UNL     1      -9.841  10.611  67.190  1.00  0.00    -0.208 A  
ENDBRANCH  12  13
ENDBRANCH   6  12
ENDBRANCH   5   6
ENDBRANCH   4   5
ENDBRANCH   2   4
TORSDOF 6
ENDMDL
MODEL      251
REMARK 921   NORMALIZED FREE ENERGY PREDICTED BY IDOCK:   -3.09 KCAL/MOL
REMARK 922        TOTAL FREE ENERGY PREDICTED BY IDOCK:   -5.08 KCAL/MOL
REMARK 923 INTER-LIGAND FREE ENERGY PREDICTED BY IDOCK:   -4.25 KCAL/MOL
REMARK 924 INTRA-LIGAND FREE ENERGY PREDICTED BY IDOCK:   -0.82 KCAL/MOL
REMARK 927      BINDING AFFINITY PREDICTED BY RF-SCORE:    0.00 PKD
ROOT
HETATM    1  C   UNL     1     -11.392   5.490  72.499  1.00  0.00    -0.265 C  
HETATM    2  N   UNL     1     -12.196   6.707  72.395  1.00  0.00    -0.520 NA 
HETATM    3  H   UNL     1     -12.243   7.204  73.284  1.00  0.00     0.000 HD 
ENDROOT
BRANCH   2   4
HETATM    4  C   UNL     1     -11.702   7.570  71.316  1.00  0.00    -0.287 C  
BRANCH   4   5
HETATM    5  C   UNL     1     -10.891   8.777  71.817  1.00  0.00    -0.416 C  
BRANCH   5   6
HETATM    6  C   UNL     1      -9.380   8.767  71.526  1.00  0.00    -0.267 C  
BRANCH   6   7
HETATM    7  C   UNL     1      -8.663   7.628  72.229  1.00  0.00    -0.124 A  
HETATM    8  C   UNL     1      -7.790   6.086  73.960  1.00  0.00    -0.101 A  
HETATM    9  S   UNL     1      -8.767   7.486  73.943  1.00  0.00    -0.252 SA 
HETATM   10  C   UNL     1      -7.867   6.627  71.701  1.00  0.00    -0.102 A  
HETATM   11  C   UNL     1      -7.368   5.736  72.697  1.00  0.00    -0.095 A  
ENDBRANCH   6   7
BRANCH   6  12
HETATM   12  O   UNL     1      -9.162   8.570  70.103  1.00  0.00    -0.151 OA 
BRANCH  12  13
HETATM   13  C   UNL     1      -8.514   9.581  69.420  1.00  0.00    -0.146 A  
HETATM   14  C   UNL     1      -6.807  11.302  69.281  1.00  0.00    -0.116 A  
HETATM   15  C   UNL     1      -7.411  10.251  69.962  1.00  0.00    -0.157 A  
HETATM   16  C   UNL     1      -7.287  11.686  68.034  1.00  0.00    -0.089 A  
HETATM   17  C   UNL     1      -8.342  10.995  67.429  1.00  0.00    -0.126 A  
HETATM   18  C   UNL     1      -8.779  11.382  66.154  1.00  0.00    -0.153 A  
HETATM   19  C   UNL     1      -9.791  10.686  65.498  1.00  0.00    -0.316 A  
HETATM   20  C   UNL     1     -10.376   9.589  66.117  1.00  0.00    -0.188 A  
HETATM   21  C   UNL     1      -9.971   9.206  67.405  1.00  0.00    -0.262 A  
HETATM   22  C   UNL     1      -8.957   9.905  68.103  1.00  0.00    -0.118 A  
ENDBRANCH  12  13
ENDBRANCH   6  12
ENDBRANCH   5   6
ENDBRANCH   4   5
ENDBRANCH   2   4
TORSDOF 6
ENDMDL
MODEL      252
REMARK 921   NORMALIZED FREE ENERGY PREDICTED BY IDOCK:   -3.09 KCAL/MOL
REMARK 922        TOTAL FREE ENERGY PREDICTED BY IDOCK:   -5.07 KCAL/MOL
REMARK 923 INTER-LIGAND FREE ENERGY PREDICTED BY IDOCK:   -4.44 KCAL/MOL
REMARK 924 INTRA-LIGAND FREE ENERGY PREDICTED BY IDOCK:   -0.64 KCAL/MOL
REMARK 927      BINDING AFFINITY PREDICTED BY RF-SCORE:    0.00 PKD
ROOT
HETATM    1  C   UNL     1      -6.895   7.864  72.104  1.00  0.00    -0.065 C  
HETATM    2  N   UNL     1      -7.696   9.028  71.729  1.00  0.00    -0.343 NA 
HETATM    3  H   UNL     1      -7.407   9.864  72.238  1.00  0.00     0.000 HD 
ENDROOT
BRANCH   2   4
HETATM    4  C   UNL     1      -7.664   9.241  70.278  1.00  0.00    -0.129 C  
BRANCH   4   5
HETATM    5  C   UNL     1      -9.000   9.737  69.699  1.00  0.00    -0.229 C  
BRANCH   5   6
HETATM    6  C   UNL     1      -8.942  10.459  68.342  1.00  0.00    -0.137 C  
BRANCH   6   7
HETATM    7  C   UNL     1      -8.011   9.772  67.360  1.00  0.00    -0.102 A  
HETATM    8  C   UNL     1      -6.991   8.127  65.815  1.00  0.00    -0.064 A  
HETATM    9  S   UNL     1      -8.389   8.190  66.793  1.00  0.00    -0.117 SA 
HETATM   10  C   UNL     1      -6.817  10.216  66.819  1.00  0.00    -0.086 A  
HETATM   11  C   UNL     1      -6.232   9.270  65.925  1.00  0.00    -0.056 A  
ENDBRANCH   6   7
BRANCH   6  12
HETATM   12  O   UNL     1     -10.261  10.451  67.731  1.00  0.00    -0.176 OA 
BRANCH  12  13
HETATM   13  C   UNL     1     -10.701  11.632  67.168  1.00  0.00    -0.247 A  
HETATM   14  C   UNL     1     -11.030  13.084  65.249  1.00  0.00    -0.307 A  
HETATM   15  C   UNL     1     -10.631  11.866  65.789  1.00  0.00    -0.309 A  
HETATM   16  C   UNL     1     -11.525  14.082  66.081  1.00  0.00    -0.350 A  
HETATM   17  C   UNL     1     -11.675  13.860  67.453  1.00  0.00    -0.422 A  
HETATM   18  C   UNL     1     -12.213  14.873  68.261  1.00  0.00    -0.015 A  
HETATM   19  C   UNL     1     -12.426  14.671  69.622  1.00  0.00    -0.197 A  
HETATM   20  C   UNL     1     -12.102  13.445  70.189  1.00  0.00    -0.415 A  
HETATM   21  C   UNL     1     -11.535  12.431  69.402  1.00  0.00    -0.336 A  
HETATM   22  C   UNL     1     -11.291  12.613  68.018  1.00  0.00    -0.337 A  
ENDBRANCH  12  13
ENDBRANCH   6  12
ENDBRANCH   5   6
ENDBRANCH   4   5
ENDBRANCH   2   4
TORSDOF 6
ENDMDL
MODEL      253
REMARK 921   NORMALIZED FREE ENERGY PREDICTED BY IDOCK:   -3.09 KCAL/MOL
REMARK 922        TOTAL FREE ENERGY PREDICTED BY IDOCK:   -5.07 KCAL/MOL
REMARK 923 INTER-LIGAND FREE ENERGY PREDICTED BY IDOCK:   -5.75 KCAL/MOL
REMARK 924 INTRA-LIGAND FREE ENERGY PREDICTED BY IDOCK:    0.68 KCAL/MOL
REMARK 927      BINDING AFFINITY PREDICTED BY RF-SCORE:    0.00 PKD
ROOT
HETATM    1  C   UNL     1     -12.274  12.885  63.287  1.00  0.00    -0.397 C  
HETATM    2  N   UNL     1     -12.597  14.198  63.842  1.00  0.00    -0.840 NA 
HETATM    3  H   UNL     1     -13.567  14.456  63.661  1.00  0.00     0.000 HD 
ENDROOT
BRANCH   2   4
HETATM    4  C   UNL     1     -12.279  14.255  65.274  1.00  0.00    -0.414 C  
BRANCH   4   5
HETATM    5  C   UNL     1     -11.079  13.381  65.673  1.00  0.00    -0.298 C  
BRANCH   5   6
HETATM    6  C   UNL     1     -11.387  11.940  66.114  1.00  0.00    -0.324 C  
BRANCH   6   7
HETATM    7  C   UNL     1     -10.388  10.939  65.562  1.00  0.00    -0.252 A  
HETATM    8  C   UNL     1      -8.924   8.961  65.276  1.00  0.00    -0.162 A  
HETATM    9  S   UNL     1     -10.024   9.515  66.459  1.00  0.00    -0.265 SA 
HETATM   10  C   UNL     1      -9.650  10.985  64.392  1.00  0.00    -0.301 A  
HETATM   11  C   UNL     1      -8.810   9.843  64.225  1.00  0.00    -0.252 A  
ENDBRANCH   6   7
BRANCH   6  12
HETATM   12  O   UNL     1     -11.302  11.846  67.561  1.00  0.00    -0.273 OA 
BRANCH  12  13
HETATM   13  C   UNL     1     -11.250  13.032  68.267  1.00  0.00    -0.275 A  
HETATM   14  C   UNL     1     -12.315  14.785  69.566  1.00  0.00    -0.214 A  
HETATM   15  C   UNL     1     -12.377  13.563  68.907  1.00  0.00    -0.020 A  
HETATM   16  C   UNL     1     -11.116  15.487  69.613  1.00  0.00    -0.280 A  
HETATM   17  C   UNL     1      -9.953  14.956  69.046  1.00  0.00    -0.235 A  
HETATM   18  C   UNL     1      -8.750  15.671  69.143  1.00  0.00    -0.251 A  
HETATM   19  C   UNL     1      -7.561  15.151  68.637  1.00  0.00    -0.127 A  
HETATM   20  C   UNL     1      -7.567  13.903  68.028  1.00  0.00    -0.144 A  
HETATM   21  C   UNL     1      -8.767  13.187  67.897  1.00  0.00    -0.192 A  
HETATM   22  C   UNL     1      -9.994  13.698  68.386  1.00  0.00    -0.235 A  
ENDBRANCH  12  13
ENDBRANCH   6  12
ENDBRANCH   5   6
ENDBRANCH   4   5
ENDBRANCH   2   4
TORSDOF 6
ENDMDL
MODEL      254
REMARK 921   NORMALIZED FREE ENERGY PREDICTED BY IDOCK:   -3.08 KCAL/MOL
REMARK 922        TOTAL FREE ENERGY PREDICTED BY IDOCK:   -5.06 KCAL/MOL
REMARK 923 INTER-LIGAND FREE ENERGY PREDICTED BY IDOCK:   -4.40 KCAL/MOL
REMARK 924 INTRA-LIGAND FREE ENERGY PREDICTED BY IDOCK:   -0.67 KCAL/MOL
REMARK 927      BINDING AFFINITY PREDICTED BY RF-SCORE:    0.00 PKD
ROOT
HETATM    1  C   UNL     1      -6.469   7.836  72.243  1.00  0.00    -0.057 C  
HETATM    2  N   UNL     1      -6.793   9.255  72.112  1.00  0.00    -0.291 NA 
HETATM    3  H   UNL     1      -6.121   9.843  72.606  1.00  0.00     0.000 HD 
ENDROOT
BRANCH   2   4
HETATM    4  C   UNL     1      -6.913   9.638  70.701  1.00  0.00    -0.110 C  
BRANCH   4   5
HETATM    5  C   UNL     1      -8.334   9.473  70.137  1.00  0.00    -0.212 C  
BRANCH   5   6
HETATM    6  C   UNL     1      -8.452   8.943  68.698  1.00  0.00    -0.128 C  
BRANCH   6   7
HETATM    7  C   UNL     1      -9.482   7.835  68.573  1.00  0.00    -0.148 A  
HETATM    8  C   UNL     1     -11.034   5.972  69.080  1.00  0.00    -0.339 A  
HETATM    9  S   UNL     1      -9.935   6.931  69.968  1.00  0.00    -0.181 SA 
HETATM   10  C   UNL     1     -10.152   7.376  67.452  1.00  0.00    -0.274 A  
HETATM   11  C   UNL     1     -11.049   6.306  67.745  1.00  0.00    -0.361 A  
ENDBRANCH   6   7
BRANCH   6  12
HETATM   12  O   UNL     1      -8.894  10.013  67.820  1.00  0.00    -0.125 OA 
BRANCH  12  13
HETATM   13  C   UNL     1      -8.388  10.023  66.535  1.00  0.00    -0.126 A  
HETATM   14  C   UNL     1      -6.644   9.497  64.930  1.00  0.00    -0.086 A  
HETATM   15  C   UNL     1      -7.160   9.429  66.219  1.00  0.00    -0.088 A  
HETATM   16  C   UNL     1      -7.360  10.145  63.930  1.00  0.00    -0.111 A  
HETATM   17  C   UNL     1      -8.622  10.689  64.191  1.00  0.00    -0.100 A  
HETATM   18  C   UNL     1      -9.336  11.304  63.153  1.00  0.00    -0.325 A  
HETATM   19  C   UNL     1     -10.616  11.810  63.361  1.00  0.00    -0.479 A  
HETATM   20  C   UNL     1     -11.195  11.703  64.620  1.00  0.00    -0.320 A  
HETATM   21  C   UNL     1     -10.483  11.118  65.677  1.00  0.00    -0.308 A  
HETATM   22  C   UNL     1      -9.173  10.610  65.499  1.00  0.00    -0.228 A  
ENDBRANCH  12  13
ENDBRANCH   6  12
ENDBRANCH   5   6
ENDBRANCH   4   5
ENDBRANCH   2   4
TORSDOF 6
ENDMDL
MODEL      255
REMARK 921   NORMALIZED FREE ENERGY PREDICTED BY IDOCK:   -3.08 KCAL/MOL
REMARK 922        TOTAL FREE ENERGY PREDICTED BY IDOCK:   -5.05 KCAL/MOL
REMARK 923 INTER-LIGAND FREE ENERGY PREDICTED BY IDOCK:   -4.73 KCAL/MOL
REMARK 924 INTRA-LIGAND FREE ENERGY PREDICTED BY IDOCK:   -0.33 KCAL/MOL
REMARK 927      BINDING AFFINITY PREDICTED BY RF-SCORE:    0.00 PKD
ROOT
HETATM    1  C   UNL     1     -11.474  10.402  70.681  1.00  0.00    -0.349 C  
HETATM    2  N   UNL     1     -12.540   9.421  70.484  1.00  0.00    -0.482 NA 
HETATM    3  H   UNL     1     -12.516   9.021  69.547  1.00  0.00     0.000 HD 
ENDROOT
BRANCH   2   4
HETATM    4  C   UNL     1     -12.493   8.380  71.518  1.00  0.00    -0.312 C  
BRANCH   4   5
HETATM    5  C   UNL     1     -12.227   6.972  70.961  1.00  0.00    -0.419 C  
BRANCH   5   6
HETATM    6  C   UNL     1     -10.767   6.488  70.967  1.00  0.00    -0.243 C  
BRANCH   6   7
HETATM    7  C   UNL     1     -10.044   6.845  72.253  1.00  0.00    -0.176 A  
HETATM    8  C   UNL     1      -9.106   6.771  74.544  1.00  0.00    -0.199 A  
HETATM    9  S   UNL     1     -10.044   5.732  73.567  1.00  0.00    -0.210 SA 
HETATM   10  C   UNL     1      -9.355   7.998  72.586  1.00  0.00    -0.314 A  
HETATM   11  C   UNL     1      -8.811   7.953  73.904  1.00  0.00    -0.315 A  
ENDBRANCH   6   7
BRANCH   6  12
HETATM   12  O   UNL     1     -10.734   5.039  70.868  1.00  0.00    -0.134 OA 
BRANCH  12  13
HETATM   13  C   UNL     1      -9.696   4.480  70.149  1.00  0.00    -0.217 A  
HETATM   14  C   UNL     1      -7.655   3.171  70.023  1.00  0.00    -0.044 A  
HETATM   15  C   UNL     1      -8.722   3.678  70.756  1.00  0.00    -0.123 A  
HETATM   16  C   UNL     1      -7.559   3.440  68.663  1.00  0.00    -0.052 A  
HETATM   17  C   UNL     1      -8.549   4.178  68.007  1.00  0.00    -0.108 A  
HETATM   18  C   UNL     1      -8.443   4.401  66.627  1.00  0.00    -0.105 A  
HETATM   19  C   UNL     1      -9.435   5.086  65.930  1.00  0.00    -0.171 A  
HETATM   20  C   UNL     1     -10.550   5.553  66.614  1.00  0.00    -0.365 A  
HETATM   21  C   UNL     1     -10.658   5.364  68.000  1.00  0.00    -0.157 A  
HETATM   22  C   UNL     1      -9.657   4.687  68.738  1.00  0.00    -0.229 A  
ENDBRANCH  12  13
ENDBRANCH   6  12
ENDBRANCH   5   6
ENDBRANCH   4   5
ENDBRANCH   2   4
TORSDOF 6
ENDMDL
MODEL      256
REMARK 921   NORMALIZED FREE ENERGY PREDICTED BY IDOCK:   -3.06 KCAL/MOL
REMARK 922        TOTAL FREE ENERGY PREDICTED BY IDOCK:   -5.02 KCAL/MOL
REMARK 923 INTER-LIGAND FREE ENERGY PREDICTED BY IDOCK:   -3.97 KCAL/MOL
REMARK 924 INTRA-LIGAND FREE ENERGY PREDICTED BY IDOCK:   -1.06 KCAL/MOL
REMARK 927      BINDING AFFINITY PREDICTED BY RF-SCORE:    0.00 PKD
ROOT
HETATM    1  C   UNL     1      -7.760   5.739  64.616  1.00  0.00    -0.098 C  
HETATM    2  N   UNL     1      -8.711   4.642  64.788  1.00  0.00    -0.145 NA 
HETATM    3  H   UNL     1      -8.800   4.085  63.939  1.00  0.00     0.000 HD 
ENDROOT
BRANCH   2   4
HETATM    4  C   UNL     1      -8.351   3.813  65.944  1.00  0.00    -0.109 C  
BRANCH   4   5
HETATM    5  C   UNL     1      -9.381   3.869  67.085  1.00  0.00    -0.216 C  
BRANCH   5   6
HETATM    6  C   UNL     1      -8.973   4.646  68.349  1.00  0.00    -0.113 C  
BRANCH   6   7
HETATM    7  C   UNL     1      -8.718   6.115  68.068  1.00  0.00    -0.113 A  
HETATM    8  C   UNL     1      -7.643   8.338  67.861  1.00  0.00    -0.102 A  
HETATM    9  S   UNL     1      -7.168   6.789  68.403  1.00  0.00    -0.087 SA 
HETATM   10  C   UNL     1      -9.578   7.081  67.576  1.00  0.00    -0.155 A  
HETATM   11  C   UNL     1      -8.957   8.360  67.452  1.00  0.00    -0.143 A  
ENDBRANCH   6   7
BRANCH   6  12
HETATM   12  O   UNL     1     -10.054   4.597  69.319  1.00  0.00    -0.193 OA 
BRANCH  12  13
HETATM   13  C   UNL     1      -9.724   4.822  70.641  1.00  0.00    -0.200 A  
HETATM   14  C   UNL     1      -8.541   4.215  72.673  1.00  0.00    -0.106 A  
HETATM   15  C   UNL     1      -8.817   4.004  71.327  1.00  0.00    -0.143 A  
HETATM   16  C   UNL     1      -9.153   5.264  73.350  1.00  0.00    -0.128 A  
HETATM   17  C   UNL     1     -10.009   6.144  72.681  1.00  0.00    -0.189 A  
HETATM   18  C   UNL     1     -10.582   7.215  73.383  1.00  0.00    -0.424 A  
HETATM   19  C   UNL     1     -11.398   8.142  72.740  1.00  0.00    -0.406 A  
HETATM   20  C   UNL     1     -11.647   8.004  71.380  1.00  0.00    -0.301 A  
HETATM   21  C   UNL     1     -11.107   6.922  70.670  1.00  0.00    -0.322 A  
HETATM   22  C   UNL     1     -10.287   5.954  71.300  1.00  0.00    -0.276 A  
ENDBRANCH  12  13
ENDBRANCH   6  12
ENDBRANCH   5   6
ENDBRANCH   4   5
ENDBRANCH   2   4
TORSDOF 6
ENDMDL
MODEL      257
REMARK 921   NORMALIZED FREE ENERGY PREDICTED BY IDOCK:   -2.99 KCAL/MOL
REMARK 922        TOTAL FREE ENERGY PREDICTED BY IDOCK:   -4.94 KCAL/MOL
REMARK 923 INTER-LIGAND FREE ENERGY PREDICTED BY IDOCK:   -4.42 KCAL/MOL
REMARK 924 INTRA-LIGAND FREE ENERGY PREDICTED BY IDOCK:   -0.52 KCAL/MOL
REMARK 927      BINDING AFFINITY PREDICTED BY RF-SCORE:    0.00 PKD
ROOT
HETATM    1  C   UNL     1     -11.784  14.710  65.113  1.00  0.00    -0.364 C  
HETATM    2  N   UNL     1     -11.678  14.459  66.550  1.00  0.00    -0.383 NA 
HETATM    3  H   UNL     1     -12.176  15.163  67.093  1.00  0.00     0.000 HD 
ENDROOT
BRANCH   2   4
HETATM    4  C   UNL     1     -12.129  13.102  66.880  1.00  0.00    -0.316 C  
BRANCH   4   5
HETATM    5  C   UNL     1     -11.302  11.997  66.201  1.00  0.00    -0.407 C  
BRANCH   5   6
HETATM    6  C   UNL     1     -10.086  11.465  66.979  1.00  0.00    -0.208 C  
BRANCH   6   7
HETATM    7  C   UNL     1     -10.167   9.970  67.228  1.00  0.00    -0.222 A  
HETATM    8  C   UNL     1     -10.394   7.756  68.316  1.00  0.00    -0.198 A  
HETATM    9  S   UNL     1     -10.412   9.385  68.829  1.00  0.00    -0.201 SA 
HETATM   10  C   UNL     1     -10.049   8.920  66.334  1.00  0.00    -0.333 A  
HETATM   11  C   UNL     1     -10.185   7.645  66.961  1.00  0.00    -0.371 A  
ENDBRANCH   6   7
BRANCH   6  12
HETATM   12  O   UNL     1      -8.878  11.685  66.202  1.00  0.00    -0.196 OA 
BRANCH  12  13
HETATM   13  C   UNL     1      -7.698  11.837  66.903  1.00  0.00    -0.129 A  
HETATM   14  C   UNL     1      -5.465  11.094  67.501  1.00  0.00    -0.043 A  
HETATM   15  C   UNL     1      -6.623  10.954  66.745  1.00  0.00    -0.116 A  
HETATM   16  C   UNL     1      -5.355  12.136  68.414  1.00  0.00    -0.051 A  
HETATM   17  C   UNL     1      -6.378  13.079  68.550  1.00  0.00    -0.081 A  
HETATM   18  C   UNL     1      -6.223  14.141  69.453  1.00  0.00    -0.109 A  
HETATM   19  C   UNL     1      -7.196  15.128  69.578  1.00  0.00    -0.204 A  
HETATM   20  C   UNL     1      -8.341  15.061  68.794  1.00  0.00    -0.174 A  
HETATM   21  C   UNL     1      -8.526  13.990  67.907  1.00  0.00    -0.170 A  
HETATM   22  C   UNL     1      -7.561  12.962  67.770  1.00  0.00    -0.141 A  
ENDBRANCH  12  13
ENDBRANCH   6  12
ENDBRANCH   5   6
ENDBRANCH   4   5
ENDBRANCH   2   4
TORSDOF 6
ENDMDL
MODEL      258
REMARK 921   NORMALIZED FREE ENERGY PREDICTED BY IDOCK:   -2.99 KCAL/MOL
REMARK 922        TOTAL FREE ENERGY PREDICTED BY IDOCK:   -4.93 KCAL/MOL
REMARK 923 INTER-LIGAND FREE ENERGY PREDICTED BY IDOCK:   -4.04 KCAL/MOL
REMARK 924 INTRA-LIGAND FREE ENERGY PREDICTED BY IDOCK:   -0.89 KCAL/MOL
REMARK 927      BINDING AFFINITY PREDICTED BY RF-SCORE:    0.00 PKD
ROOT
HETATM    1  C   UNL     1     -12.852   7.907  71.626  1.00  0.00    -0.334 C  
HETATM    2  N   UNL     1     -12.310   9.234  71.908  1.00  0.00    -0.372 NA 
HETATM    3  H   UNL     1     -12.178   9.383  72.909  1.00  0.00     0.000 HD 
ENDROOT
BRANCH   2   4
HETATM    4  C   UNL     1     -11.070   9.464  71.159  1.00  0.00    -0.362 C  
BRANCH   4   5
HETATM    5  C   UNL     1      -9.815   8.921  71.863  1.00  0.00    -0.364 C  
BRANCH   5   6
HETATM    6  C   UNL     1      -8.993   7.869  71.100  1.00  0.00    -0.138 C  
BRANCH   6   7
HETATM    7  C   UNL     1      -9.409   6.450  71.442  1.00  0.00    -0.152 A  
HETATM    8  C   UNL     1     -10.028   4.057  71.281  1.00  0.00    -0.132 A  
HETATM    9  S   UNL     1      -9.586   5.287  70.183  1.00  0.00    -0.194 SA 
HETATM   10  C   UNL     1      -9.714   5.892  72.671  1.00  0.00    -0.166 A  
HETATM   11  C   UNL     1     -10.065   4.513  72.579  1.00  0.00    -0.233 A  
ENDBRANCH   6   7
BRANCH   6  12
HETATM   12  O   UNL     1      -9.209   8.025  69.672  1.00  0.00    -0.152 OA 
BRANCH  12  13
HETATM   13  C   UNL     1      -8.189   8.600  68.940  1.00  0.00    -0.123 A  
HETATM   14  C   UNL     1      -5.863   9.247  68.672  1.00  0.00    -0.041 A  
HETATM   15  C   UNL     1      -6.866   8.615  69.399  1.00  0.00    -0.049 A  
HETATM   16  C   UNL     1      -6.167   9.858  67.460  1.00  0.00    -0.059 A  
HETATM   17  C   UNL     1      -7.461   9.803  66.936  1.00  0.00    -0.091 A  
HETATM   18  C   UNL     1      -7.728  10.397  65.693  1.00  0.00    -0.150 A  
HETATM   19  C   UNL     1      -8.991  10.319  65.114  1.00  0.00    -0.220 A  
HETATM   20  C   UNL     1     -10.005   9.640  65.778  1.00  0.00    -0.342 A  
HETATM   21  C   UNL     1      -9.764   9.066  67.035  1.00  0.00    -0.247 A  
HETATM   22  C   UNL     1      -8.494   9.144  67.657  1.00  0.00    -0.116 A  
ENDBRANCH  12  13
ENDBRANCH   6  12
ENDBRANCH   5   6
ENDBRANCH   4   5
ENDBRANCH   2   4
TORSDOF 6
ENDMDL
MODEL      259
REMARK 921   NORMALIZED FREE ENERGY PREDICTED BY IDOCK:   -2.94 KCAL/MOL
REMARK 922        TOTAL FREE ENERGY PREDICTED BY IDOCK:   -4.87 KCAL/MOL
REMARK 923 INTER-LIGAND FREE ENERGY PREDICTED BY IDOCK:   -4.04 KCAL/MOL
REMARK 924 INTRA-LIGAND FREE ENERGY PREDICTED BY IDOCK:   -0.82 KCAL/MOL
REMARK 927      BINDING AFFINITY PREDICTED BY RF-SCORE:    0.00 PKD
ROOT
HETATM    1  C   UNL     1      -7.773   2.326  67.145  1.00  0.00    -0.065 C  
HETATM    2  N   UNL     1      -8.601   2.008  68.307  1.00  0.00    -0.069 NA 
HETATM    3  H   UNL     1      -8.220   1.226  68.839  1.00  0.00     0.000 HD 
ENDROOT
BRANCH   2   4
HETATM    4  C   UNL     1      -8.798   3.192  69.151  1.00  0.00    -0.099 C  
BRANCH   4   5
HETATM    5  C   UNL     1      -7.753   4.296  68.914  1.00  0.00    -0.058 C  
BRANCH   5   6
HETATM    6  C   UNL     1      -8.271   5.744  68.880  1.00  0.00    -0.101 C  
BRANCH   6   7
HETATM    7  C   UNL     1      -8.044   6.408  67.535  1.00  0.00    -0.117 A  
HETATM    8  C   UNL     1      -7.195   7.874  65.728  1.00  0.00    -0.071 A  
HETATM    9  S   UNL     1      -6.892   7.681  67.397  1.00  0.00    -0.070 SA 
HETATM   10  C   UNL     1      -8.658   6.168  66.318  1.00  0.00    -0.136 A  
HETATM   11  C   UNL     1      -8.165   7.010  65.276  1.00  0.00    -0.128 A  
ENDBRANCH   6   7
BRANCH   6  12
HETATM   12  O   UNL     1      -9.707   5.752  69.103  1.00  0.00    -0.135 OA 
BRANCH  12  13
HETATM   13  C   UNL     1     -10.159   6.320  70.277  1.00  0.00    -0.184 A  
HETATM   14  C   UNL     1     -10.690   6.182  72.643  1.00  0.00    -0.261 A  
HETATM   15  C   UNL     1     -10.181   5.609  71.483  1.00  0.00    -0.263 A  
HETATM   16  C   UNL     1     -11.168   7.488  72.618  1.00  0.00    -0.399 A  
HETATM   17  C   UNL     1     -11.098   8.253  71.450  1.00  0.00    -0.302 A  
HETATM   18  C   UNL     1     -11.554   9.580  71.466  1.00  0.00    -0.465 A  
HETATM   19  C   UNL     1     -11.452  10.389  70.338  1.00  0.00    -0.420 A  
HETATM   20  C   UNL     1     -10.889   9.874  69.177  1.00  0.00    -0.248 A  
HETATM   21  C   UNL     1     -10.456   8.541  69.135  1.00  0.00    -0.217 A  
HETATM   22  C   UNL     1     -10.561   7.689  70.261  1.00  0.00    -0.233 A  
ENDBRANCH  12  13
ENDBRANCH   6  12
ENDBRANCH   5   6
ENDBRANCH   4   5
ENDBRANCH   2   4
TORSDOF 6
ENDMDL
MODEL      260
REMARK 921   NORMALIZED FREE ENERGY PREDICTED BY IDOCK:   -2.92 KCAL/MOL
REMARK 922        TOTAL FREE ENERGY PREDICTED BY IDOCK:   -4.84 KCAL/MOL
REMARK 923 INTER-LIGAND FREE ENERGY PREDICTED BY IDOCK:   -4.35 KCAL/MOL
REMARK 924 INTRA-LIGAND FREE ENERGY PREDICTED BY IDOCK:   -0.50 KCAL/MOL
REMARK 927      BINDING AFFINITY PREDICTED BY RF-SCORE:    0.00 PKD
ROOT
HETATM    1  C   UNL     1     -10.251  18.831  66.339  1.00  0.00    -0.421 C  
HETATM    2  N   UNL     1      -9.278  18.761  67.428  1.00  0.00    -0.281 NA 
HETATM    3  H   UNL     1      -9.246  19.630  67.961  1.00  0.00     0.000 HD 
ENDROOT
BRANCH   2   4
HETATM    4  C   UNL     1      -9.540  17.605  68.292  1.00  0.00    -0.306 C  
BRANCH   4   5
HETATM    5  C   UNL     1      -9.782  16.299  67.516  1.00  0.00    -0.234 C  
BRANCH   5   6
HETATM    6  C   UNL     1      -9.999  15.027  68.353  1.00  0.00    -0.225 C  
BRANCH   6   7
HETATM    7  C   UNL     1     -10.909  15.265  69.545  1.00  0.00    -0.271 A  
HETATM    8  C   UNL     1     -12.858  15.834  70.963  1.00  0.00    -0.369 A  
HETATM    9  S   UNL     1     -12.520  15.818  69.289  1.00  0.00     0.434 SA 
HETATM   10  C   UNL     1     -10.645  15.128  70.896  1.00  0.00     0.058 A  
HETATM   11  C   UNL     1     -11.770  15.452  71.712  1.00  0.00    -0.489 A  
ENDBRANCH   6   7
BRANCH   6  12
HETATM   12  O   UNL     1     -10.650  14.015  67.538  1.00  0.00    -0.257 OA 
BRANCH  12  13
HETATM   13  C   UNL     1     -10.552  12.705  67.964  1.00  0.00    -0.221 A  
HETATM   14  C   UNL     1     -11.540  10.683  68.877  1.00  0.00    -0.320 A  
HETATM   15  C   UNL     1     -11.670  11.983  68.401  1.00  0.00    -0.390 A  
HETATM   16  C   UNL     1     -10.289  10.077  68.903  1.00  0.00    -0.217 A  
HETATM   17  C   UNL     1      -9.162  10.740  68.409  1.00  0.00    -0.164 A  
HETATM   18  C   UNL     1      -7.920  10.087  68.414  1.00  0.00    -0.097 A  
HETATM   19  C   UNL     1      -6.785  10.695  67.884  1.00  0.00    -0.064 A  
HETATM   20  C   UNL     1      -6.886  11.969  67.339  1.00  0.00    -0.142 A  
HETATM   21  C   UNL     1      -8.113  12.648  67.352  1.00  0.00    -0.182 A  
HETATM   22  C   UNL     1      -9.281  12.062  67.900  1.00  0.00    -0.190 A  
ENDBRANCH  12  13
ENDBRANCH   6  12
ENDBRANCH   5   6
ENDBRANCH   4   5
ENDBRANCH   2   4
TORSDOF 6
ENDMDL
MODEL      261
REMARK 921   NORMALIZED FREE ENERGY PREDICTED BY IDOCK:   -2.91 KCAL/MOL
REMARK 922        TOTAL FREE ENERGY PREDICTED BY IDOCK:   -4.82 KCAL/MOL
REMARK 923 INTER-LIGAND FREE ENERGY PREDICTED BY IDOCK:   -5.34 KCAL/MOL
REMARK 924 INTRA-LIGAND FREE ENERGY PREDICTED BY IDOCK:    0.52 KCAL/MOL
REMARK 927      BINDING AFFINITY PREDICTED BY RF-SCORE:    0.00 PKD
ROOT
HETATM    1  C   UNL     1     -12.118  13.778  63.885  1.00  0.00    -0.376 C  
HETATM    2  N   UNL     1     -12.039  13.710  65.343  1.00  0.00    -0.378 NA 
HETATM    3  H   UNL     1     -12.736  14.307  65.787  1.00  0.00     0.000 HD 
ENDROOT
BRANCH   2   4
HETATM    4  C   UNL     1     -12.139  12.322  65.809  1.00  0.00    -0.213 C  
BRANCH   4   5
HETATM    5  C   UNL     1     -11.360  12.051  67.107  1.00  0.00    -0.396 C  
BRANCH   5   6
HETATM    6  C   UNL     1      -9.872  11.688  66.960  1.00  0.00    -0.193 C  
BRANCH   6   7
HETATM    7  C   UNL     1      -8.965  12.655  67.700  1.00  0.00    -0.186 A  
HETATM    8  C   UNL     1      -8.066  14.661  68.842  1.00  0.00    -0.147 A  
HETATM    9  S   UNL     1      -9.534  14.236  68.079  1.00  0.00    -0.210 SA 
HETATM   10  C   UNL     1      -7.662  12.484  68.135  1.00  0.00    -0.141 A  
HETATM   11  C   UNL     1      -7.147  13.638  68.797  1.00  0.00    -0.103 A  
ENDBRANCH   6   7
BRANCH   6  12
HETATM   12  O   UNL     1      -9.632  10.378  67.539  1.00  0.00    -0.154 OA 
BRANCH  12  13
HETATM   13  C   UNL     1     -10.362  10.042  68.662  1.00  0.00    -0.190 A  
HETATM   14  C   UNL     1     -11.596  10.656  70.661  1.00  0.00    -0.432 A  
HETATM   15  C   UNL     1     -10.911  11.015  69.506  1.00  0.00    -0.297 A  
HETATM   16  C   UNL     1     -11.762   9.312  70.978  1.00  0.00    -0.378 A  
HETATM   17  C   UNL     1     -11.289   8.311  70.124  1.00  0.00    -0.060 A  
HETATM   18  C   UNL     1     -11.504   6.965  70.454  1.00  0.00    -0.387 A  
HETATM   19  C   UNL     1     -11.094   5.942  69.603  1.00  0.00    -0.414 A  
HETATM   20  C   UNL     1     -10.463   6.260  68.407  1.00  0.00    -0.273 A  
HETATM   21  C   UNL     1     -10.214   7.601  68.076  1.00  0.00    -0.248 A  
HETATM   22  C   UNL     1     -10.604   8.662  68.929  1.00  0.00    -0.166 A  
ENDBRANCH  12  13
ENDBRANCH   6  12
ENDBRANCH   5   6
ENDBRANCH   4   5
ENDBRANCH   2   4
TORSDOF 6
ENDMDL
MODEL      262
REMARK 921   NORMALIZED FREE ENERGY PREDICTED BY IDOCK:   -2.90 KCAL/MOL
REMARK 922        TOTAL FREE ENERGY PREDICTED BY IDOCK:   -4.81 KCAL/MOL
REMARK 923 INTER-LIGAND FREE ENERGY PREDICTED BY IDOCK:   -4.45 KCAL/MOL
REMARK 924 INTRA-LIGAND FREE ENERGY PREDICTED BY IDOCK:   -0.36 KCAL/MOL
REMARK 927      BINDING AFFINITY PREDICTED BY RF-SCORE:    0.00 PKD
ROOT
HETATM    1  C   UNL     1      -5.889   8.791  63.867  1.00  0.00    -0.071 C  
HETATM    2  N   UNL     1      -6.319   9.914  64.697  1.00  0.00    -0.110 NA 
HETATM    3  H   UNL     1      -6.253  10.800  64.196  1.00  0.00     0.000 HD 
ENDROOT
BRANCH   2   4
HETATM    4  C   UNL     1      -7.669   9.689  65.225  1.00  0.00    -0.115 C  
BRANCH   4   5
HETATM    5  C   UNL     1      -7.782   9.917  66.742  1.00  0.00    -0.099 C  
BRANCH   5   6
HETATM    6  C   UNL     1      -9.175  10.278  67.287  1.00  0.00    -0.141 C  
BRANCH   6   7
HETATM    7  C   UNL     1      -9.835   9.115  68.004  1.00  0.00    -0.168 A  
HETATM    8  C   UNL     1     -10.629   7.551  69.753  1.00  0.00    -0.241 A  
HETATM    9  S   UNL     1      -9.703   8.985  69.717  1.00  0.00    -0.183 SA 
HETATM   10  C   UNL     1     -10.557   8.054  67.486  1.00  0.00    -0.302 A  
HETATM   11  C   UNL     1     -11.018   7.156  68.494  1.00  0.00    -0.080 A  
ENDBRANCH   6   7
BRANCH   6  12
HETATM   12  O   UNL     1      -9.052  11.346  68.265  1.00  0.00    -0.166 OA 
BRANCH  12  13
HETATM   13  C   UNL     1      -8.809  12.616  67.782  1.00  0.00    -0.179 A  
HETATM   14  C   UNL     1      -7.364  14.549  67.507  1.00  0.00    -0.212 A  
HETATM   15  C   UNL     1      -7.571  13.248  67.953  1.00  0.00    -0.152 A  
HETATM   16  C   UNL     1      -8.390  15.231  66.863  1.00  0.00    -0.278 A  
HETATM   17  C   UNL     1      -9.617  14.609  66.612  1.00  0.00    -0.294 A  
HETATM   18  C   UNL     1     -10.619  15.311  65.927  1.00  0.00    -0.345 A  
HETATM   19  C   UNL     1     -11.834  14.708  65.613  1.00  0.00    -0.273 A  
HETATM   20  C   UNL     1     -12.056  13.388  65.983  1.00  0.00    -0.487 A  
HETATM   21  C   UNL     1     -11.076  12.680  66.695  1.00  0.00    -0.314 A  
HETATM   22  C   UNL     1      -9.837  13.272  67.043  1.00  0.00    -0.242 A  
ENDBRANCH  12  13
ENDBRANCH   6  12
ENDBRANCH   5   6
ENDBRANCH   4   5
ENDBRANCH   2   4
TORSDOF 6
ENDMDL
MODEL      263
REMARK 921   NORMALIZED FREE ENERGY PREDICTED BY IDOCK:   -2.87 KCAL/MOL
REMARK 922        TOTAL FREE ENERGY PREDICTED BY IDOCK:   -4.78 KCAL/MOL
REMARK 923 INTER-LIGAND FREE ENERGY PREDICTED BY IDOCK:   -3.87 KCAL/MOL
REMARK 924 INTRA-LIGAND FREE ENERGY PREDICTED BY IDOCK:   -0.91 KCAL/MOL
REMARK 927      BINDING AFFINITY PREDICTED BY RF-SCORE:    0.00 PKD
ROOT
HETATM    1  C   UNL     1     -10.553  15.907  67.473  1.00  0.00    -0.315 C  
HETATM    2  N   UNL     1      -9.655  14.755  67.420  1.00  0.00    -0.208 NA 
HETATM    3  H   UNL     1      -9.796  14.131  68.214  1.00  0.00     0.000 HD 
ENDROOT
BRANCH   2   4
HETATM    4  C   UNL     1      -9.789  14.044  66.143  1.00  0.00    -0.303 C  
BRANCH   4   5
HETATM    5  C   UNL     1     -10.313  12.605  66.292  1.00  0.00    -0.269 C  
BRANCH   5   6
HETATM    6  C   UNL     1      -9.285  11.473  66.124  1.00  0.00    -0.219 C  
BRANCH   6   7
HETATM    7  C   UNL     1      -8.382  11.327  67.335  1.00  0.00    -0.137 A  
HETATM    8  C   UNL     1      -6.402  11.266  68.822  1.00  0.00    -0.051 A  
HETATM    9  S   UNL     1      -6.687  11.584  67.168  1.00  0.00    -0.141 SA 
HETATM   10  C   UNL     1      -8.700  10.978  68.636  1.00  0.00    -0.161 A  
HETATM   11  C   UNL     1      -7.560  10.947  69.493  1.00  0.00    -0.057 A  
ENDBRANCH   6   7
BRANCH   6  12
HETATM   12  O   UNL     1      -9.980  10.205  65.976  1.00  0.00    -0.229 OA 
BRANCH  12  13
HETATM   13  C   UNL     1      -9.234   9.126  65.543  1.00  0.00    -0.224 A  
HETATM   14  C   UNL     1      -7.585   8.134  64.062  1.00  0.00    -0.130 A  
HETATM   15  C   UNL     1      -8.286   9.245  64.520  1.00  0.00    -0.151 A  
HETATM   16  C   UNL     1      -7.809   6.889  64.637  1.00  0.00    -0.116 A  
HETATM   17  C   UNL     1      -8.696   6.743  65.708  1.00  0.00    -0.122 A  
HETATM   18  C   UNL     1      -8.873   5.480  66.291  1.00  0.00    -0.134 A  
HETATM   19  C   UNL     1      -9.708   5.306  67.392  1.00  0.00    -0.162 A  
HETATM   20  C   UNL     1     -10.376   6.403  67.921  1.00  0.00    -0.234 A  
HETATM   21  C   UNL     1     -10.234   7.667  67.331  1.00  0.00    -0.320 A  
HETATM   22  C   UNL     1      -9.406   7.872  66.201  1.00  0.00    -0.188 A  
ENDBRANCH  12  13
ENDBRANCH   6  12
ENDBRANCH   5   6
ENDBRANCH   4   5
ENDBRANCH   2   4
TORSDOF 6
ENDMDL
MODEL      264
REMARK 921   NORMALIZED FREE ENERGY PREDICTED BY IDOCK:   -2.86 KCAL/MOL
REMARK 922        TOTAL FREE ENERGY PREDICTED BY IDOCK:   -4.76 KCAL/MOL
REMARK 923 INTER-LIGAND FREE ENERGY PREDICTED BY IDOCK:   -4.05 KCAL/MOL
REMARK 924 INTRA-LIGAND FREE ENERGY PREDICTED BY IDOCK:   -0.71 KCAL/MOL
REMARK 927      BINDING AFFINITY PREDICTED BY RF-SCORE:    0.00 PKD
ROOT
HETATM    1  C   UNL     1     -10.817   3.261  73.295  1.00  0.00    -0.180 C  
HETATM    2  N   UNL     1      -9.684   4.185  73.311  1.00  0.00    -0.118 NA 
HETATM    3  H   UNL     1      -9.544   4.625  72.402  1.00  0.00     0.000 HD 
ENDROOT
BRANCH   2   4
HETATM    4  C   UNL     1      -9.836   5.182  74.377  1.00  0.00    -0.194 C  
BRANCH   4   5
HETATM    5  C   UNL     1     -10.323   6.551  73.873  1.00  0.00    -0.356 C  
BRANCH   5   6
HETATM    6  C   UNL     1      -9.351   7.351  72.990  1.00  0.00    -0.178 C  
BRANCH   6   7
HETATM    7  C   UNL     1      -7.902   7.151  73.396  1.00  0.00    -0.095 A  
HETATM    8  C   UNL     1      -5.687   7.396  74.478  1.00  0.00    -0.070 A  
HETATM    9  S   UNL     1      -7.187   8.210  74.551  1.00  0.00    -0.201 SA 
HETATM   10  C   UNL     1      -6.984   6.214  72.954  1.00  0.00    -0.076 A  
HETATM   11  C   UNL     1      -5.710   6.353  73.581  1.00  0.00    -0.054 A  
ENDBRANCH   6   7
BRANCH   6  12
HETATM   12  O   UNL     1      -9.457   6.895  71.614  1.00  0.00    -0.158 OA 
BRANCH  12  13
HETATM   13  C   UNL     1      -9.868   7.820  70.675  1.00  0.00    -0.182 A  
HETATM   14  C   UNL     1     -10.759   9.999  70.080  1.00  0.00    -0.348 A  
HETATM   15  C   UNL     1     -10.298   9.103  71.037  1.00  0.00    -0.363 A  
HETATM   16  C   UNL     1     -10.778   9.632  68.739  1.00  0.00    -0.234 A  
HETATM   17  C   UNL     1     -10.292   8.386  68.331  1.00  0.00    -0.239 A  
HETATM   18  C   UNL     1     -10.290   8.059  66.967  1.00  0.00    -0.414 A  
HETATM   19  C   UNL     1      -9.766   6.850  66.517  1.00  0.00    -0.185 A  
HETATM   20  C   UNL     1      -9.235   5.954  67.436  1.00  0.00    -0.108 A  
HETATM   21  C   UNL     1      -9.256   6.251  68.806  1.00  0.00    -0.125 A  
HETATM   22  C   UNL     1      -9.798   7.466  69.295  1.00  0.00    -0.168 A  
ENDBRANCH  12  13
ENDBRANCH   6  12
ENDBRANCH   5   6
ENDBRANCH   4   5
ENDBRANCH   2   4
TORSDOF 6
ENDMDL
MODEL      265
REMARK 921   NORMALIZED FREE ENERGY PREDICTED BY IDOCK:   -2.85 KCAL/MOL
REMARK 922        TOTAL FREE ENERGY PREDICTED BY IDOCK:   -4.75 KCAL/MOL
REMARK 923 INTER-LIGAND FREE ENERGY PREDICTED BY IDOCK:   -4.13 KCAL/MOL
REMARK 924 INTRA-LIGAND FREE ENERGY PREDICTED BY IDOCK:   -0.62 KCAL/MOL
REMARK 927      BINDING AFFINITY PREDICTED BY RF-SCORE:    0.00 PKD
ROOT
HETATM    1  C   UNL     1      -7.803   5.305  67.806  1.00  0.00    -0.092 C  
HETATM    2  N   UNL     1      -8.501   6.586  67.911  1.00  0.00    -0.119 NA 
HETATM    3  H   UNL     1      -8.444   6.969  68.855  1.00  0.00     0.000 HD 
ENDROOT
BRANCH   2   4
HETATM    4  C   UNL     1      -8.005   7.537  66.910  1.00  0.00    -0.115 C  
BRANCH   4   5
HETATM    5  C   UNL     1      -9.072   8.533  66.426  1.00  0.00    -0.229 C  
BRANCH   5   6
HETATM    6  C   UNL     1      -8.607   9.977  66.169  1.00  0.00    -0.133 C  
BRANCH   6   7
HETATM    7  C   UNL     1      -9.232  10.572  64.921  1.00  0.00    -0.215 A  
HETATM    8  C   UNL     1     -10.736  11.783  63.369  1.00  0.00    -0.402 A  
HETATM    9  S   UNL     1     -10.688  11.485  65.049  1.00  0.00    -0.274 SA 
HETATM   10  C   UNL     1      -8.821  10.487  63.602  1.00  0.00    -0.210 A  
HETATM   11  C   UNL     1      -9.685  11.189  62.709  1.00  0.00    -0.298 A  
ENDBRANCH   6   7
BRANCH   6  12
HETATM   12  O   UNL     1      -9.019  10.823  67.276  1.00  0.00    -0.140 OA 
BRANCH  12  13
HETATM   13  C   UNL     1      -8.203  11.893  67.587  1.00  0.00    -0.148 A  
HETATM   14  C   UNL     1      -6.022  12.960  67.652  1.00  0.00    -0.148 A  
HETATM   15  C   UNL     1      -6.836  11.896  67.281  1.00  0.00    -0.142 A  
HETATM   16  C   UNL     1      -6.569  14.052  68.317  1.00  0.00    -0.110 A  
HETATM   17  C   UNL     1      -7.942  14.117  68.577  1.00  0.00    -0.145 A  
HETATM   18  C   UNL     1      -8.469  15.248  69.217  1.00  0.00    -0.238 A  
HETATM   19  C   UNL     1      -9.837  15.373  69.447  1.00  0.00    -0.273 A  
HETATM   20  C   UNL     1     -10.693  14.360  69.033  1.00  0.00    -0.261 A  
HETATM   21  C   UNL     1     -10.179  13.208  68.419  1.00  0.00    -0.247 A  
HETATM   22  C   UNL     1      -8.791  13.046  68.187  1.00  0.00    -0.194 A  
ENDBRANCH  12  13
ENDBRANCH   6  12
ENDBRANCH   5   6
ENDBRANCH   4   5
ENDBRANCH   2   4
TORSDOF 6
ENDMDL
MODEL      266
REMARK 921   NORMALIZED FREE ENERGY PREDICTED BY IDOCK:   -2.85 KCAL/MOL
REMARK 922        TOTAL FREE ENERGY PREDICTED BY IDOCK:   -4.74 KCAL/MOL
REMARK 923 INTER-LIGAND FREE ENERGY PREDICTED BY IDOCK:   -3.75 KCAL/MOL
REMARK 924 INTRA-LIGAND FREE ENERGY PREDICTED BY IDOCK:   -0.99 KCAL/MOL
REMARK 927      BINDING AFFINITY PREDICTED BY RF-SCORE:    0.00 PKD
ROOT
HETATM    1  C   UNL     1     -10.110   2.627  72.800  1.00  0.00    -0.149 C  
HETATM    2  N   UNL     1     -10.489   3.667  73.755  1.00  0.00    -0.166 NA 
HETATM    3  H   UNL     1      -9.681   4.204  74.067  1.00  0.00     0.000 HD 
ENDROOT
BRANCH   2   4
HETATM    4  C   UNL     1     -11.534   4.534  73.198  1.00  0.00    -0.178 C  
BRANCH   4   5
HETATM    5  C   UNL     1     -11.149   6.023  73.175  1.00  0.00    -0.236 C  
BRANCH   5   6
HETATM    6  C   UNL     1      -9.931   6.410  72.319  1.00  0.00    -0.164 C  
BRANCH   6   7
HETATM    7  C   UNL     1     -10.099   6.017  70.862  1.00  0.00    -0.196 A  
HETATM    8  C   UNL     1     -10.969   5.783  68.555  1.00  0.00    -0.098 A  
HETATM    9  S   UNL     1     -11.467   6.581  69.980  1.00  0.00    -0.376 SA 
HETATM   10  C   UNL     1      -9.301   5.212  70.069  1.00  0.00    -0.201 A  
HETATM   11  C   UNL     1      -9.800   5.081  68.739  1.00  0.00    -0.236 A  
ENDBRANCH   6   7
BRANCH   6  12
HETATM   12  O   UNL     1      -9.764   7.854  72.337  1.00  0.00    -0.177 OA 
BRANCH  12  13
HETATM   13  C   UNL     1      -8.555   8.353  71.896  1.00  0.00    -0.186 A  
HETATM   14  C   UNL     1      -6.132   8.478  72.014  1.00  0.00    -0.066 A  
HETATM   15  C   UNL     1      -7.336   7.923  72.434  1.00  0.00    -0.104 A  
HETATM   16  C   UNL     1      -6.129   9.460  71.029  1.00  0.00    -0.073 A  
HETATM   17  C   UNL     1      -7.319   9.864  70.418  1.00  0.00    -0.139 A  
HETATM   18  C   UNL     1      -7.279  10.830  69.402  1.00  0.00    -0.132 A  
HETATM   19  C   UNL     1      -8.437  11.220  68.734  1.00  0.00    -0.112 A  
HETATM   20  C   UNL     1      -9.652  10.642  69.079  1.00  0.00    -0.207 A  
HETATM   21  C   UNL     1      -9.714   9.696  70.114  1.00  0.00    -0.301 A  
HETATM   22  C   UNL     1      -8.556   9.292  70.822  1.00  0.00    -0.254 A  
ENDBRANCH  12  13
ENDBRANCH   6  12
ENDBRANCH   5   6
ENDBRANCH   4   5
ENDBRANCH   2   4
TORSDOF 6
ENDMDL
MODEL      267
REMARK 921   NORMALIZED FREE ENERGY PREDICTED BY IDOCK:   -2.84 KCAL/MOL
REMARK 922        TOTAL FREE ENERGY PREDICTED BY IDOCK:   -4.74 KCAL/MOL
REMARK 923 INTER-LIGAND FREE ENERGY PREDICTED BY IDOCK:   -3.92 KCAL/MOL
REMARK 924 INTRA-LIGAND FREE ENERGY PREDICTED BY IDOCK:   -0.82 KCAL/MOL
REMARK 927      BINDING AFFINITY PREDICTED BY RF-SCORE:    0.00 PKD
ROOT
HETATM    1  C   UNL     1     -11.506   3.966  73.505  1.00  0.00    -0.098 C  
HETATM    2  N   UNL     1     -10.530   4.876  72.908  1.00  0.00    -0.193 NA 
HETATM    3  H   UNL     1     -10.547   5.793  73.354  1.00  0.00     0.000 HD 
ENDROOT
BRANCH   2   4
HETATM    4  C   UNL     1      -9.185   4.289  72.931  1.00  0.00    -0.112 C  
BRANCH   4   5
HETATM    5  C   UNL     1      -8.825   3.528  71.644  1.00  0.00    -0.139 C  
BRANCH   5   6
HETATM    6  C   UNL     1      -8.838   4.335  70.334  1.00  0.00    -0.085 C  
BRANCH   6   7
HETATM    7  C   UNL     1      -8.301   3.539  69.158  1.00  0.00    -0.060 A  
HETATM    8  C   UNL     1      -7.947   1.782  67.449  1.00  0.00    -0.065 A  
HETATM    9  S   UNL     1      -9.004   2.016  68.770  1.00  0.00    -0.131 SA 
HETATM   10  C   UNL     1      -7.259   3.833  68.297  1.00  0.00    -0.054 A  
HETATM   11  C   UNL     1      -7.058   2.823  67.309  1.00  0.00    -0.053 A  
ENDBRANCH   6   7
BRANCH   6  12
HETATM   12  O   UNL     1     -10.205   4.692  69.997  1.00  0.00    -0.234 OA 
BRANCH  12  13
HETATM   13  C   UNL     1     -10.382   5.682  69.051  1.00  0.00    -0.243 A  
HETATM   14  C   UNL     1     -10.745   6.398  66.759  1.00  0.00    -0.355 A  
HETATM   15  C   UNL     1     -10.624   5.386  67.704  1.00  0.00    -0.188 A  
HETATM   16  C   UNL     1     -10.647   7.728  67.153  1.00  0.00    -0.401 A  
HETATM   17  C   UNL     1     -10.476   8.066  68.499  1.00  0.00    -0.200 A  
HETATM   18  C   UNL     1     -10.418   9.417  68.869  1.00  0.00    -0.236 A  
HETATM   19  C   UNL     1     -10.301   9.793  70.205  1.00  0.00    -0.335 A  
HETATM   20  C   UNL     1     -10.242   8.812  71.187  1.00  0.00    -0.316 A  
HETATM   21  C   UNL     1     -10.269   7.455  70.831  1.00  0.00    -0.195 A  
HETATM   22  C   UNL     1     -10.371   7.043  69.480  1.00  0.00    -0.225 A  
ENDBRANCH  12  13
ENDBRANCH   6  12
ENDBRANCH   5   6
ENDBRANCH   4   5
ENDBRANCH   2   4
TORSDOF 6
ENDMDL
MODEL      268
REMARK 921   NORMALIZED FREE ENERGY PREDICTED BY IDOCK:   -2.78 KCAL/MOL
REMARK 922        TOTAL FREE ENERGY PREDICTED BY IDOCK:   -4.65 KCAL/MOL
REMARK 923 INTER-LIGAND FREE ENERGY PREDICTED BY IDOCK:   -4.07 KCAL/MOL
REMARK 924 INTRA-LIGAND FREE ENERGY PREDICTED BY IDOCK:   -0.58 KCAL/MOL
REMARK 927      BINDING AFFINITY PREDICTED BY RF-SCORE:    0.00 PKD
ROOT
HETATM    1  C   UNL     1     -13.898  10.021  72.222  1.00  0.00     0.009 C  
HETATM    2  N   UNL     1     -12.617   9.594  71.661  1.00  0.00    -0.373 NA 
HETATM    3  H   UNL     1     -11.833   9.908  72.232  1.00  0.00     0.000 HD 
ENDROOT
BRANCH   2   4
HETATM    4  C   UNL     1     -12.592   8.142  71.456  1.00  0.00    -0.304 C  
BRANCH   4   5
HETATM    5  C   UNL     1     -11.193   7.590  71.133  1.00  0.00    -0.277 C  
BRANCH   5   6
HETATM    6  C   UNL     1     -11.098   6.572  69.984  1.00  0.00    -0.363 C  
BRANCH   6   7
HETATM    7  C   UNL     1     -10.361   7.126  68.778  1.00  0.00    -0.192 A  
HETATM    8  C   UNL     1      -9.645   7.624  66.460  1.00  0.00    -0.186 A  
HETATM    9  S   UNL     1     -10.849   6.660  67.193  1.00  0.00    -0.398 SA 
HETATM   10  C   UNL     1      -9.277   7.985  68.725  1.00  0.00    -0.143 A  
HETATM   11  C   UNL     1      -8.868   8.275  67.390  1.00  0.00    -0.135 A  
ENDBRANCH   6   7
BRANCH   6  12
HETATM   12  O   UNL     1     -10.344   5.410  70.425  1.00  0.00    -0.248 OA 
BRANCH  12  13
HETATM   13  C   UNL     1     -10.131   5.277  71.783  1.00  0.00    -0.200 A  
HETATM   14  C   UNL     1     -10.892   4.673  74.008  1.00  0.00    -0.328 A  
HETATM   15  C   UNL     1     -11.106   4.748  72.637  1.00  0.00    -0.186 A  
HETATM   16  C   UNL     1      -9.685   5.108  74.545  1.00  0.00    -0.191 A  
HETATM   17  C   UNL     1      -8.661   5.577  73.717  1.00  0.00    -0.118 A  
HETATM   18  C   UNL     1      -7.442   5.975  74.286  1.00  0.00    -0.087 A  
HETATM   19  C   UNL     1      -6.381   6.398  73.490  1.00  0.00    -0.065 A  
HETATM   20  C   UNL     1      -6.532   6.425  72.109  1.00  0.00    -0.054 A  
HETATM   21  C   UNL     1      -7.755   6.060  71.526  1.00  0.00    -0.101 A  
HETATM   22  C   UNL     1      -8.857   5.641  72.311  1.00  0.00    -0.132 A  
ENDBRANCH  12  13
ENDBRANCH   6  12
ENDBRANCH   5   6
ENDBRANCH   4   5
ENDBRANCH   2   4
TORSDOF 6
ENDMDL
MODEL      269
REMARK 921   NORMALIZED FREE ENERGY PREDICTED BY IDOCK:   -2.74 KCAL/MOL
REMARK 922        TOTAL FREE ENERGY PREDICTED BY IDOCK:   -4.60 KCAL/MOL
REMARK 923 INTER-LIGAND FREE ENERGY PREDICTED BY IDOCK:   -3.87 KCAL/MOL
REMARK 924 INTRA-LIGAND FREE ENERGY PREDICTED BY IDOCK:   -0.73 KCAL/MOL
REMARK 927      BINDING AFFINITY PREDICTED BY RF-SCORE:    0.00 PKD
ROOT
HETATM    1  C   UNL     1     -12.365  11.081  70.146  1.00  0.00    -0.311 C  
HETATM    2  N   UNL     1     -13.160   9.913  70.519  1.00  0.00    -0.586 NA 
HETATM    3  H   UNL     1     -13.010   9.134  69.877  1.00  0.00     0.000 HD 
ENDROOT
BRANCH   2   4
HETATM    4  C   UNL     1     -12.901   9.525  71.910  1.00  0.00    -0.420 C  
BRANCH   4   5
HETATM    5  C   UNL     1     -12.405   8.077  72.062  1.00  0.00    -0.366 C  
BRANCH   5   6
HETATM    6  C   UNL     1     -10.964   7.787  71.608  1.00  0.00    -0.235 C  
BRANCH   6   7
HETATM    7  C   UNL     1     -10.867   7.540  70.114  1.00  0.00    -0.249 A  
HETATM    8  C   UNL     1     -10.867   6.460  67.884  1.00  0.00    -0.322 A  
HETATM    9  S   UNL     1     -11.119   5.952  69.495  1.00  0.00    -0.206 SA 
HETATM   10  C   UNL     1     -10.571   8.424  69.091  1.00  0.00    -0.177 A  
HETATM   11  C   UNL     1     -10.576   7.803  67.807  1.00  0.00    -0.254 A  
ENDBRANCH   6   7
BRANCH   6  12
HETATM   12  O   UNL     1     -10.125   8.940  71.887  1.00  0.00    -0.321 OA 
BRANCH  12  13
HETATM   13  C   UNL     1      -8.937   8.708  72.552  1.00  0.00    -0.093 A  
HETATM   14  C   UNL     1      -7.687   7.798  74.424  1.00  0.00    -0.229 A  
HETATM   15  C   UNL     1      -8.886   7.973  73.743  1.00  0.00    -0.313 A  
HETATM   16  C   UNL     1      -6.513   8.338  73.911  1.00  0.00    -0.139 A  
HETATM   17  C   UNL     1      -6.512   9.017  72.689  1.00  0.00     0.138 A  
HETATM   18  C   UNL     1      -5.305   9.518  72.180  1.00  0.00    -0.065 A  
HETATM   19  C   UNL     1      -5.256  10.154  70.942  1.00  0.00    -0.066 A  
HETATM   20  C   UNL     1      -6.421  10.292  70.199  1.00  0.00    -0.128 A  
HETATM   21  C   UNL     1      -7.642   9.823  70.707  1.00  0.00     0.082 A  
HETATM   22  C   UNL     1      -7.727   9.188  71.970  1.00  0.00     0.387 A  
ENDBRANCH  12  13
ENDBRANCH   6  12
ENDBRANCH   5   6
ENDBRANCH   4   5
ENDBRANCH   2   4
TORSDOF 6
ENDMDL
MODEL      270
REMARK 921   NORMALIZED FREE ENERGY PREDICTED BY IDOCK:   -2.74 KCAL/MOL
REMARK 922        TOTAL FREE ENERGY PREDICTED BY IDOCK:   -4.60 KCAL/MOL
REMARK 923 INTER-LIGAND FREE ENERGY PREDICTED BY IDOCK:   -4.09 KCAL/MOL
REMARK 924 INTRA-LIGAND FREE ENERGY PREDICTED BY IDOCK:   -0.51 KCAL/MOL
REMARK 927      BINDING AFFINITY PREDICTED BY RF-SCORE:    0.00 PKD
ROOT
HETATM    1  C   UNL     1     -11.430   5.315  72.730  1.00  0.00    -0.247 C  
HETATM    2  N   UNL     1     -12.480   6.201  72.229  1.00  0.00    -0.479 NA 
HETATM    3  H   UNL     1     -12.687   6.951  72.888  1.00  0.00     0.000 HD 
ENDROOT
BRANCH   2   4
HETATM    4  C   UNL     1     -12.134   6.726  70.903  1.00  0.00    -0.367 C  
BRANCH   4   5
HETATM    5  C   UNL     1     -11.694   8.200  70.921  1.00  0.00    -0.259 C  
BRANCH   5   6
HETATM    6  C   UNL     1     -10.289   8.510  70.377  1.00  0.00    -0.202 C  
BRANCH   6   7
HETATM    7  C   UNL     1      -9.240   7.547  70.901  1.00  0.00    -0.153 A  
HETATM    8  C   UNL     1      -7.439   5.852  71.047  1.00  0.00    -0.094 A  
HETATM    9  S   UNL     1      -8.320   6.604  69.792  1.00  0.00    -0.133 SA 
HETATM   10  C   UNL     1      -8.883   7.257  72.207  1.00  0.00    -0.145 A  
HETATM   11  C   UNL     1      -7.842   6.284  72.290  1.00  0.00    -0.104 A  
ENDBRANCH   6   7
BRANCH   6  12
HETATM   12  O   UNL     1     -10.286   8.371  68.931  1.00  0.00    -0.214 OA 
BRANCH  12  13
HETATM   13  C   UNL     1      -9.910   9.476  68.193  1.00  0.00    -0.155 A  
HETATM   14  C   UNL     1      -9.614  11.874  67.949  1.00  0.00    -0.193 A  
HETATM   15  C   UNL     1      -9.946  10.770  68.727  1.00  0.00    -0.201 A  
HETATM   16  C   UNL     1      -9.220  11.697  66.628  1.00  0.00    -0.196 A  
HETATM   17  C   UNL     1      -9.104  10.415  66.081  1.00  0.00    -0.183 A  
HETATM   18  C   UNL     1      -8.668  10.268  64.756  1.00  0.00    -0.201 A  
HETATM   19  C   UNL     1      -8.490   9.007  64.193  1.00  0.00    -0.183 A  
HETATM   20  C   UNL     1      -8.748   7.876  64.958  1.00  0.00     0.070 A  
HETATM   21  C   UNL     1      -9.214   8.006  66.275  1.00  0.00    -0.237 A  
HETATM   22  C   UNL     1      -9.420   9.275  66.869  1.00  0.00    -0.211 A  
ENDBRANCH  12  13
ENDBRANCH   6  12
ENDBRANCH   5   6
ENDBRANCH   4   5
ENDBRANCH   2   4
TORSDOF 6
ENDMDL
MODEL      271
REMARK 921   NORMALIZED FREE ENERGY PREDICTED BY IDOCK:   -2.73 KCAL/MOL
REMARK 922        TOTAL FREE ENERGY PREDICTED BY IDOCK:   -4.58 KCAL/MOL
REMARK 923 INTER-LIGAND FREE ENERGY PREDICTED BY IDOCK:   -4.55 KCAL/MOL
REMARK 924 INTRA-LIGAND FREE ENERGY PREDICTED BY IDOCK:   -0.03 KCAL/MOL
REMARK 927      BINDING AFFINITY PREDICTED BY RF-SCORE:    0.00 PKD
ROOT
HETATM    1  C   UNL     1      -8.856   3.334  66.328  1.00  0.00    -0.140 C  
HETATM    2  N   UNL     1      -8.436   3.960  67.581  1.00  0.00    -0.094 NA 
HETATM    3  H   UNL     1      -7.814   4.752  67.416  1.00  0.00     0.000 HD 
ENDROOT
BRANCH   2   4
HETATM    4  C   UNL     1      -9.598   4.345  68.390  1.00  0.00    -0.140 C  
BRANCH   4   5
HETATM    5  C   UNL     1      -9.340   5.559  69.299  1.00  0.00    -0.153 C  
BRANCH   5   6
HETATM    6  C   UNL     1      -9.619   5.372  70.800  1.00  0.00    -0.173 C  
BRANCH   6   7
HETATM    7  C   UNL     1      -8.802   4.244  71.405  1.00  0.00    -0.113 A  
HETATM    8  C   UNL     1      -7.002   2.946  72.504  1.00  0.00    -0.031 A  
HETATM    9  S   UNL     1      -7.245   4.577  72.060  1.00  0.00    -0.068 SA 
HETATM   10  C   UNL     1      -9.101   2.897  71.509  1.00  0.00    -0.170 A  
HETATM   11  C   UNL     1      -8.066   2.150  72.147  1.00  0.00    -0.053 A  
ENDBRANCH   6   7
BRANCH   6  12
HETATM   12  O   UNL     1      -9.244   6.578  71.518  1.00  0.00    -0.145 OA 
BRANCH  12  13
HETATM   13  C   UNL     1      -9.481   7.784  70.888  1.00  0.00    -0.160 A  
HETATM   14  C   UNL     1      -8.827   9.550  69.355  1.00  0.00    -0.172 A  
HETATM   15  C   UNL     1      -8.597   8.308  69.936  1.00  0.00    -0.125 A  
HETATM   16  C   UNL     1      -9.959  10.279  69.702  1.00  0.00    -0.240 A  
HETATM   17  C   UNL     1     -10.899   9.758  70.595  1.00  0.00    -0.396 A  
HETATM   18  C   UNL     1     -12.050  10.502  70.897  1.00  0.00    -0.487 A  
HETATM   19  C   UNL     1     -13.034   9.994  71.741  1.00  0.00    -0.560 A  
HETATM   20  C   UNL     1     -12.873   8.729  72.293  1.00  0.00    -0.465 A  
HETATM   21  C   UNL     1     -11.715   7.984  72.025  1.00  0.00    -0.375 A  
HETATM   22  C   UNL     1     -10.690   8.481  71.184  1.00  0.00    -0.290 A  
ENDBRANCH  12  13
ENDBRANCH   6  12
ENDBRANCH   5   6
ENDBRANCH   4   5
ENDBRANCH   2   4
TORSDOF 6
ENDMDL
MODEL      272
REMARK 921   NORMALIZED FREE ENERGY PREDICTED BY IDOCK:   -2.69 KCAL/MOL
REMARK 922        TOTAL FREE ENERGY PREDICTED BY IDOCK:   -4.54 KCAL/MOL
REMARK 923 INTER-LIGAND FREE ENERGY PREDICTED BY IDOCK:   -3.75 KCAL/MOL
REMARK 924 INTRA-LIGAND FREE ENERGY PREDICTED BY IDOCK:   -0.78 KCAL/MOL
REMARK 927      BINDING AFFINITY PREDICTED BY RF-SCORE:    0.00 PKD
ROOT
HETATM    1  C   UNL     1      -7.742  10.491  69.262  1.00  0.00    -0.144 C  
HETATM    2  N   UNL     1      -9.076   9.997  68.922  1.00  0.00    -0.150 NA 
HETATM    3  H   UNL     1      -9.520  10.574  68.208  1.00  0.00     0.000 HD 
ENDROOT
BRANCH   2   4
HETATM    4  C   UNL     1      -9.026   8.586  68.524  1.00  0.00    -0.139 C  
BRANCH   4   5
HETATM    5  C   UNL     1     -10.196   7.751  69.073  1.00  0.00    -0.213 C  
BRANCH   5   6
HETATM    6  C   UNL     1      -9.830   6.508  69.903  1.00  0.00    -0.167 C  
BRANCH   6   7
HETATM    7  C   UNL     1     -10.120   6.694  71.381  1.00  0.00    -0.190 A  
HETATM    8  C   UNL     1     -10.770   7.663  73.566  1.00  0.00    -0.143 A  
HETATM    9  S   UNL     1     -10.685   8.217  71.953  1.00  0.00    -0.308 SA 
HETATM   10  C   UNL     1      -9.981   5.798  72.426  1.00  0.00    -0.194 A  
HETATM   11  C   UNL     1     -10.359   6.355  73.684  1.00  0.00    -0.301 A  
ENDBRANCH   6   7
BRANCH   6  12
HETATM   12  O   UNL     1     -10.635   5.379  69.467  1.00  0.00    -0.292 OA 
BRANCH  12  13
HETATM   13  C   UNL     1      -9.960   4.240  69.074  1.00  0.00     0.026 A  
HETATM   14  C   UNL     1      -8.795   2.172  69.585  1.00  0.00    -0.133 A  
HETATM   15  C   UNL     1      -9.520   3.284  69.997  1.00  0.00    -0.231 A  
HETATM   16  C   UNL     1      -8.517   1.988  68.235  1.00  0.00    -0.085 A  
HETATM   17  C   UNL     1      -8.999   2.884  67.276  1.00  0.00    -0.185 A  
HETATM   18  C   UNL     1      -8.733   2.651  65.919  1.00  0.00    -0.127 A  
HETATM   19  C   UNL     1      -9.241   3.491  64.931  1.00  0.00    -0.144 A  
HETATM   20  C   UNL     1     -10.025   4.578  65.298  1.00  0.00    -0.178 A  
HETATM   21  C   UNL     1     -10.276   4.843  66.652  1.00  0.00    -0.291 A  
HETATM   22  C   UNL     1      -9.760   4.015  67.679  1.00  0.00    -0.164 A  
ENDBRANCH  12  13
ENDBRANCH   6  12
ENDBRANCH   5   6
ENDBRANCH   4   5
ENDBRANCH   2   4
TORSDOF 6
ENDMDL
MODEL      273
REMARK 921   NORMALIZED FREE ENERGY PREDICTED BY IDOCK:   -2.68 KCAL/MOL
REMARK 922        TOTAL FREE ENERGY PREDICTED BY IDOCK:   -4.52 KCAL/MOL
REMARK 923 INTER-LIGAND FREE ENERGY PREDICTED BY IDOCK:   -4.19 KCAL/MOL
REMARK 924 INTRA-LIGAND FREE ENERGY PREDICTED BY IDOCK:   -0.33 KCAL/MOL
REMARK 927      BINDING AFFINITY PREDICTED BY RF-SCORE:    0.00 PKD
ROOT
HETATM    1  C   UNL     1      -7.800   6.025  65.472  1.00  0.00    -0.105 C  
HETATM    2  N   UNL     1      -8.762   5.401  66.379  1.00  0.00    -0.118 NA 
HETATM    3  H   UNL     1      -8.916   4.420  66.148  1.00  0.00     0.000 HD 
ENDROOT
BRANCH   2   4
HETATM    4  C   UNL     1      -8.350   5.570  67.777  1.00  0.00    -0.099 C  
BRANCH   4   5
HETATM    5  C   UNL     1      -9.236   6.550  68.565  1.00  0.00    -0.125 C  
BRANCH   5   6
HETATM    6  C   UNL     1      -8.545   7.797  69.142  1.00  0.00    -0.138 C  
BRANCH   6   7
HETATM    7  C   UNL     1      -9.104   9.086  68.566  1.00  0.00    -0.133 A  
HETATM    8  C   UNL     1     -10.322  10.723  67.162  1.00  0.00    -0.224 A  
HETATM    9  S   UNL     1     -10.131   9.026  67.185  1.00  0.00    -0.266 SA 
HETATM   10  C   UNL     1      -8.901  10.394  68.971  1.00  0.00    -0.176 A  
HETATM   11  C   UNL     1      -9.606  11.336  68.165  1.00  0.00    -0.186 A  
ENDBRANCH   6   7
BRANCH   6  12
HETATM   12  O   UNL     1      -8.771   7.859  70.576  1.00  0.00    -0.133 OA 
BRANCH  12  13
HETATM   13  C   UNL     1     -10.015   7.471  71.034  1.00  0.00    -0.186 A  
HETATM   14  C   UNL     1     -12.415   7.796  71.214  1.00  0.00    -0.301 A  
HETATM   15  C   UNL     1     -11.180   8.172  70.697  1.00  0.00    -0.268 A  
HETATM   16  C   UNL     1     -12.507   6.697  72.060  1.00  0.00    -0.288 A  
HETATM   17  C   UNL     1     -11.377   5.931  72.363  1.00  0.00    -0.358 A  
HETATM   18  C   UNL     1     -11.509   4.806  73.191  1.00  0.00    -0.348 A  
HETATM   19  C   UNL     1     -10.417   3.989  73.473  1.00  0.00    -0.259 A  
HETATM   20  C   UNL     1      -9.178   4.292  72.924  1.00  0.00    -0.129 A  
HETATM   21  C   UNL     1      -9.022   5.430  72.118  1.00  0.00    -0.140 A  
HETATM   22  C   UNL     1     -10.110   6.289  71.828  1.00  0.00    -0.211 A  
ENDBRANCH  12  13
ENDBRANCH   6  12
ENDBRANCH   5   6
ENDBRANCH   4   5
ENDBRANCH   2   4
TORSDOF 6
ENDMDL
MODEL      274
REMARK 921   NORMALIZED FREE ENERGY PREDICTED BY IDOCK:   -2.67 KCAL/MOL
REMARK 922        TOTAL FREE ENERGY PREDICTED BY IDOCK:   -4.50 KCAL/MOL
REMARK 923 INTER-LIGAND FREE ENERGY PREDICTED BY IDOCK:   -4.24 KCAL/MOL
REMARK 924 INTRA-LIGAND FREE ENERGY PREDICTED BY IDOCK:   -0.26 KCAL/MOL
REMARK 927      BINDING AFFINITY PREDICTED BY RF-SCORE:    0.00 PKD
ROOT
HETATM    1  C   UNL     1      -9.338   5.746  69.941  1.00  0.00    -0.148 C  
HETATM    2  N   UNL     1     -10.328   6.823  69.953  1.00  0.00    -0.197 NA 
HETATM    3  H   UNL     1     -10.223   7.421  70.773  1.00  0.00     0.000 HD 
ENDROOT
BRANCH   2   4
HETATM    4  C   UNL     1     -10.275   7.596  68.708  1.00  0.00    -0.199 C  
BRANCH   4   5
HETATM    5  C   UNL     1      -9.986   9.091  68.924  1.00  0.00    -0.197 C  
BRANCH   5   6
HETATM    6  C   UNL     1     -11.047  10.083  68.415  1.00  0.00    -0.182 C  
BRANCH   6   7
HETATM    7  C   UNL     1     -11.775  10.783  69.548  1.00  0.00    -0.312 A  
HETATM    8  C   UNL     1     -13.096  11.240  71.593  1.00  0.00    -0.408 A  
HETATM    9  S   UNL     1     -12.573   9.847  70.754  1.00  0.00    -0.196 SA 
HETATM   10  C   UNL     1     -11.941  12.136  69.787  1.00  0.00    -0.372 A  
HETATM   11  C   UNL     1     -12.698  12.399  70.967  1.00  0.00    -0.315 A  
ENDBRANCH   6   7
BRANCH   6  12
HETATM   12  O   UNL     1     -10.401  11.127  67.637  1.00  0.00    -0.182 OA 
BRANCH  12  13
HETATM   13  C   UNL     1      -9.040  11.012  67.436  1.00  0.00    -0.141 A  
HETATM   14  C   UNL     1      -6.747  11.262  68.194  1.00  0.00    -0.058 A  
HETATM   15  C   UNL     1      -8.114  11.333  68.436  1.00  0.00    -0.143 A  
HETATM   16  C   UNL     1      -6.284  10.846  66.950  1.00  0.00    -0.087 A  
HETATM   17  C   UNL     1      -7.177  10.451  65.950  1.00  0.00    -0.135 A  
HETATM   18  C   UNL     1      -6.678  10.001  64.718  1.00  0.00    -0.127 A  
HETATM   19  C   UNL     1      -7.534   9.550  63.717  1.00  0.00    -0.116 A  
HETATM   20  C   UNL     1      -8.905   9.544  63.943  1.00  0.00    -0.240 A  
HETATM   21  C   UNL     1      -9.422  10.018  65.157  1.00  0.00    -0.331 A  
HETATM   22  C   UNL     1      -8.578  10.498  66.188  1.00  0.00    -0.155 A  
ENDBRANCH  12  13
ENDBRANCH   6  12
ENDBRANCH   5   6
ENDBRANCH   4   5
ENDBRANCH   2   4
TORSDOF 6
ENDMDL
MODEL      275
REMARK 921   NORMALIZED FREE ENERGY PREDICTED BY IDOCK:   -2.66 KCAL/MOL
REMARK 922        TOTAL FREE ENERGY PREDICTED BY IDOCK:   -4.49 KCAL/MOL
REMARK 923 INTER-LIGAND FREE ENERGY PREDICTED BY IDOCK:   -3.42 KCAL/MOL
REMARK 924 INTRA-LIGAND FREE ENERGY PREDICTED BY IDOCK:   -1.07 KCAL/MOL
REMARK 927      BINDING AFFINITY PREDICTED BY RF-SCORE:    0.00 PKD
ROOT
HETATM    1  C   UNL     1     -12.188  10.627  70.178  1.00  0.00    -0.320 C  
HETATM    2  N   UNL     1     -12.632   9.577  71.094  1.00  0.00    -0.386 NA 
HETATM    3  H   UNL     1     -13.164   8.855  70.610  1.00  0.00     0.000 HD 
ENDROOT
BRANCH   2   4
HETATM    4  C   UNL     1     -11.497   9.011  71.831  1.00  0.00    -0.370 C  
BRANCH   4   5
HETATM    5  C   UNL     1     -11.148   7.573  71.413  1.00  0.00    -0.262 C  
BRANCH   5   6
HETATM    6  C   UNL     1      -9.818   7.371  70.667  1.00  0.00    -0.179 C  
BRANCH   6   7
HETATM    7  C   UNL     1     -10.022   6.979  69.214  1.00  0.00    -0.162 A  
HETATM    8  C   UNL     1      -9.992   5.751  67.064  1.00  0.00    -0.165 A  
HETATM    9  S   UNL     1      -9.399   5.479  68.642  1.00  0.00    -0.130 SA 
HETATM   10  C   UNL     1     -10.647   7.673  68.193  1.00  0.00    -0.187 A  
HETATM   11  C   UNL     1     -10.634   6.963  66.956  1.00  0.00    -0.403 A  
ENDBRANCH   6   7
BRANCH   6  12
HETATM   12  O   UNL     1      -9.075   8.620  70.652  1.00  0.00    -0.148 OA 
BRANCH  12  13
HETATM   13  C   UNL     1      -7.785   8.580  70.161  1.00  0.00    -0.086 A  
HETATM   14  C   UNL     1      -5.545   7.645  70.136  1.00  0.00    -0.023 A  
HETATM   15  C   UNL     1      -6.854   7.633  70.604  1.00  0.00    -0.046 A  
HETATM   16  C   UNL     1      -5.152   8.593  69.198  1.00  0.00    -0.035 A  
HETATM   17  C   UNL     1      -6.072   9.510  68.680  1.00  0.00    -0.043 A  
HETATM   18  C   UNL     1      -5.654  10.431  67.708  1.00  0.00    -0.044 A  
HETATM   19  C   UNL     1      -6.552  11.325  67.131  1.00  0.00    -0.106 A  
HETATM   20  C   UNL     1      -7.885  11.302  67.524  1.00  0.00    -0.123 A  
HETATM   21  C   UNL     1      -8.313  10.408  68.516  1.00  0.00    -0.124 A  
HETATM   22  C   UNL     1      -7.419   9.499  69.133  1.00  0.00    -0.074 A  
ENDBRANCH  12  13
ENDBRANCH   6  12
ENDBRANCH   5   6
ENDBRANCH   4   5
ENDBRANCH   2   4
TORSDOF 6
ENDMDL
MODEL      276
REMARK 921   NORMALIZED FREE ENERGY PREDICTED BY IDOCK:   -2.64 KCAL/MOL
REMARK 922        TOTAL FREE ENERGY PREDICTED BY IDOCK:   -4.47 KCAL/MOL
REMARK 923 INTER-LIGAND FREE ENERGY PREDICTED BY IDOCK:   -3.77 KCAL/MOL
REMARK 924 INTRA-LIGAND FREE ENERGY PREDICTED BY IDOCK:   -0.70 KCAL/MOL
REMARK 927      BINDING AFFINITY PREDICTED BY RF-SCORE:    0.00 PKD
ROOT
HETATM    1  C   UNL     1      -7.129   3.868  66.582  1.00  0.00    -0.060 C  
HETATM    2  N   UNL     1      -8.308   4.389  67.271  1.00  0.00    -0.100 NA 
HETATM    3  H   UNL     1      -8.828   3.648  67.741  1.00  0.00     0.000 HD 
ENDROOT
BRANCH   2   4
HETATM    4  C   UNL     1      -7.940   5.465  68.199  1.00  0.00    -0.095 C  
BRANCH   4   5
HETATM    5  C   UNL     1      -7.584   6.787  67.498  1.00  0.00    -0.106 C  
BRANCH   5   6
HETATM    6  C   UNL     1      -8.362   8.038  67.941  1.00  0.00    -0.129 C  
BRANCH   6   7
HETATM    7  C   UNL     1      -8.213   8.316  69.425  1.00  0.00    -0.117 A  
HETATM    8  C   UNL     1      -7.275   8.624  71.697  1.00  0.00    -0.091 A  
HETATM    9  S   UNL     1      -6.660   8.199  70.162  1.00  0.00    -0.036 SA 
HETATM   10  C   UNL     1      -9.176   8.649  70.361  1.00  0.00    -0.189 A  
HETATM   11  C   UNL     1      -8.635   8.830  71.669  1.00  0.00    -0.228 A  
ENDBRANCH   6   7
BRANCH   6  12
HETATM   12  O   UNL     1      -7.838   9.205  67.251  1.00  0.00    -0.098 OA 
BRANCH  12  13
HETATM   13  C   UNL     1      -8.664   9.814  66.328  1.00  0.00    -0.139 A  
HETATM   14  C   UNL     1      -9.600   9.982  64.093  1.00  0.00    -0.274 A  
HETATM   15  C   UNL     1      -8.805   9.322  65.024  1.00  0.00    -0.238 A  
HETATM   16  C   UNL     1     -10.285  11.135  64.461  1.00  0.00    -0.383 A  
HETATM   17  C   UNL     1     -10.225  11.616  65.772  1.00  0.00    -0.281 A  
HETATM   18  C   UNL     1     -10.956  12.761  66.121  1.00  0.00    -0.310 A  
HETATM   19  C   UNL     1     -10.963  13.240  67.429  1.00  0.00    -0.287 A  
HETATM   20  C   UNL     1     -10.233  12.571  68.404  1.00  0.00    -0.230 A  
HETATM   21  C   UNL     1      -9.472  11.442  68.065  1.00  0.00    -0.181 A  
HETATM   22  C   UNL     1      -9.432  10.942  66.741  1.00  0.00    -0.200 A  
ENDBRANCH  12  13
ENDBRANCH   6  12
ENDBRANCH   5   6
ENDBRANCH   4   5
ENDBRANCH   2   4
TORSDOF 6
ENDMDL
MODEL      277
REMARK 921   NORMALIZED FREE ENERGY PREDICTED BY IDOCK:   -2.64 KCAL/MOL
REMARK 922        TOTAL FREE ENERGY PREDICTED BY IDOCK:   -4.46 KCAL/MOL
REMARK 923 INTER-LIGAND FREE ENERGY PREDICTED BY IDOCK:   -3.76 KCAL/MOL
REMARK 924 INTRA-LIGAND FREE ENERGY PREDICTED BY IDOCK:   -0.70 KCAL/MOL
REMARK 927      BINDING AFFINITY PREDICTED BY RF-SCORE:    0.00 PKD
ROOT
HETATM    1  C   UNL     1      -6.141   8.795  63.507  1.00  0.00    -0.081 C  
HETATM    2  N   UNL     1      -6.497  10.077  64.113  1.00  0.00    -0.127 NA 
HETATM    3  H   UNL     1      -7.187  10.579  63.555  1.00  0.00     0.000 HD 
ENDROOT
BRANCH   2   4
HETATM    4  C   UNL     1      -6.950   9.895  65.497  1.00  0.00    -0.110 C  
BRANCH   4   5
HETATM    5  C   UNL     1      -6.548  11.048  66.432  1.00  0.00    -0.126 C  
BRANCH   5   6
HETATM    6  C   UNL     1      -7.471  11.322  67.631  1.00  0.00    -0.101 C  
BRANCH   6   7
HETATM    7  C   UNL     1      -6.908  10.777  68.932  1.00  0.00    -0.069 A  
HETATM    8  C   UNL     1      -5.591  10.493  71.010  1.00  0.00    -0.072 A  
HETATM    9  S   UNL     1      -5.672  11.649  69.755  1.00  0.00    -0.110 SA 
HETATM   10  C   UNL     1      -7.221   9.611  69.608  1.00  0.00    -0.084 A  
HETATM   11  C   UNL     1      -6.465   9.450  70.807  1.00  0.00    -0.086 A  
ENDBRANCH   6   7
BRANCH   6  12
HETATM   12  O   UNL     1      -7.615  12.756  67.817  1.00  0.00    -0.114 OA 
BRANCH  12  13
HETATM   13  C   UNL     1      -8.751  13.347  67.300  1.00  0.00    -0.218 A  
HETATM   14  C   UNL     1     -11.053  13.229  66.537  1.00  0.00    -0.313 A  
HETATM   15  C   UNL     1      -9.938  12.628  67.110  1.00  0.00    -0.217 A  
HETATM   16  C   UNL     1     -11.005  14.568  66.166  1.00  0.00    -0.322 A  
HETATM   17  C   UNL     1      -9.862  15.336  66.405  1.00  0.00    -0.295 A  
HETATM   18  C   UNL     1      -9.858  16.694  66.053  1.00  0.00    -0.335 A  
HETATM   19  C   UNL     1      -8.758  17.504  66.323  1.00  0.00    -0.226 A  
HETATM   20  C   UNL     1      -7.646  16.957  66.953  1.00  0.00    -0.250 A  
HETATM   21  C   UNL     1      -7.622  15.594  67.285  1.00  0.00    -0.247 A  
HETATM   22  C   UNL     1      -8.720  14.742  67.008  1.00  0.00    -0.258 A  
ENDBRANCH  12  13
ENDBRANCH   6  12
ENDBRANCH   5   6
ENDBRANCH   4   5
ENDBRANCH   2   4
TORSDOF 6
ENDMDL
MODEL      278
REMARK 921   NORMALIZED FREE ENERGY PREDICTED BY IDOCK:   -2.63 KCAL/MOL
REMARK 922        TOTAL FREE ENERGY PREDICTED BY IDOCK:   -4.45 KCAL/MOL
REMARK 923 INTER-LIGAND FREE ENERGY PREDICTED BY IDOCK:   -4.36 KCAL/MOL
REMARK 924 INTRA-LIGAND FREE ENERGY PREDICTED BY IDOCK:   -0.09 KCAL/MOL
REMARK 927      BINDING AFFINITY PREDICTED BY RF-SCORE:    0.00 PKD
ROOT
HETATM    1  C   UNL     1      -6.288  10.012  70.114  1.00  0.00    -0.093 C  
HETATM    2  N   UNL     1      -6.828  11.369  70.064  1.00  0.00    -0.420 NA 
HETATM    3  H   UNL     1      -6.107  12.053  69.833  1.00  0.00     0.000 HD 
ENDROOT
BRANCH   2   4
HETATM    4  C   UNL     1      -7.965  11.448  69.141  1.00  0.00     0.055 C  
BRANCH   4   5
HETATM    5  C   UNL     1      -7.710  12.357  67.927  1.00  0.00    -0.135 C  
BRANCH   5   6
HETATM    6  C   UNL     1      -8.949  12.887  67.185  1.00  0.00    -0.219 C  
BRANCH   6   7
HETATM    7  C   UNL     1     -10.147  13.049  68.103  1.00  0.00    -0.237 A  
HETATM    8  C   UNL     1     -12.272  12.667  69.319  1.00  0.00    -0.038 A  
HETATM    9  S   UNL     1     -11.352  11.819  68.156  1.00  0.00    -0.311 SA 
HETATM   10  C   UNL     1     -10.476  14.095  68.948  1.00  0.00    -0.229 A  
HETATM   11  C   UNL     1     -11.697  13.872  69.652  1.00  0.00    -0.370 A  
ENDBRANCH   6   7
BRANCH   6  12
HETATM   12  O   UNL     1      -8.666  14.207  66.646  1.00  0.00    -0.169 OA 
BRANCH  12  13
HETATM   13  C   UNL     1      -9.697  14.856  65.997  1.00  0.00    -0.328 A  
HETATM   14  C   UNL     1     -11.663  14.837  64.572  1.00  0.00    -0.398 A  
HETATM   15  C   UNL     1     -10.665  14.160  65.263  1.00  0.00    -0.374 A  
HETATM   16  C   UNL     1     -11.721  16.225  64.622  1.00  0.00     0.073 A  
HETATM   17  C   UNL     1     -10.815  16.951  65.402  1.00  0.00    -0.113 A  
HETATM   18  C   UNL     1     -10.922  18.349  65.462  1.00  0.00     0.329 A  
HETATM   19  C   UNL     1     -10.072  19.101  66.267  1.00  0.00    -0.499 A  
HETATM   20  C   UNL     1      -9.102  18.457  67.025  1.00  0.00    -0.274 A  
HETATM   21  C   UNL     1      -8.961  17.063  66.953  1.00  0.00    -0.248 A  
HETATM   22  C   UNL     1      -9.800  16.273  66.130  1.00  0.00    -0.358 A  
ENDBRANCH  12  13
ENDBRANCH   6  12
ENDBRANCH   5   6
ENDBRANCH   4   5
ENDBRANCH   2   4
TORSDOF 6
ENDMDL
MODEL      279
REMARK 921   NORMALIZED FREE ENERGY PREDICTED BY IDOCK:   -2.61 KCAL/MOL
REMARK 922        TOTAL FREE ENERGY PREDICTED BY IDOCK:   -4.43 KCAL/MOL
REMARK 923 INTER-LIGAND FREE ENERGY PREDICTED BY IDOCK:   -5.26 KCAL/MOL
REMARK 924 INTRA-LIGAND FREE ENERGY PREDICTED BY IDOCK:    0.83 KCAL/MOL
REMARK 927      BINDING AFFINITY PREDICTED BY RF-SCORE:    0.00 PKD
ROOT
HETATM    1  C   UNL     1     -12.518  12.049  63.353  1.00  0.00    -0.509 C  
HETATM    2  N   UNL     1     -12.324  13.427  63.800  1.00  0.00    -0.704 NA 
HETATM    3  H   UNL     1     -13.083  14.034  63.490  1.00  0.00     0.000 HD 
ENDROOT
BRANCH   2   4
HETATM    4  C   UNL     1     -12.143  13.486  65.255  1.00  0.00    -0.411 C  
BRANCH   4   5
HETATM    5  C   UNL     1     -10.873  12.771  65.746  1.00  0.00    -0.299 C  
BRANCH   5   6
HETATM    6  C   UNL     1     -11.073  11.475  66.550  1.00  0.00    -0.282 C  
BRANCH   6   7
HETATM    7  C   UNL     1     -10.057  10.407  66.189  1.00  0.00    -0.237 A  
HETATM    8  C   UNL     1      -8.886   8.240  65.927  1.00  0.00    -0.160 A  
HETATM    9  S   UNL     1     -10.353   8.768  66.626  1.00  0.00    -0.154 SA 
HETATM   10  C   UNL     1      -8.839  10.532  65.544  1.00  0.00    -0.200 A  
HETATM   11  C   UNL     1      -8.167   9.282  65.390  1.00  0.00    -0.129 A  
ENDBRANCH   6   7
BRANCH   6  12
HETATM   12  O   UNL     1     -10.894  11.749  67.966  1.00  0.00    -0.195 OA 
BRANCH  12  13
HETATM   13  C   UNL     1      -9.675  11.412  68.522  1.00  0.00    -0.197 A  
HETATM   14  C   UNL     1      -7.281  11.738  68.761  1.00  0.00    -0.113 A  
HETATM   15  C   UNL     1      -8.507  12.128  68.233  1.00  0.00    -0.176 A  
HETATM   16  C   UNL     1      -7.209  10.636  69.606  1.00  0.00    -0.139 A  
HETATM   17  C   UNL     1      -8.365   9.940  69.974  1.00  0.00    -0.191 A  
HETATM   18  C   UNL     1      -8.265   8.855  70.857  1.00  0.00    -0.207 A  
HETATM   19  C   UNL     1      -9.398   8.170  71.287  1.00  0.00    -0.195 A  
HETATM   20  C   UNL     1     -10.649   8.569  70.833  1.00  0.00    -0.252 A  
HETATM   21  C   UNL     1     -10.765   9.632  69.926  1.00  0.00    -0.283 A  
HETATM   22  C   UNL     1      -9.629  10.337  69.458  1.00  0.00    -0.225 A  
ENDBRANCH  12  13
ENDBRANCH   6  12
ENDBRANCH   5   6
ENDBRANCH   4   5
ENDBRANCH   2   4
TORSDOF 6
ENDMDL
MODEL      280
REMARK 921   NORMALIZED FREE ENERGY PREDICTED BY IDOCK:   -2.59 KCAL/MOL
REMARK 922        TOTAL FREE ENERGY PREDICTED BY IDOCK:   -4.39 KCAL/MOL
REMARK 923 INTER-LIGAND FREE ENERGY PREDICTED BY IDOCK:   -4.25 KCAL/MOL
REMARK 924 INTRA-LIGAND FREE ENERGY PREDICTED BY IDOCK:   -0.14 KCAL/MOL
REMARK 927      BINDING AFFINITY PREDICTED BY RF-SCORE:    0.00 PKD
ROOT
HETATM    1  C   UNL     1     -11.257   4.924  73.283  1.00  0.00    -0.345 C  
HETATM    2  N   UNL     1     -11.144   5.601  71.993  1.00  0.00    -0.250 NA 
HETATM    3  H   UNL     1     -10.932   6.593  72.105  1.00  0.00     0.000 HD 
ENDROOT
BRANCH   2   4
HETATM    4  C   UNL     1     -10.160   4.932  71.134  1.00  0.00    -0.207 C  
BRANCH   4   5
HETATM    5  C   UNL     1      -9.892   5.672  69.813  1.00  0.00    -0.245 C  
BRANCH   5   6
HETATM    6  C   UNL     1     -10.278   7.160  69.761  1.00  0.00    -0.208 C  
BRANCH   6   7
HETATM    7  C   UNL     1      -9.073   8.075  69.884  1.00  0.00    -0.145 A  
HETATM    8  C   UNL     1      -6.757   8.933  70.064  1.00  0.00    -0.043 A  
HETATM    9  S   UNL     1      -7.491   7.396  69.940  1.00  0.00    -0.086 SA 
HETATM   10  C   UNL     1      -9.020   9.454  69.987  1.00  0.00    -0.234 A  
HETATM   11  C   UNL     1      -7.685   9.948  70.087  1.00  0.00    -0.188 A  
ENDBRANCH   6   7
BRANCH   6  12
HETATM   12  O   UNL     1     -10.890   7.460  68.478  1.00  0.00    -0.143 OA 
BRANCH  12  13
HETATM   13  C   UNL     1     -10.079   7.388  67.362  1.00  0.00    -0.211 A  
HETATM   14  C   UNL     1      -8.608   6.156  65.875  1.00  0.00    -0.147 A  
HETATM   15  C   UNL     1      -9.464   6.193  66.969  1.00  0.00    -0.141 A  
HETATM   16  C   UNL     1      -8.371   7.313  65.141  1.00  0.00    -0.081 A  
HETATM   17  C   UNL     1      -9.022   8.509  65.460  1.00  0.00    -0.182 A  
HETATM   18  C   UNL     1      -8.790   9.650  64.678  1.00  0.00    -0.253 A  
HETATM   19  C   UNL     1      -9.458  10.845  64.932  1.00  0.00    -0.277 A  
HETATM   20  C   UNL     1     -10.371  10.906  65.978  1.00  0.00    -0.304 A  
HETATM   21  C   UNL     1     -10.593   9.783  66.788  1.00  0.00    -0.208 A  
HETATM   22  C   UNL     1      -9.915   8.559  66.564  1.00  0.00    -0.350 A  
ENDBRANCH  12  13
ENDBRANCH   6  12
ENDBRANCH   5   6
ENDBRANCH   4   5
ENDBRANCH   2   4
TORSDOF 6
ENDMDL
MODEL      281
REMARK 921   NORMALIZED FREE ENERGY PREDICTED BY IDOCK:   -2.58 KCAL/MOL
REMARK 922        TOTAL FREE ENERGY PREDICTED BY IDOCK:   -4.38 KCAL/MOL
REMARK 923 INTER-LIGAND FREE ENERGY PREDICTED BY IDOCK:   -3.59 KCAL/MOL
REMARK 924 INTRA-LIGAND FREE ENERGY PREDICTED BY IDOCK:   -0.79 KCAL/MOL
REMARK 927      BINDING AFFINITY PREDICTED BY RF-SCORE:    0.00 PKD
ROOT
HETATM    1  C   UNL     1      -9.000   2.855  69.760  1.00  0.00    -0.104 C  
HETATM    2  N   UNL     1      -8.339   3.667  70.780  1.00  0.00    -0.068 NA 
HETATM    3  H   UNL     1      -7.341   3.467  70.833  1.00  0.00     0.000 HD 
ENDROOT
BRANCH   2   4
HETATM    4  C   UNL     1      -8.594   5.095  70.560  1.00  0.00    -0.118 C  
BRANCH   4   5
HETATM    5  C   UNL     1      -9.705   5.371  69.534  1.00  0.00    -0.238 C  
BRANCH   5   6
HETATM    6  C   UNL     1      -9.314   6.188  68.291  1.00  0.00    -0.116 C  
BRANCH   6   7
HETATM    7  C   UNL     1      -8.731   5.322  67.189  1.00  0.00    -0.107 A  
HETATM    8  C   UNL     1      -8.484   3.796  65.254  1.00  0.00    -0.105 A  
HETATM    9  S   UNL     1      -9.787   4.468  66.129  1.00  0.00    -0.249 SA 
HETATM   10  C   UNL     1      -7.408   5.063  66.878  1.00  0.00    -0.086 A  
HETATM   11  C   UNL     1      -7.266   4.187  65.760  1.00  0.00    -0.072 A  
ENDBRANCH   6   7
BRANCH   6  12
HETATM   12  O   UNL     1     -10.497   6.819  67.732  1.00  0.00    -0.178 OA 
BRANCH  12  13
HETATM   13  C   UNL     1     -10.373   8.128  67.311  1.00  0.00    -0.303 A  
HETATM   14  C   UNL     1      -9.746   9.778  65.643  1.00  0.00    -0.357 A  
HETATM   15  C   UNL     1      -9.916   8.453  66.027  1.00  0.00     0.023 A  
HETATM   16  C   UNL     1     -10.052  10.802  66.531  1.00  0.00    -0.277 A  
HETATM   17  C   UNL     1     -10.578  10.519  67.796  1.00  0.00    -0.285 A  
HETATM   18  C   UNL     1     -10.912  11.576  68.656  1.00  0.00    -0.270 A  
HETATM   19  C   UNL     1     -11.485  11.336  69.902  1.00  0.00    -0.373 A  
HETATM   20  C   UNL     1     -11.732  10.027  70.298  1.00  0.00    -0.327 A  
HETATM   21  C   UNL     1     -11.376   8.958  69.463  1.00  0.00     0.206 A  
HETATM   22  C   UNL     1     -10.776   9.170  68.198  1.00  0.00    -0.186 A  
ENDBRANCH  12  13
ENDBRANCH   6  12
ENDBRANCH   5   6
ENDBRANCH   4   5
ENDBRANCH   2   4
TORSDOF 6
ENDMDL
MODEL      282
REMARK 921   NORMALIZED FREE ENERGY PREDICTED BY IDOCK:   -2.57 KCAL/MOL
REMARK 922        TOTAL FREE ENERGY PREDICTED BY IDOCK:   -4.38 KCAL/MOL
REMARK 923 INTER-LIGAND FREE ENERGY PREDICTED BY IDOCK:   -3.67 KCAL/MOL
REMARK 924 INTRA-LIGAND FREE ENERGY PREDICTED BY IDOCK:   -0.70 KCAL/MOL
REMARK 927      BINDING AFFINITY PREDICTED BY RF-SCORE:    0.00 PKD
ROOT
HETATM    1  C   UNL     1      -8.273   5.914  65.908  1.00  0.00    -0.127 C  
HETATM    2  N   UNL     1      -9.327   5.050  66.436  1.00  0.00    -0.137 NA 
HETATM    3  H   UNL     1      -8.944   4.204  66.859  1.00  0.00     0.000 HD 
ENDROOT
BRANCH   2   4
HETATM    4  C   UNL     1     -10.185   5.783  67.374  1.00  0.00    -0.200 C  
BRANCH   4   5
HETATM    5  C   UNL     1      -9.419   6.398  68.557  1.00  0.00    -0.120 C  
BRANCH   5   6
HETATM    6  C   UNL     1     -10.108   7.553  69.303  1.00  0.00    -0.188 C  
BRANCH   6   7
HETATM    7  C   UNL     1     -10.380   7.221  70.759  1.00  0.00    -0.202 A  
HETATM    8  C   UNL     1     -10.388   7.249  73.236  1.00  0.00    -0.342 A  
HETATM    9  S   UNL     1      -9.655   8.171  71.999  1.00  0.00    -0.245 SA 
HETATM   10  C   UNL     1     -11.145   6.204  71.303  1.00  0.00    -0.351 A  
HETATM   11  C   UNL     1     -11.153   6.223  72.730  1.00  0.00    -0.284 A  
ENDBRANCH   6   7
BRANCH   6  12
HETATM   12  O   UNL     1      -9.238   8.718  69.305  1.00  0.00    -0.147 OA 
BRANCH  12  13
HETATM   13  C   UNL     1      -9.104   9.405  68.115  1.00  0.00    -0.127 A  
HETATM   14  C   UNL     1      -9.960  10.111  65.955  1.00  0.00    -0.322 A  
HETATM   15  C   UNL     1     -10.136   9.459  67.171  1.00  0.00    -0.292 A  
HETATM   16  C   UNL     1      -8.752  10.738  65.674  1.00  0.00    -0.198 A  
HETATM   17  C   UNL     1      -7.723  10.765  66.620  1.00  0.00    -0.141 A  
HETATM   18  C   UNL     1      -6.529  11.438  66.321  1.00  0.00     0.033 A  
HETATM   19  C   UNL     1      -5.502  11.531  67.256  1.00  0.00    -0.079 A  
HETATM   20  C   UNL     1      -5.663  10.949  68.507  1.00  0.00    -0.043 A  
HETATM   21  C   UNL     1      -6.839  10.247  68.812  1.00  0.00    -0.058 A  
HETATM   22  C   UNL     1      -7.894  10.121  67.875  1.00  0.00    -0.101 A  
ENDBRANCH  12  13
ENDBRANCH   6  12
ENDBRANCH   5   6
ENDBRANCH   4   5
ENDBRANCH   2   4
TORSDOF 6
ENDMDL
MODEL      283
REMARK 921   NORMALIZED FREE ENERGY PREDICTED BY IDOCK:   -2.53 KCAL/MOL
REMARK 922        TOTAL FREE ENERGY PREDICTED BY IDOCK:   -4.31 KCAL/MOL
REMARK 923 INTER-LIGAND FREE ENERGY PREDICTED BY IDOCK:   -3.41 KCAL/MOL
REMARK 924 INTRA-LIGAND FREE ENERGY PREDICTED BY IDOCK:   -0.90 KCAL/MOL
REMARK 927      BINDING AFFINITY PREDICTED BY RF-SCORE:    0.00 PKD
ROOT
HETATM    1  C   UNL     1      -9.280   2.579  69.450  1.00  0.00    -0.125 C  
HETATM    2  N   UNL     1      -9.083   3.382  70.655  1.00  0.00    -0.102 NA 
HETATM    3  H   UNL     1      -8.093   3.524  70.855  1.00  0.00     0.000 HD 
ENDROOT
BRANCH   2   4
HETATM    4  C   UNL     1      -9.804   4.657  70.559  1.00  0.00    -0.231 C  
BRANCH   4   5
HETATM    5  C   UNL     1     -10.000   5.145  69.114  1.00  0.00    -0.273 C  
BRANCH   5   6
HETATM    6  C   UNL     1      -8.961   6.141  68.571  1.00  0.00    -0.115 C  
BRANCH   6   7
HETATM    7  C   UNL     1      -8.078   5.528  67.499  1.00  0.00    -0.101 A  
HETATM    8  C   UNL     1      -6.202   4.422  66.319  1.00  0.00    -0.032 A  
HETATM    9  S   UNL     1      -6.541   4.881  67.929  1.00  0.00    -0.051 SA 
HETATM   10  C   UNL     1      -8.297   5.410  66.138  1.00  0.00    -0.117 A  
HETATM   11  C   UNL     1      -7.219   4.769  65.459  1.00  0.00    -0.071 A  
ENDBRANCH   6   7
BRANCH   6  12
HETATM   12  O   UNL     1      -9.642   7.263  67.948  1.00  0.00    -0.137 OA 
BRANCH  12  13
HETATM   13  C   UNL     1      -9.142   8.524  68.206  1.00  0.00    -0.138 A  
HETATM   14  C   UNL     1      -7.960  10.096  69.630  1.00  0.00    -0.181 A  
HETATM   15  C   UNL     1      -8.407   8.807  69.364  1.00  0.00    -0.117 A  
HETATM   16  C   UNL     1      -8.223  11.121  68.727  1.00  0.00    -0.135 A  
HETATM   17  C   UNL     1      -8.892  10.863  67.527  1.00  0.00    -0.133 A  
HETATM   18  C   UNL     1      -9.110  11.911  66.620  1.00  0.00    -0.203 A  
HETATM   19  C   UNL     1      -9.726  11.683  65.392  1.00  0.00    -0.255 A  
HETATM   20  C   UNL     1     -10.130  10.396  65.060  1.00  0.00    -0.379 A  
HETATM   21  C   UNL     1      -9.947   9.343  65.968  1.00  0.00    -0.352 A  
HETATM   22  C   UNL     1      -9.339   9.546  67.231  1.00  0.00    -0.161 A  
ENDBRANCH  12  13
ENDBRANCH   6  12
ENDBRANCH   5   6
ENDBRANCH   4   5
ENDBRANCH   2   4
TORSDOF 6
ENDMDL
MODEL      284
REMARK 921   NORMALIZED FREE ENERGY PREDICTED BY IDOCK:   -2.52 KCAL/MOL
REMARK 922        TOTAL FREE ENERGY PREDICTED BY IDOCK:   -4.31 KCAL/MOL
REMARK 923 INTER-LIGAND FREE ENERGY PREDICTED BY IDOCK:   -4.75 KCAL/MOL
REMARK 924 INTRA-LIGAND FREE ENERGY PREDICTED BY IDOCK:    0.44 KCAL/MOL
REMARK 927      BINDING AFFINITY PREDICTED BY RF-SCORE:    0.00 PKD
ROOT
HETATM    1  C   UNL     1     -12.730  12.035  63.320  1.00  0.00    -0.303 C  
HETATM    2  N   UNL     1     -12.659  13.306  64.038  1.00  0.00    -0.673 NA 
HETATM    3  H   UNL     1     -13.458  13.903  63.826  1.00  0.00     0.000 HD 
ENDROOT
BRANCH   2   4
HETATM    4  C   UNL     1     -12.516  13.085  65.482  1.00  0.00    -0.438 C  
BRANCH   4   5
HETATM    5  C   UNL     1     -11.094  12.680  65.904  1.00  0.00    -0.323 C  
BRANCH   5   6
HETATM    6  C   UNL     1     -10.912  11.252  66.445  1.00  0.00    -0.227 C  
BRANCH   6   7
HETATM    7  C   UNL     1     -10.020  10.406  65.554  1.00  0.00    -0.282 A  
HETATM    8  C   UNL     1      -8.553   8.606  64.692  1.00  0.00    -0.089 A  
HETATM    9  S   UNL     1      -9.357   8.937  66.162  1.00  0.00    -0.253 SA 
HETATM   10  C   UNL     1      -9.599  10.635  64.256  1.00  0.00    -0.350 A  
HETATM   11  C   UNL     1      -8.757   9.595  63.758  1.00  0.00    -0.241 A  
ENDBRANCH   6   7
BRANCH   6  12
HETATM   12  O   UNL     1     -10.263  11.302  67.744  1.00  0.00    -0.175 OA 
BRANCH  12  13
HETATM   13  C   UNL     1      -9.125  12.077  67.849  1.00  0.00    -0.183 A  
HETATM   14  C   UNL     1      -7.843  14.065  67.296  1.00  0.00    -0.143 A  
HETATM   15  C   UNL     1      -9.018  13.325  67.222  1.00  0.00    -0.217 A  
HETATM   16  C   UNL     1      -6.761  13.575  68.017  1.00  0.00    -0.138 A  
HETATM   17  C   UNL     1      -6.853  12.366  68.714  1.00  0.00    -0.092 A  
HETATM   18  C   UNL     1      -5.756  11.916  69.463  1.00  0.00    -0.080 A  
HETATM   19  C   UNL     1      -5.827  10.744  70.212  1.00  0.00    -0.103 A  
HETATM   20  C   UNL     1      -7.006  10.010  70.218  1.00  0.00    -0.153 A  
HETATM   21  C   UNL     1      -8.103  10.429  69.450  1.00  0.00    -0.161 A  
HETATM   22  C   UNL     1      -8.054  11.607  68.666  1.00  0.00    -0.121 A  
ENDBRANCH  12  13
ENDBRANCH   6  12
ENDBRANCH   5   6
ENDBRANCH   4   5
ENDBRANCH   2   4
TORSDOF 6
ENDMDL
MODEL      285
REMARK 921   NORMALIZED FREE ENERGY PREDICTED BY IDOCK:   -2.52 KCAL/MOL
REMARK 922        TOTAL FREE ENERGY PREDICTED BY IDOCK:   -4.30 KCAL/MOL
REMARK 923 INTER-LIGAND FREE ENERGY PREDICTED BY IDOCK:   -3.69 KCAL/MOL
REMARK 924 INTRA-LIGAND FREE ENERGY PREDICTED BY IDOCK:   -0.61 KCAL/MOL
REMARK 927      BINDING AFFINITY PREDICTED BY RF-SCORE:    0.00 PKD
ROOT
HETATM    1  C   UNL     1      -8.195   6.669  66.461  1.00  0.00    -0.114 C  
HETATM    2  N   UNL     1      -9.020   7.858  66.258  1.00  0.00    -0.164 NA 
HETATM    3  H   UNL     1      -8.856   8.558  66.981  1.00  0.00     0.000 HD 
ENDROOT
BRANCH   2   4
HETATM    4  C   UNL     1      -8.821   8.412  64.914  1.00  0.00     0.067 C  
BRANCH   4   5
HETATM    5  C   UNL     1      -9.087   9.924  64.826  1.00  0.00    -0.283 C  
BRANCH   5   6
HETATM    6  C   UNL     1      -8.956  10.727  66.132  1.00  0.00    -0.177 C  
BRANCH   6   7
HETATM    7  C   UNL     1      -7.571  10.617  66.743  1.00  0.00    -0.120 A  
HETATM    8  C   UNL     1      -5.695  10.181  68.301  1.00  0.00    -0.041 A  
HETATM    9  S   UNL     1      -7.394  10.016  68.347  1.00  0.00    -0.078 SA 
HETATM   10  C   UNL     1      -6.341  10.958  66.208  1.00  0.00    -0.132 A  
HETATM   11  C   UNL     1      -5.260  10.702  67.103  1.00  0.00    -0.041 A  
ENDBRANCH   6   7
BRANCH   6  12
HETATM   12  O   UNL     1      -9.170  12.138  65.857  1.00  0.00    -0.182 OA 
BRANCH  12  13
HETATM   13  C   UNL     1      -9.994  12.830  66.723  1.00  0.00    -0.237 A  
HETATM   14  C   UNL     1     -12.199  13.394  67.570  1.00  0.00    -0.231 A  
HETATM   15  C   UNL     1     -11.383  12.648  66.728  1.00  0.00    -0.373 A  
HETATM   16  C   UNL     1     -11.634  14.321  68.439  1.00  0.00    -0.354 A  
HETATM   17  C   UNL     1     -10.247  14.480  68.513  1.00  0.00    -0.240 A  
HETATM   18  C   UNL     1      -9.706  15.397  69.427  1.00  0.00    -0.273 A  
HETATM   19  C   UNL     1      -8.329  15.546  69.567  1.00  0.00    -0.206 A  
HETATM   20  C   UNL     1      -7.477  14.772  68.789  1.00  0.00    -0.133 A  
HETATM   21  C   UNL     1      -8.001  13.871  67.850  1.00  0.00    -0.160 A  
HETATM   22  C   UNL     1      -9.397  13.711  67.673  1.00  0.00    -0.215 A  
ENDBRANCH  12  13
ENDBRANCH   6  12
ENDBRANCH   5   6
ENDBRANCH   4   5
ENDBRANCH   2   4
TORSDOF 6
ENDMDL
MODEL      286
REMARK 921   NORMALIZED FREE ENERGY PREDICTED BY IDOCK:   -2.51 KCAL/MOL
REMARK 922        TOTAL FREE ENERGY PREDICTED BY IDOCK:   -4.29 KCAL/MOL
REMARK 923 INTER-LIGAND FREE ENERGY PREDICTED BY IDOCK:   -5.02 KCAL/MOL
REMARK 924 INTRA-LIGAND FREE ENERGY PREDICTED BY IDOCK:    0.73 KCAL/MOL
REMARK 927      BINDING AFFINITY PREDICTED BY RF-SCORE:    0.00 PKD
ROOT
HETATM    1  C   UNL     1     -11.466  14.225  64.734  1.00  0.00    -0.393 C  
HETATM    2  N   UNL     1     -11.210  14.306  66.171  1.00  0.00    -0.325 NA 
HETATM    3  H   UNL     1     -11.410  15.237  66.537  1.00  0.00     0.000 HD 
ENDROOT
BRANCH   2   4
HETATM    4  C   UNL     1     -11.952  13.268  66.895  1.00  0.00    -0.375 C  
BRANCH   4   5
HETATM    5  C   UNL     1     -11.098  12.043  67.260  1.00  0.00    -0.341 C  
BRANCH   5   6
HETATM    6  C   UNL     1     -10.408  12.063  68.635  1.00  0.00    -0.196 C  
BRANCH   6   7
HETATM    7  C   UNL     1     -11.214  11.336  69.697  1.00  0.00    -0.251 A  
HETATM    8  C   UNL     1     -12.859  10.795  71.467  1.00  0.00    -0.462 A  
HETATM    9  S   UNL     1     -12.468  12.170  70.533  1.00  0.00    -0.130 SA 
HETATM   10  C   UNL     1     -11.095  10.037  70.159  1.00  0.00    -0.371 A  
HETATM   11  C   UNL     1     -12.046   9.724  71.175  1.00  0.00    -0.460 A  
ENDBRANCH   6   7
BRANCH   6  12
HETATM   12  O   UNL     1      -9.131  11.374  68.548  1.00  0.00    -0.173 OA 
BRANCH  12  13
HETATM   13  C   UNL     1      -9.024  10.362  67.616  1.00  0.00    -0.138 A  
HETATM   14  C   UNL     1      -9.171   9.544  65.334  1.00  0.00    -0.306 A  
HETATM   15  C   UNL     1      -9.230  10.589  66.249  1.00  0.00    -0.192 A  
HETATM   16  C   UNL     1      -8.883   8.256  65.770  1.00  0.00    -0.194 A  
HETATM   17  C   UNL     1      -8.602   8.002  67.116  1.00  0.00    -0.124 A  
HETATM   18  C   UNL     1      -8.278   6.698  67.520  1.00  0.00    -0.122 A  
HETATM   19  C   UNL     1      -7.942   6.417  68.841  1.00  0.00    -0.110 A  
HETATM   20  C   UNL     1      -7.926   7.445  69.775  1.00  0.00    -0.125 A  
HETATM   21  C   UNL     1      -8.276   8.749  69.395  1.00  0.00    -0.108 A  
HETATM   22  C   UNL     1      -8.639   9.063  68.062  1.00  0.00    -0.129 A  
ENDBRANCH  12  13
ENDBRANCH   6  12
ENDBRANCH   5   6
ENDBRANCH   4   5
ENDBRANCH   2   4
TORSDOF 6
ENDMDL
MODEL      287
REMARK 921   NORMALIZED FREE ENERGY PREDICTED BY IDOCK:   -2.50 KCAL/MOL
REMARK 922        TOTAL FREE ENERGY PREDICTED BY IDOCK:   -4.27 KCAL/MOL
REMARK 923 INTER-LIGAND FREE ENERGY PREDICTED BY IDOCK:   -3.74 KCAL/MOL
REMARK 924 INTRA-LIGAND FREE ENERGY PREDICTED BY IDOCK:   -0.53 KCAL/MOL
REMARK 927      BINDING AFFINITY PREDICTED BY RF-SCORE:    0.00 PKD
ROOT
HETATM    1  C   UNL     1     -13.511   9.822  72.138  1.00  0.00    -0.399 C  
HETATM    2  N   UNL     1     -12.090   9.923  71.809  1.00  0.00    -0.364 NA 
HETATM    3  H   UNL     1     -11.507   9.472  72.515  1.00  0.00     0.000 HD 
ENDROOT
BRANCH   2   4
HETATM    4  C   UNL     1     -11.822   9.393  70.467  1.00  0.00    -0.151 C  
BRANCH   4   5
HETATM    5  C   UNL     1     -10.353   9.000  70.243  1.00  0.00    -0.243 C  
BRANCH   5   6
HETATM    6  C   UNL     1      -9.564   8.530  71.477  1.00  0.00    -0.228 C  
BRANCH   6   7
HETATM    7  C   UNL     1     -10.060   7.197  72.008  1.00  0.00    -0.177 A  
HETATM    8  C   UNL     1     -10.740   5.347  73.508  1.00  0.00    -0.287 A  
HETATM    9  S   UNL     1     -10.133   6.930  73.708  1.00  0.00    -0.361 SA 
HETATM   10  C   UNL     1     -10.472   6.072  71.316  1.00  0.00    -0.283 A  
HETATM   11  C   UNL     1     -10.868   5.008  72.180  1.00  0.00    -0.179 A  
ENDBRANCH   6   7
BRANCH   6  12
HETATM   12  O   UNL     1      -8.170   8.335  71.118  1.00  0.00    -0.102 OA 
BRANCH  12  13
HETATM   13  C   UNL     1      -7.728   8.939  69.958  1.00  0.00    -0.078 A  
HETATM   14  C   UNL     1      -6.933  10.884  68.740  1.00  0.00    -0.078 A  
HETATM   15  C   UNL     1      -7.323  10.279  69.930  1.00  0.00    -0.166 A  
HETATM   16  C   UNL     1      -6.923  10.148  67.560  1.00  0.00    -0.085 A  
HETATM   17  C   UNL     1      -7.254   8.789  67.561  1.00  0.00    -0.080 A  
HETATM   18  C   UNL     1      -7.198   8.065  66.361  1.00  0.00    -0.079 A  
HETATM   19  C   UNL     1      -7.469   6.700  66.331  1.00  0.00    -0.085 A  
HETATM   20  C   UNL     1      -7.799   6.044  67.511  1.00  0.00    -0.098 A  
HETATM   21  C   UNL     1      -7.889   6.759  68.715  1.00  0.00    -0.111 A  
HETATM   22  C   UNL     1      -7.635   8.151  68.773  1.00  0.00    -0.105 A  
ENDBRANCH  12  13
ENDBRANCH   6  12
ENDBRANCH   5   6
ENDBRANCH   4   5
ENDBRANCH   2   4
TORSDOF 6
ENDMDL
MODEL      288
REMARK 921   NORMALIZED FREE ENERGY PREDICTED BY IDOCK:   -2.49 KCAL/MOL
REMARK 922        TOTAL FREE ENERGY PREDICTED BY IDOCK:   -4.26 KCAL/MOL
REMARK 923 INTER-LIGAND FREE ENERGY PREDICTED BY IDOCK:   -3.96 KCAL/MOL
REMARK 924 INTRA-LIGAND FREE ENERGY PREDICTED BY IDOCK:   -0.30 KCAL/MOL
REMARK 927      BINDING AFFINITY PREDICTED BY RF-SCORE:    0.00 PKD
ROOT
HETATM    1  C   UNL     1      -9.422   9.508  67.164  1.00  0.00    -0.149 C  
HETATM    2  N   UNL     1     -10.753   8.955  67.412  1.00  0.00    -0.431 NA 
HETATM    3  H   UNL     1     -11.059   8.353  66.648  1.00  0.00     0.000 HD 
ENDROOT
BRANCH   2   4
HETATM    4  C   UNL     1     -10.799   8.259  68.703  1.00  0.00     0.077 C  
BRANCH   4   5
HETATM    5  C   UNL     1      -9.743   8.752  69.706  1.00  0.00    -0.179 C  
BRANCH   5   6
HETATM    6  C   UNL     1     -10.266   9.402  70.999  1.00  0.00    -0.299 C  
BRANCH   6   7
HETATM    7  C   UNL     1     -11.699   9.005  71.307  1.00  0.00    -0.313 A  
HETATM    8  C   UNL     1     -14.146   9.063  71.685  1.00  0.00    -0.281 A  
HETATM    9  S   UNL     1     -12.940  10.199  71.273  1.00  0.00    -0.431 SA 
HETATM   10  C   UNL     1     -12.215   7.770  71.657  1.00  0.00    -0.341 A  
HETATM   11  C   UNL     1     -13.626   7.803  71.870  1.00  0.00    -0.333 A  
ENDBRANCH   6   7
BRANCH   6  12
HETATM   12  O   UNL     1      -9.466   8.955  72.126  1.00  0.00    -0.327 OA 
BRANCH  12  13
HETATM   13  C   UNL     1      -8.310   8.256  71.839  1.00  0.00    -0.157 A  
HETATM   14  C   UNL     1      -6.045   8.152  70.970  1.00  0.00    -0.033 A  
HETATM   15  C   UNL     1      -7.180   8.884  71.302  1.00  0.00    -0.111 A  
HETATM   16  C   UNL     1      -6.017   6.779  71.191  1.00  0.00    -0.036 A  
HETATM   17  C   UNL     1      -7.100   6.129  71.790  1.00  0.00    -0.085 A  
HETATM   18  C   UNL     1      -7.026   4.749  72.034  1.00  0.00    -0.060 A  
HETATM   19  C   UNL     1      -8.062   4.076  72.676  1.00  0.00    -0.094 A  
HETATM   20  C   UNL     1      -9.187   4.783  73.082  1.00  0.00    -0.123 A  
HETATM   21  C   UNL     1      -9.289   6.157  72.820  1.00  0.00    -0.148 A  
HETATM   22  C   UNL     1      -8.259   6.866  72.154  1.00  0.00    -0.105 A  
ENDBRANCH  12  13
ENDBRANCH   6  12
ENDBRANCH   5   6
ENDBRANCH   4   5
ENDBRANCH   2   4
TORSDOF 6
ENDMDL
MODEL      289
REMARK 921   NORMALIZED FREE ENERGY PREDICTED BY IDOCK:   -2.40 KCAL/MOL
REMARK 922        TOTAL FREE ENERGY PREDICTED BY IDOCK:   -4.15 KCAL/MOL
REMARK 923 INTER-LIGAND FREE ENERGY PREDICTED BY IDOCK:   -3.63 KCAL/MOL
REMARK 924 INTRA-LIGAND FREE ENERGY PREDICTED BY IDOCK:   -0.52 KCAL/MOL
REMARK 927      BINDING AFFINITY PREDICTED BY RF-SCORE:    0.00 PKD
ROOT
HETATM    1  C   UNL     1     -10.965  15.660  65.400  1.00  0.00    -0.333 C  
HETATM    2  N   UNL     1     -11.327  15.846  66.804  1.00  0.00     0.042 NA 
HETATM    3  H   UNL     1     -12.316  15.654  66.967  1.00  0.00     0.000 HD 
ENDROOT
BRANCH   2   4
HETATM    4  C   UNL     1     -10.468  15.039  67.678  1.00  0.00    -0.247 C  
BRANCH   4   5
HETATM    5  C   UNL     1     -11.030  13.637  67.968  1.00  0.00    -0.270 C  
BRANCH   5   6
HETATM    6  C   UNL     1     -10.500  12.484  67.097  1.00  0.00    -0.224 C  
BRANCH   6   7
HETATM    7  C   UNL     1     -11.227  12.381  65.769  1.00  0.00    -0.333 A  
HETATM    8  C   UNL     1     -11.739  12.277  63.347  1.00  0.00    -0.457 A  
HETATM    9  S   UNL     1     -10.332  12.452  64.299  1.00  0.00    -0.362 SA 
HETATM   10  C   UNL     1     -12.581  12.252  65.513  1.00  0.00     0.325 A  
HETATM   11  C   UNL     1     -12.875  12.188  64.118  1.00  0.00    -0.344 A  
ENDBRANCH   6   7
BRANCH   6  12
HETATM   12  O   UNL     1      -9.101  12.718  66.780  1.00  0.00    -0.217 OA 
BRANCH  12  13
HETATM   13  C   UNL     1      -8.176  12.431  67.764  1.00  0.00    -0.163 A  
HETATM   14  C   UNL     1      -7.266  10.957  69.466  1.00  0.00    -0.113 A  
HETATM   15  C   UNL     1      -8.172  11.205  68.441  1.00  0.00    -0.144 A  
HETATM   16  C   UNL     1      -6.333  11.926  69.815  1.00  0.00    -0.118 A  
HETATM   17  C   UNL     1      -6.260  13.135  69.116  1.00  0.00    -0.100 A  
HETATM   18  C   UNL     1      -5.284  14.078  69.468  1.00  0.00    -0.083 A  
HETATM   19  C   UNL     1      -5.146  15.270  68.762  1.00  0.00    -0.095 A  
HETATM   20  C   UNL     1      -5.990  15.528  67.689  1.00  0.00    -0.147 A  
HETATM   21  C   UNL     1      -6.991  14.609  67.341  1.00  0.00    -0.123 A  
HETATM   22  C   UNL     1      -7.166  13.396  68.052  1.00  0.00    -0.123 A  
ENDBRANCH  12  13
ENDBRANCH   6  12
ENDBRANCH   5   6
ENDBRANCH   4   5
ENDBRANCH   2   4
TORSDOF 6
ENDMDL
MODEL      290
REMARK 921   NORMALIZED FREE ENERGY PREDICTED BY IDOCK:   -2.40 KCAL/MOL
REMARK 922        TOTAL FREE ENERGY PREDICTED BY IDOCK:   -4.14 KCAL/MOL
REMARK 923 INTER-LIGAND FREE ENERGY PREDICTED BY IDOCK:   -3.19 KCAL/MOL
REMARK 924 INTRA-LIGAND FREE ENERGY PREDICTED BY IDOCK:   -0.96 KCAL/MOL
REMARK 927      BINDING AFFINITY PREDICTED BY RF-SCORE:    0.00 PKD
ROOT
HETATM    1  C   UNL     1      -9.483   4.250  72.344  1.00  0.00    -0.129 C  
HETATM    2  N   UNL     1      -9.488   5.711  72.302  1.00  0.00    -0.145 NA 
HETATM    3  H   UNL     1      -8.858   6.070  71.585  1.00  0.00     0.000 HD 
ENDROOT
BRANCH   2   4
HETATM    4  C   UNL     1     -10.851   6.227  72.132  1.00  0.00    -0.242 C  
BRANCH   4   5
HETATM    5  C   UNL     1     -10.947   7.394  71.135  1.00  0.00    -0.265 C  
BRANCH   5   6
HETATM    6  C   UNL     1      -9.688   7.703  70.306  1.00  0.00    -0.179 C  
BRANCH   6   7
HETATM    7  C   UNL     1      -9.826   7.264  68.859  1.00  0.00    -0.158 A  
HETATM    8  C   UNL     1     -10.096   5.895  66.813  1.00  0.00    -0.192 A  
HETATM    9  S   UNL     1     -10.010   5.591  68.491  1.00  0.00    -0.168 SA 
HETATM   10  C   UNL     1      -9.806   8.023  67.702  1.00  0.00    -0.214 A  
HETATM   11  C   UNL     1      -9.967   7.234  66.524  1.00  0.00    -0.182 A  
ENDBRANCH   6   7
BRANCH   6  12
HETATM   12  O   UNL     1      -9.465   9.139  70.278  1.00  0.00    -0.185 OA 
BRANCH  12  13
HETATM   13  C   UNL     1      -8.167   9.577  70.452  1.00  0.00    -0.190 A  
HETATM   14  C   UNL     1      -5.998   9.433  71.533  1.00  0.00    -0.054 A  
HETATM   15  C   UNL     1      -7.283   8.942  71.332  1.00  0.00    -0.097 A  
HETATM   16  C   UNL     1      -5.570  10.558  70.837  1.00  0.00    -0.092 A  
HETATM   17  C   UNL     1      -6.400  11.177  69.897  1.00  0.00    -0.141 A  
HETATM   18  C   UNL     1      -5.925  12.288  69.184  1.00  0.00    -0.080 A  
HETATM   19  C   UNL     1      -6.703  12.900  68.204  1.00  0.00    -0.096 A  
HETATM   20  C   UNL     1      -7.969  12.399  67.927  1.00  0.00    -0.155 A  
HETATM   21  C   UNL     1      -8.470  11.307  68.652  1.00  0.00    -0.143 A  
HETATM   22  C   UNL     1      -7.709  10.676  69.666  1.00  0.00    -0.080 A  
ENDBRANCH  12  13
ENDBRANCH   6  12
ENDBRANCH   5   6
ENDBRANCH   4   5
ENDBRANCH   2   4
TORSDOF 6
ENDMDL
MODEL      291
REMARK 921   NORMALIZED FREE ENERGY PREDICTED BY IDOCK:   -2.39 KCAL/MOL
REMARK 922        TOTAL FREE ENERGY PREDICTED BY IDOCK:   -4.13 KCAL/MOL
REMARK 923 INTER-LIGAND FREE ENERGY PREDICTED BY IDOCK:   -3.53 KCAL/MOL
REMARK 924 INTRA-LIGAND FREE ENERGY PREDICTED BY IDOCK:   -0.60 KCAL/MOL
REMARK 927      BINDING AFFINITY PREDICTED BY RF-SCORE:    0.00 PKD
ROOT
HETATM    1  C   UNL     1     -12.052  12.943  65.788  1.00  0.00    -0.457 C  
HETATM    2  N   UNL     1     -11.741  11.870  66.731  1.00  0.00    -0.590 NA 
HETATM    3  H   UNL     1     -12.281  11.027  66.533  1.00  0.00     0.000 HD 
ENDROOT
BRANCH   2   4
HETATM    4  C   UNL     1     -10.300  11.596  66.757  1.00  0.00    -0.222 C  
BRANCH   4   5
HETATM    5  C   UNL     1      -9.906  10.304  66.022  1.00  0.00    -0.292 C  
BRANCH   5   6
HETATM    6  C   UNL     1      -8.757   9.482  66.632  1.00  0.00    -0.134 C  
BRANCH   6   7
HETATM    7  C   UNL     1      -7.797  10.340  67.437  1.00  0.00    -0.102 A  
HETATM    8  C   UNL     1      -6.585  11.431  69.301  1.00  0.00    -0.106 A  
HETATM    9  S   UNL     1      -7.865  10.310  69.157  1.00  0.00    -0.139 SA 
HETATM   10  C   UNL     1      -6.822  11.219  66.999  1.00  0.00    -0.126 A  
HETATM   11  C   UNL     1      -6.121  11.844  68.074  1.00  0.00    -0.055 A  
ENDBRANCH   6   7
BRANCH   6  12
HETATM   12  O   UNL     1      -9.299   8.500  67.555  1.00  0.00    -0.141 OA 
BRANCH  12  13
HETATM   13  C   UNL     1      -9.038   7.171  67.284  1.00  0.00    -0.123 A  
HETATM   14  C   UNL     1      -8.767   5.329  65.725  1.00  0.00    -0.143 A  
HETATM   15  C   UNL     1      -8.977   6.681  65.974  1.00  0.00    -0.131 A  
HETATM   16  C   UNL     1      -8.594   4.448  66.787  1.00  0.00    -0.107 A  
HETATM   17  C   UNL     1      -8.579   4.911  68.106  1.00  0.00    -0.104 A  
HETATM   18  C   UNL     1      -8.364   4.003  69.153  1.00  0.00    -0.087 A  
HETATM   19  C   UNL     1      -8.291   4.433  70.475  1.00  0.00    -0.086 A  
HETATM   20  C   UNL     1      -8.430   5.786  70.761  1.00  0.00    -0.125 A  
HETATM   21  C   UNL     1      -8.675   6.704  69.729  1.00  0.00    -0.140 A  
HETATM   22  C   UNL     1      -8.772   6.293  68.377  1.00  0.00    -0.116 A  
ENDBRANCH  12  13
ENDBRANCH   6  12
ENDBRANCH   5   6
ENDBRANCH   4   5
ENDBRANCH   2   4
TORSDOF 6
ENDMDL
MODEL      292
REMARK 921   NORMALIZED FREE ENERGY PREDICTED BY IDOCK:   -2.35 KCAL/MOL
REMARK 922        TOTAL FREE ENERGY PREDICTED BY IDOCK:   -4.07 KCAL/MOL
REMARK 923 INTER-LIGAND FREE ENERGY PREDICTED BY IDOCK:   -3.61 KCAL/MOL
REMARK 924 INTRA-LIGAND FREE ENERGY PREDICTED BY IDOCK:   -0.46 KCAL/MOL
REMARK 927      BINDING AFFINITY PREDICTED BY RF-SCORE:    0.00 PKD
ROOT
HETATM    1  C   UNL     1     -13.840   9.127  71.420  1.00  0.00    -0.227 C  
HETATM    2  N   UNL     1     -12.481   8.759  71.028  1.00  0.00    -0.479 NA 
HETATM    3  H   UNL     1     -11.791   9.093  71.700  1.00  0.00     0.000 HD 
ENDROOT
BRANCH   2   4
HETATM    4  C   UNL     1     -12.371   7.312  70.813  1.00  0.00    -0.182 C  
BRANCH   4   5
HETATM    5  C   UNL     1     -11.143   6.904  69.983  1.00  0.00    -0.344 C  
BRANCH   5   6
HETATM    6  C   UNL     1      -9.950   7.875  69.988  1.00  0.00    -0.191 C  
BRANCH   6   7
HETATM    7  C   UNL     1      -9.032   7.658  71.178  1.00  0.00    -0.138 A  
HETATM    8  C   UNL     1      -7.194   7.871  72.824  1.00  0.00    -0.093 A  
HETATM    9  S   UNL     1      -7.666   8.683  71.398  1.00  0.00    -0.112 SA 
HETATM   10  C   UNL     1      -9.094   6.701  72.175  1.00  0.00    -0.138 A  
HETATM   11  C   UNL     1      -8.037   6.827  73.126  1.00  0.00    -0.114 A  
ENDBRANCH   6   7
BRANCH   6  12
HETATM   12  O   UNL     1      -9.139   7.656  68.802  1.00  0.00    -0.140 OA 
BRANCH  12  13
HETATM   13  C   UNL     1      -9.130   8.659  67.852  1.00  0.00    -0.140 A  
HETATM   14  C   UNL     1     -10.257  10.041  66.204  1.00  0.00    -0.283 A  
HETATM   15  C   UNL     1     -10.297   9.068  67.196  1.00  0.00    -0.342 A  
HETATM   16  C   UNL     1      -9.046  10.637  65.868  1.00  0.00    -0.201 A  
HETATM   17  C   UNL     1      -7.871  10.306  66.549  1.00  0.00    -0.116 A  
HETATM   18  C   UNL     1      -6.673  10.952  66.212  1.00  0.00    -0.124 A  
HETATM   19  C   UNL     1      -5.494  10.687  66.903  1.00  0.00    -0.047 A  
HETATM   20  C   UNL     1      -5.505   9.768  67.945  1.00  0.00    -0.039 A  
HETATM   21  C   UNL     1      -6.689   9.091  68.276  1.00  0.00    -0.061 A  
HETATM   22  C   UNL     1      -7.899   9.327  67.580  1.00  0.00    -0.096 A  
ENDBRANCH  12  13
ENDBRANCH   6  12
ENDBRANCH   5   6
ENDBRANCH   4   5
ENDBRANCH   2   4
TORSDOF 6
ENDMDL
MODEL      293
REMARK 921   NORMALIZED FREE ENERGY PREDICTED BY IDOCK:   -2.33 KCAL/MOL
REMARK 922        TOTAL FREE ENERGY PREDICTED BY IDOCK:   -4.05 KCAL/MOL
REMARK 923 INTER-LIGAND FREE ENERGY PREDICTED BY IDOCK:   -4.71 KCAL/MOL
REMARK 924 INTRA-LIGAND FREE ENERGY PREDICTED BY IDOCK:    0.66 KCAL/MOL
REMARK 927      BINDING AFFINITY PREDICTED BY RF-SCORE:    0.00 PKD
ROOT
HETATM    1  C   UNL     1     -11.157  14.888  66.355  1.00  0.00    -0.342 C  
HETATM    2  N   UNL     1     -10.540  14.264  67.524  1.00  0.00    -0.260 NA 
HETATM    3  H   UNL     1     -11.234  14.013  68.227  1.00  0.00     0.000 HD 
ENDROOT
BRANCH   2   4
HETATM    4  C   UNL     1      -9.724  13.109  67.132  1.00  0.00    -0.235 C  
BRANCH   4   5
HETATM    5  C   UNL     1     -10.466  11.766  67.242  1.00  0.00    -0.242 C  
BRANCH   5   6
HETATM    6  C   UNL     1      -9.753  10.642  68.013  1.00  0.00    -0.157 C  
BRANCH   6   7
HETATM    7  C   UNL     1      -8.249  10.840  68.065  1.00  0.00    -0.115 A  
HETATM    8  C   UNL     1      -5.838  10.849  67.496  1.00  0.00    -0.045 A  
HETATM    9  S   UNL     1      -7.275  10.317  66.744  1.00  0.00    -0.110 SA 
HETATM   10  C   UNL     1      -7.465  11.385  69.067  1.00  0.00    -0.093 A  
HETATM   11  C   UNL     1      -6.077  11.394  68.737  1.00  0.00    -0.048 A  
ENDBRANCH   6   7
BRANCH   6  12
HETATM   12  O   UNL     1     -10.211  10.632  69.392  1.00  0.00    -0.220 OA 
BRANCH  12  13
HETATM   13  C   UNL     1     -10.350   9.400  70.000  1.00  0.00    -0.233 A  
HETATM   14  C   UNL     1     -10.435   8.002  71.984  1.00  0.00    -0.308 A  
HETATM   15  C   UNL     1     -10.350   9.258  71.393  1.00  0.00    -0.392 A  
HETATM   16  C   UNL     1     -10.544   6.868  71.188  1.00  0.00    -0.246 A  
HETATM   17  C   UNL     1     -10.618   6.975  69.796  1.00  0.00    -0.253 A  
HETATM   18  C   UNL     1     -10.765   5.815  69.021  1.00  0.00    -0.354 A  
HETATM   19  C   UNL     1     -10.895   5.885  67.637  1.00  0.00    -0.331 A  
HETATM   20  C   UNL     1     -10.880   7.126  67.013  1.00  0.00    -0.382 A  
HETATM   21  C   UNL     1     -10.704   8.295  67.769  1.00  0.00    -0.165 A  
HETATM   22  C   UNL     1     -10.552   8.253  69.177  1.00  0.00    -0.179 A  
ENDBRANCH  12  13
ENDBRANCH   6  12
ENDBRANCH   5   6
ENDBRANCH   4   5
ENDBRANCH   2   4
TORSDOF 6
ENDMDL
MODEL      294
REMARK 921   NORMALIZED FREE ENERGY PREDICTED BY IDOCK:   -2.33 KCAL/MOL
REMARK 922        TOTAL FREE ENERGY PREDICTED BY IDOCK:   -4.04 KCAL/MOL
REMARK 923 INTER-LIGAND FREE ENERGY PREDICTED BY IDOCK:   -3.55 KCAL/MOL
REMARK 924 INTRA-LIGAND FREE ENERGY PREDICTED BY IDOCK:   -0.49 KCAL/MOL
REMARK 927      BINDING AFFINITY PREDICTED BY RF-SCORE:    0.00 PKD
ROOT
HETATM    1  C   UNL     1      -9.733   5.596  65.711  1.00  0.00     0.087 C  
HETATM    2  N   UNL     1     -11.074   6.039  66.091  1.00  0.00    -0.536 NA 
HETATM    3  H   UNL     1     -11.677   5.252  66.330  1.00  0.00     0.000 HD 
ENDROOT
BRANCH   2   4
HETATM    4  C   UNL     1     -11.012   7.023  67.178  1.00  0.00    -0.323 C  
BRANCH   4   5
HETATM    5  C   UNL     1      -9.914   6.727  68.214  1.00  0.00    -0.153 C  
BRANCH   5   6
HETATM    6  C   UNL     1      -9.492   7.890  69.127  1.00  0.00    -0.155 C  
BRANCH   6   7
HETATM    7  C   UNL     1     -10.015   7.732  70.544  1.00  0.00    -0.187 A  
HETATM    8  C   UNL     1     -10.938   6.787  72.638  1.00  0.00    -0.257 A  
HETATM    9  S   UNL     1     -10.538   6.185  71.091  1.00  0.00    -0.257 SA 
HETATM   10  C   UNL     1     -10.178   8.685  71.534  1.00  0.00    -0.345 A  
HETATM   11  C   UNL     1     -10.705   8.139  72.742  1.00  0.00    -0.391 A  
ENDBRANCH   6   7
BRANCH   6  12
HETATM   12  O   UNL     1      -8.043   7.927  69.229  1.00  0.00    -0.121 OA 
BRANCH  12  13
HETATM   13  C   UNL     1      -7.345   8.371  68.123  1.00  0.00    -0.096 A  
HETATM   14  C   UNL     1      -6.206   7.960  66.018  1.00  0.00    -0.042 A  
HETATM   15  C   UNL     1      -6.955   7.502  67.096  1.00  0.00    -0.083 A  
HETATM   16  C   UNL     1      -5.854   9.303  65.940  1.00  0.00    -0.050 A  
HETATM   17  C   UNL     1      -6.284  10.214  66.910  1.00  0.00    -0.064 A  
HETATM   18  C   UNL     1      -5.943  11.568  66.784  1.00  0.00    -0.139 A  
HETATM   19  C   UNL     1      -6.397  12.513  67.700  1.00  0.00    -0.140 A  
HETATM   20  C   UNL     1      -7.202  12.106  68.757  1.00  0.00    -0.103 A  
HETATM   21  C   UNL     1      -7.528  10.751  68.915  1.00  0.00    -0.116 A  
HETATM   22  C   UNL     1      -7.068   9.765  68.008  1.00  0.00    -0.079 A  
ENDBRANCH  12  13
ENDBRANCH   6  12
ENDBRANCH   5   6
ENDBRANCH   4   5
ENDBRANCH   2   4
TORSDOF 6
ENDMDL
MODEL      295
REMARK 921   NORMALIZED FREE ENERGY PREDICTED BY IDOCK:   -2.31 KCAL/MOL
REMARK 922        TOTAL FREE ENERGY PREDICTED BY IDOCK:   -4.02 KCAL/MOL
REMARK 923 INTER-LIGAND FREE ENERGY PREDICTED BY IDOCK:   -3.69 KCAL/MOL
REMARK 924 INTRA-LIGAND FREE ENERGY PREDICTED BY IDOCK:   -0.33 KCAL/MOL
REMARK 927      BINDING AFFINITY PREDICTED BY RF-SCORE:    0.00 PKD
ROOT
HETATM    1  C   UNL     1     -11.302   5.257  72.848  1.00  0.00    -0.301 C  
HETATM    2  N   UNL     1     -11.053   5.904  71.561  1.00  0.00    -0.269 NA 
HETATM    3  H   UNL     1     -10.731   6.864  71.678  1.00  0.00     0.000 HD 
ENDROOT
BRANCH   2   4
HETATM    4  C   UNL     1     -10.120   5.115  70.749  1.00  0.00    -0.233 C  
BRANCH   4   5
HETATM    5  C   UNL     1      -9.705   5.808  69.441  1.00  0.00    -0.200 C  
BRANCH   5   6
HETATM    6  C   UNL     1     -10.438   7.113  69.084  1.00  0.00    -0.211 C  
BRANCH   6   7
HETATM    7  C   UNL     1      -9.557   8.337  69.259  1.00  0.00    -0.164 A  
HETATM    8  C   UNL     1      -7.696   9.850  69.875  1.00  0.00    -0.171 A  
HETATM    9  S   UNL     1      -8.052   8.193  70.083  1.00  0.00    -0.116 SA 
HETATM   10  C   UNL     1      -9.778   9.645  68.863  1.00  0.00    -0.163 A  
HETATM   11  C   UNL     1      -8.703  10.515  69.214  1.00  0.00    -0.135 A  
ENDBRANCH   6   7
BRANCH   6  12
HETATM   12  O   UNL     1     -10.827   7.085  67.685  1.00  0.00    -0.249 OA 
BRANCH  12  13
HETATM   13  C   UNL     1     -10.133   6.226  66.856  1.00  0.00    -0.183 A  
HETATM   14  C   UNL     1      -9.650   3.997  66.022  1.00  0.00    -0.200 A  
HETATM   15  C   UNL     1     -10.398   4.852  66.825  1.00  0.00    -0.264 A  
HETATM   16  C   UNL     1      -8.637   4.510  65.220  1.00  0.00    -0.128 A  
HETATM   17  C   UNL     1      -8.389   5.885  65.171  1.00  0.00    -0.143 A  
HETATM   18  C   UNL     1      -7.385   6.375  64.324  1.00  0.00    -0.075 A  
HETATM   19  C   UNL     1      -7.144   7.742  64.209  1.00  0.00    -0.074 A  
HETATM   20  C   UNL     1      -7.913   8.634  64.945  1.00  0.00    -0.138 A  
HETATM   21  C   UNL     1      -8.902   8.160  65.819  1.00  0.00    -0.173 A  
HETATM   22  C   UNL     1      -9.158   6.775  65.970  1.00  0.00    -0.103 A  
ENDBRANCH  12  13
ENDBRANCH   6  12
ENDBRANCH   5   6
ENDBRANCH   4   5
ENDBRANCH   2   4
TORSDOF 6
ENDMDL
MODEL      296
REMARK 921   NORMALIZED FREE ENERGY PREDICTED BY IDOCK:   -2.05 KCAL/MOL
REMARK 922        TOTAL FREE ENERGY PREDICTED BY IDOCK:   -3.66 KCAL/MOL
REMARK 923 INTER-LIGAND FREE ENERGY PREDICTED BY IDOCK:   -3.55 KCAL/MOL
REMARK 924 INTRA-LIGAND FREE ENERGY PREDICTED BY IDOCK:   -0.11 KCAL/MOL
REMARK 927      BINDING AFFINITY PREDICTED BY RF-SCORE:    0.00 PKD
ROOT
HETATM    1  C   UNL     1     -11.307   5.460  72.642  1.00  0.00    -0.266 C  
HETATM    2  N   UNL     1     -10.878   6.240  71.483  1.00  0.00    -0.245 NA 
HETATM    3  H   UNL     1     -10.227   6.980  71.747  1.00  0.00     0.000 HD 
ENDROOT
BRANCH   2   4
HETATM    4  C   UNL     1     -10.315   5.370  70.444  1.00  0.00    -0.283 C  
BRANCH   4   5
HETATM    5  C   UNL     1      -9.906   6.121  69.166  1.00  0.00    -0.176 C  
BRANCH   5   6
HETATM    6  C   UNL     1      -8.522   5.792  68.581  1.00  0.00    -0.107 C  
BRANCH   6   7
HETATM    7  C   UNL     1      -8.613   4.960  67.315  1.00  0.00    -0.104 A  
HETATM    8  C   UNL     1      -9.463   3.765  65.319  1.00  0.00    -0.168 A  
HETATM    9  S   UNL     1     -10.145   4.704  66.572  1.00  0.00    -0.232 SA 
HETATM   10  C   UNL     1      -7.613   4.307  66.616  1.00  0.00    -0.085 A  
HETATM   11  C   UNL     1      -8.102   3.623  65.464  1.00  0.00    -0.093 A  
ENDBRANCH   6   7
BRANCH   6  12
HETATM   12  O   UNL     1      -7.844   7.023  68.214  1.00  0.00    -0.114 OA 
BRANCH  12  13
HETATM   13  C   UNL     1      -8.562   7.939  67.470  1.00  0.00    -0.122 A  
HETATM   14  C   UNL     1     -10.336   9.583  67.253  1.00  0.00    -0.319 A  
HETATM   15  C   UNL     1      -9.590   8.706  68.032  1.00  0.00    -0.168 A  
HETATM   16  C   UNL     1     -10.051   9.721  65.899  1.00  0.00    -0.314 A  
HETATM   17  C   UNL     1      -8.987   9.025  65.317  1.00  0.00    -0.233 A  
HETATM   18  C   UNL     1      -8.701   9.213  63.957  1.00  0.00    -0.165 A  
HETATM   19  C   UNL     1      -7.618   8.578  63.355  1.00  0.00    -0.123 A  
HETATM   20  C   UNL     1      -6.808   7.744  64.115  1.00  0.00    -0.061 A  
HETATM   21  C   UNL     1      -7.098   7.520  65.469  1.00  0.00    -0.061 A  
HETATM   22  C   UNL     1      -8.201   8.139  66.105  1.00  0.00    -0.117 A  
ENDBRANCH  12  13
ENDBRANCH   6  12
ENDBRANCH   5   6
ENDBRANCH   4   5
ENDBRANCH   2   4
TORSDOF 6
ENDMDL
MODEL      297
REMARK 921   NORMALIZED FREE ENERGY PREDICTED BY IDOCK:   -1.97 KCAL/MOL
REMARK 922        TOTAL FREE ENERGY PREDICTED BY IDOCK:   -3.56 KCAL/MOL
REMARK 923 INTER-LIGAND FREE ENERGY PREDICTED BY IDOCK:   -3.04 KCAL/MOL
REMARK 924 INTRA-LIGAND FREE ENERGY PREDICTED BY IDOCK:   -0.52 KCAL/MOL
REMARK 927      BINDING AFFINITY PREDICTED BY RF-SCORE:    0.00 PKD
ROOT
HETATM    1  C   UNL     1     -11.304   5.447  72.645  1.00  0.00    -0.266 C  
HETATM    2  N   UNL     1     -10.793   6.108  71.446  1.00  0.00    -0.255 NA 
HETATM    3  H   UNL     1     -10.106   6.826  71.676  1.00  0.00     0.000 HD 
ENDROOT
BRANCH   2   4
HETATM    4  C   UNL     1     -10.255   5.128  70.496  1.00  0.00    -0.260 C  
BRANCH   4   5
HETATM    5  C   UNL     1      -9.730   5.758  69.194  1.00  0.00    -0.189 C  
BRANCH   5   6
HETATM    6  C   UNL     1      -8.362   5.268  68.690  1.00  0.00    -0.089 C  
BRANCH   6   7
HETATM    7  C   UNL     1      -8.484   4.347  67.489  1.00  0.00    -0.103 A  
HETATM    8  C   UNL     1      -9.376   3.059  65.570  1.00  0.00    -0.102 A  
HETATM    9  S   UNL     1     -10.016   4.136  66.730  1.00  0.00     0.007 SA 
HETATM   10  C   UNL     1      -7.518   3.577  66.866  1.00  0.00    -0.075 A  
HETATM   11  C   UNL     1      -8.031   2.839  65.758  1.00  0.00    -0.082 A  
ENDBRANCH   6   7
BRANCH   6  12
HETATM   12  O   UNL     1      -7.568   6.404  68.254  1.00  0.00    -0.099 OA 
BRANCH  12  13
HETATM   13  C   UNL     1      -7.855   7.628  68.826  1.00  0.00    -0.120 A  
HETATM   14  C   UNL     1      -7.837   9.152  70.716  1.00  0.00    -0.173 A  
HETATM   15  C   UNL     1      -7.490   7.934  70.142  1.00  0.00    -0.078 A  
HETATM   16  C   UNL     1      -8.539  10.094  69.971  1.00  0.00    -0.019 A  
HETATM   17  C   UNL     1      -8.859   9.853  68.632  1.00  0.00    -0.128 A  
HETATM   18  C   UNL     1      -9.535  10.837  67.897  1.00  0.00    -0.165 A  
HETATM   19  C   UNL     1      -9.825  10.655  66.547  1.00  0.00    -0.250 A  
HETATM   20  C   UNL     1      -9.438   9.478  65.919  1.00  0.00    -0.307 A  
HETATM   21  C   UNL     1      -8.788   8.470  66.647  1.00  0.00    -0.157 A  
HETATM   22  C   UNL     1      -8.494   8.620  68.025  1.00  0.00    -0.127 A  
ENDBRANCH  12  13
ENDBRANCH   6  12
ENDBRANCH   5   6
ENDBRANCH   4   5
ENDBRANCH   2   4
TORSDOF 6
ENDMDL
MODEL      298
REMARK 921   NORMALIZED FREE ENERGY PREDICTED BY IDOCK:   -1.92 KCAL/MOL
REMARK 922        TOTAL FREE ENERGY PREDICTED BY IDOCK:   -3.49 KCAL/MOL
REMARK 923 INTER-LIGAND FREE ENERGY PREDICTED BY IDOCK:   -2.94 KCAL/MOL
REMARK 924 INTRA-LIGAND FREE ENERGY PREDICTED BY IDOCK:   -0.55 KCAL/MOL
REMARK 927      BINDING AFFINITY PREDICTED BY RF-SCORE:    0.00 PKD
ROOT
HETATM    1  C   UNL     1     -11.906  12.965  65.772  1.00  0.00    -0.419 C  
HETATM    2  N   UNL     1     -11.297  11.945  66.623  1.00  0.00    -0.350 NA 
HETATM    3  H   UNL     1     -11.576  11.005  66.343  1.00  0.00     0.000 HD 
ENDROOT
BRANCH   2   4
HETATM    4  C   UNL     1      -9.837  12.090  66.652  1.00  0.00    -0.204 C  
BRANCH   4   5
HETATM    5  C   UNL     1      -9.101  11.090  65.744  1.00  0.00    -0.219 C  
BRANCH   5   6
HETATM    6  C   UNL     1      -7.756  10.548  66.258  1.00  0.00    -0.135 C  
BRANCH   6   7
HETATM    7  C   UNL     1      -7.190  11.384  67.391  1.00  0.00    -0.115 A  
HETATM    8  C   UNL     1      -6.592  12.236  69.639  1.00  0.00    -0.020 A  
HETATM    9  S   UNL     1      -7.477  10.912  69.023  1.00  0.00    -0.129 SA 
HETATM   10  C   UNL     1      -6.450  12.552  67.341  1.00  0.00    -0.153 A  
HETATM   11  C   UNL     1      -6.102  13.040  68.636  1.00  0.00    -0.073 A  
ENDBRANCH   6   7
BRANCH   6  12
HETATM   12  O   UNL     1      -7.943   9.209  66.790  1.00  0.00    -0.103 OA 
BRANCH  12  13
HETATM   13  C   UNL     1      -7.320   8.173  66.123  1.00  0.00    -0.070 A  
HETATM   14  C   UNL     1      -5.411   7.242  64.945  1.00  0.00    -0.033 A  
HETATM   15  C   UNL     1      -6.001   8.277  65.663  1.00  0.00    -0.045 A  
HETATM   16  C   UNL     1      -6.127   6.076  64.695  1.00  0.00    -0.026 A  
HETATM   17  C   UNL     1      -7.420   5.909  65.199  1.00  0.00    -0.079 A  
HETATM   18  C   UNL     1      -8.103   4.706  64.961  1.00  0.00    -0.102 A  
HETATM   19  C   UNL     1      -9.371   4.482  65.490  1.00  0.00    -0.162 A  
HETATM   20  C   UNL     1      -9.969   5.465  66.268  1.00  0.00    -0.199 A  
HETATM   21  C   UNL     1      -9.314   6.685  66.490  1.00  0.00    -0.191 A  
HETATM   22  C   UNL     1      -8.031   6.949  65.952  1.00  0.00    -0.112 A  
ENDBRANCH  12  13
ENDBRANCH   6  12
ENDBRANCH   5   6
ENDBRANCH   4   5
ENDBRANCH   2   4
TORSDOF 6
ENDMDL
MODEL      299
REMARK 921   NORMALIZED FREE ENERGY PREDICTED BY IDOCK:   -1.85 KCAL/MOL
REMARK 922        TOTAL FREE ENERGY PREDICTED BY IDOCK:   -3.40 KCAL/MOL
REMARK 923 INTER-LIGAND FREE ENERGY PREDICTED BY IDOCK:   -3.69 KCAL/MOL
REMARK 924 INTRA-LIGAND FREE ENERGY PREDICTED BY IDOCK:    0.29 KCAL/MOL
REMARK 927      BINDING AFFINITY PREDICTED BY RF-SCORE:    0.00 PKD
ROOT
HETATM    1  C   UNL     1      -9.219   9.899  66.859  1.00  0.00    -0.147 C  
HETATM    2  N   UNL     1      -9.586   8.617  66.259  1.00  0.00    -0.253 NA 
HETATM    3  H   UNL     1      -9.030   8.417  65.428  1.00  0.00     0.000 HD 
ENDROOT
BRANCH   2   4
HETATM    4  C   UNL     1      -9.497   7.533  67.243  1.00  0.00    -0.151 C  
BRANCH   4   5
HETATM    5  C   UNL     1     -10.798   6.724  67.387  1.00  0.00    -0.417 C  
BRANCH   5   6
HETATM    6  C   UNL     1     -10.655   5.248  67.796  1.00  0.00    -0.034 C  
BRANCH   6   7
HETATM    7  C   UNL     1      -9.518   4.554  67.068  1.00  0.00    -0.169 A  
HETATM    8  C   UNL     1      -8.049   3.629  65.302  1.00  0.00    -0.097 A  
HETATM    9  S   UNL     1      -9.523   4.490  65.347  1.00  0.00    -0.178 SA 
HETATM   10  C   UNL     1      -8.413   3.898  67.581  1.00  0.00    -0.102 A  
HETATM   11  C   UNL     1      -7.564   3.370  66.563  1.00  0.00    -0.077 A  
ENDBRANCH   6   7
BRANCH   6  12
HETATM   12  O   UNL     1     -10.344   5.165  69.213  1.00  0.00    -0.226 OA 
BRANCH  12  13
HETATM   13  C   UNL     1     -10.360   6.344  69.932  1.00  0.00    -0.196 A  
HETATM   14  C   UNL     1     -11.541   8.228  70.907  1.00  0.00    -0.282 A  
HETATM   15  C   UNL     1     -11.553   7.014  70.230  1.00  0.00    -0.309 A  
HETATM   16  C   UNL     1     -10.333   8.781  71.317  1.00  0.00    -0.331 A  
HETATM   17  C   UNL     1      -9.127   8.108  71.099  1.00  0.00    -0.183 A  
HETATM   18  C   UNL     1      -7.928   8.674  71.557  1.00  0.00    -0.178 A  
HETATM   19  C   UNL     1      -6.714   8.010  71.406  1.00  0.00    -0.048 A  
HETATM   20  C   UNL     1      -6.691   6.764  70.792  1.00  0.00    -0.054 A  
HETATM   21  C   UNL     1      -7.876   6.196  70.301  1.00  0.00    -0.102 A  
HETATM   22  C   UNL     1      -9.123   6.856  70.426  1.00  0.00    -0.156 A  
ENDBRANCH  12  13
ENDBRANCH   6  12
ENDBRANCH   5   6
ENDBRANCH   4   5
ENDBRANCH   2   4
TORSDOF 6
ENDMDL
MODEL      300
REMARK 921   NORMALIZED FREE ENERGY PREDICTED BY IDOCK:   -1.83 KCAL/MOL
REMARK 922        TOTAL FREE ENERGY PREDICTED BY IDOCK:   -3.37 KCAL/MOL
REMARK 923 INTER-LIGAND FREE ENERGY PREDICTED BY IDOCK:   -3.55 KCAL/MOL
REMARK 924 INTRA-LIGAND FREE ENERGY PREDICTED BY IDOCK:    0.19 KCAL/MOL
REMARK 927      BINDING AFFINITY PREDICTED BY RF-SCORE:    0.00 PKD
ROOT
HETATM    1  C   UNL     1     -12.260   3.582  73.942  1.00  0.00     1.268 C  
HETATM    2  N   UNL     1     -11.429   4.645  73.379  1.00  0.00    -0.334 NA 
HETATM    3  H   UNL     1     -11.452   5.486  73.955  1.00  0.00     0.000 HD 
ENDROOT
BRANCH   2   4
HETATM    4  C   UNL     1     -10.056   4.176  73.161  1.00  0.00    -0.146 C  
BRANCH   4   5
HETATM    5  C   UNL     1      -9.361   4.847  71.964  1.00  0.00    -0.175 C  
BRANCH   5   6
HETATM    6  C   UNL     1      -9.529   6.370  71.828  1.00  0.00    -0.153 C  
BRANCH   6   7
HETATM    7  C   UNL     1      -8.574   7.139  72.723  1.00  0.00    -0.114 A  
HETATM    8  C   UNL     1      -6.525   8.044  73.780  1.00  0.00    -0.103 A  
HETATM    9  S   UNL     1      -6.875   6.943  72.522  1.00  0.00    -0.062 SA 
HETATM   10  C   UNL     1      -8.848   8.016  73.758  1.00  0.00    -0.313 A  
HETATM   11  C   UNL     1      -7.668   8.540  74.364  1.00  0.00    -0.196 A  
ENDBRANCH   6   7
BRANCH   6  12
HETATM   12  O   UNL     1      -9.227   6.773  70.465  1.00  0.00    -0.155 OA 
BRANCH  12  13
HETATM   13  C   UNL     1      -9.563   8.062  70.101  1.00  0.00    -0.175 A  
HETATM   14  C   UNL     1      -9.123  10.112  68.877  1.00  0.00    -0.165 A  
HETATM   15  C   UNL     1      -8.797   8.797  69.189  1.00  0.00    -0.137 A  
HETATM   16  C   UNL     1     -10.237  10.706  69.460  1.00  0.00    -0.190 A  
HETATM   17  C   UNL     1     -11.066   9.982  70.321  1.00  0.00    -0.381 A  
HETATM   18  C   UNL     1     -12.204  10.598  70.863  1.00  0.00    -0.497 A  
HETATM   19  C   UNL     1     -13.082   9.893  71.683  1.00  0.00    -0.538 A  
HETATM   20  C   UNL     1     -12.827   8.557  71.966  1.00  0.00    -0.414 A  
HETATM   21  C   UNL     1     -11.679   7.934  71.456  1.00  0.00    -0.317 A  
HETATM   22  C   UNL     1     -10.758   8.630  70.634  1.00  0.00    -0.259 A  
ENDBRANCH  12  13
ENDBRANCH   6  12
ENDBRANCH   5   6
ENDBRANCH   4   5
ENDBRANCH   2   4
TORSDOF 6
ENDMDL
MODEL      301
REMARK 921   NORMALIZED FREE ENERGY PREDICTED BY IDOCK:   -1.77 KCAL/MOL
REMARK 922        TOTAL FREE ENERGY PREDICTED BY IDOCK:   -3.29 KCAL/MOL
REMARK 923 INTER-LIGAND FREE ENERGY PREDICTED BY IDOCK:   -4.37 KCAL/MOL
REMARK 924 INTRA-LIGAND FREE ENERGY PREDICTED BY IDOCK:    1.08 KCAL/MOL
REMARK 927      BINDING AFFINITY PREDICTED BY RF-SCORE:    0.00 PKD
ROOT
HETATM    1  C   UNL     1      -7.072  19.446  68.070  1.00  0.00    -0.265 C  
HETATM    2  N   UNL     1      -6.778  19.082  66.685  1.00  0.00    -0.191 NA 
HETATM    3  H   UNL     1      -5.775  19.014  66.518  1.00  0.00     0.000 HD 
ENDROOT
BRANCH   2   4
HETATM    4  C   UNL     1      -7.475  17.846  66.309  1.00  0.00    -0.286 C  
BRANCH   4   5
HETATM    5  C   UNL     1      -8.126  17.120  67.499  1.00  0.00    -0.196 C  
BRANCH   5   6
HETATM    6  C   UNL     1      -8.707  15.723  67.224  1.00  0.00    -0.191 C  
BRANCH   6   7
HETATM    7  C   UNL     1      -9.987  15.467  68.000  1.00  0.00    -0.221 A  
HETATM    8  C   UNL     1     -11.799  14.377  69.290  1.00  0.00    -0.325 A  
HETATM    9  S   UNL     1     -10.322  13.884  68.590  1.00  0.00    -0.213 SA 
HETATM   10  C   UNL     1     -11.013  16.338  68.320  1.00  0.00    -0.348 A  
HETATM   11  C   UNL     1     -12.055  15.711  69.067  1.00  0.00    -0.227 A  
ENDBRANCH   6   7
BRANCH   6  12
HETATM   12  O   UNL     1      -9.052  15.608  65.817  1.00  0.00    -0.303 OA 
BRANCH  12  13
HETATM   13  C   UNL     1     -10.217  14.934  65.508  1.00  0.00    -0.374 A  
HETATM   14  C   UNL     1     -12.571  14.913  64.913  1.00  0.00    -0.005 A  
HETATM   15  C   UNL     1     -11.395  15.610  65.168  1.00  0.00    -0.198 A  
HETATM   16  C   UNL     1     -12.580  13.524  64.974  1.00  0.00    -0.441 A  
HETATM   17  C   UNL     1     -11.407  12.811  65.241  1.00  0.00    -0.338 A  
HETATM   18  C   UNL     1     -11.441  11.409  65.259  1.00  0.00     0.013 A  
HETATM   19  C   UNL     1     -10.284  10.664  65.469  1.00  0.00    -0.329 A  
HETATM   20  C   UNL     1      -9.075  11.322  65.663  1.00  0.00    -0.203 A  
HETATM   21  C   UNL     1      -9.029  12.724  65.678  1.00  0.00     0.576 A  
HETATM   22  C   UNL     1     -10.192  13.508  65.484  1.00  0.00    -0.308 A  
ENDBRANCH  12  13
ENDBRANCH   6  12
ENDBRANCH   5   6
ENDBRANCH   4   5
ENDBRANCH   2   4
TORSDOF 6
ENDMDL
MODEL      302
REMARK 921   NORMALIZED FREE ENERGY PREDICTED BY IDOCK:   -1.41 KCAL/MOL
REMARK 922        TOTAL FREE ENERGY PREDICTED BY IDOCK:   -2.80 KCAL/MOL
REMARK 923 INTER-LIGAND FREE ENERGY PREDICTED BY IDOCK:   -3.57 KCAL/MOL
REMARK 924 INTRA-LIGAND FREE ENERGY PREDICTED BY IDOCK:    0.77 KCAL/MOL
REMARK 927      BINDING AFFINITY PREDICTED BY RF-SCORE:    0.00 PKD
ROOT
HETATM    1  C   UNL     1      -7.288  18.721  67.831  1.00  0.00    -0.241 C  
HETATM    2  N   UNL     1      -6.698  17.859  66.808  1.00  0.00    -0.172 NA 
HETATM    3  H   UNL     1      -5.697  17.728  66.957  1.00  0.00     0.000 HD 
ENDROOT
BRANCH   2   4
HETATM    4  C   UNL     1      -7.406  16.576  66.731  1.00  0.00    -0.239 C  
BRANCH   4   5
HETATM    5  C   UNL     1      -8.054  16.151  68.059  1.00  0.00    -0.149 C  
BRANCH   5   6
HETATM    6  C   UNL     1      -8.543  14.695  68.157  1.00  0.00    -0.166 C  
BRANCH   6   7
HETATM    7  C   UNL     1     -10.020  14.603  68.497  1.00  0.00    -0.235 A  
HETATM    8  C   UNL     1     -12.204  13.853  69.392  1.00  0.00    -0.292 A  
HETATM    9  S   UNL     1     -10.596  13.281  69.439  1.00  0.00     0.364 SA 
HETATM   10  C   UNL     1     -11.061  15.442  68.140  1.00  0.00    -0.309 A  
HETATM   11  C   UNL     1     -12.318  15.012  68.659  1.00  0.00     0.050 A  
ENDBRANCH   6   7
BRANCH   6  12
HETATM   12  O   UNL     1      -8.378  14.040  66.871  1.00  0.00    -0.147 OA 
BRANCH  12  13
HETATM   13  C   UNL     1      -9.352  13.136  66.495  1.00  0.00    -0.216 A  
HETATM   14  C   UNL     1     -11.435  12.595  65.371  1.00  0.00    -0.373 A  
HETATM   15  C   UNL     1     -10.437  13.508  65.692  1.00  0.00    -0.296 A  
HETATM   16  C   UNL     1     -11.352  11.286  65.833  1.00  0.00     0.008 A  
HETATM   17  C   UNL     1     -10.249  10.859  66.579  1.00  0.00    -0.282 A  
HETATM   18  C   UNL     1     -10.175   9.523  66.999  1.00  0.00    -0.321 A  
HETATM   19  C   UNL     1      -9.069   9.048  67.698  1.00  0.00    -0.144 A  
HETATM   20  C   UNL     1      -8.019   9.913  67.982  1.00  0.00    -0.100 A  
HETATM   21  C   UNL     1      -8.090  11.259  67.596  1.00  0.00    -0.119 A  
HETATM   22  C   UNL     1      -9.210  11.775  66.898  1.00  0.00    -0.189 A  
ENDBRANCH  12  13
ENDBRANCH   6  12
ENDBRANCH   5   6
ENDBRANCH   4   5
ENDBRANCH   2   4
TORSDOF 6
ENDMDL
MODEL      303
REMARK 921   NORMALIZED FREE ENERGY PREDICTED BY IDOCK:   -1.24 KCAL/MOL
REMARK 922        TOTAL FREE ENERGY PREDICTED BY IDOCK:   -2.58 KCAL/MOL
REMARK 923 INTER-LIGAND FREE ENERGY PREDICTED BY IDOCK:   -2.10 KCAL/MOL
REMARK 924 INTRA-LIGAND FREE ENERGY PREDICTED BY IDOCK:   -0.48 KCAL/MOL
REMARK 927      BINDING AFFINITY PREDICTED BY RF-SCORE:    0.00 PKD
ROOT
HETATM    1  C   UNL     1     -10.806   7.027  66.905  1.00  0.00    -0.280 C  
HETATM    2  N   UNL     1     -10.663   8.267  67.667  1.00  0.00    -0.479 NA 
HETATM    3  H   UNL     1     -11.239   9.015  67.281  1.00  0.00     0.000 HD 
ENDROOT
BRANCH   2   4
HETATM    4  C   UNL     1     -10.946   8.045  69.089  1.00  0.00     0.078 C  
BRANCH   4   5
HETATM    5  C   UNL     1      -9.711   7.623  69.903  1.00  0.00    -0.175 C  
BRANCH   5   6
HETATM    6  C   UNL     1      -8.379   8.303  69.544  1.00  0.00    -0.121 C  
BRANCH   6   7
HETATM    7  C   UNL     1      -7.336   7.312  69.059  1.00  0.00    -0.091 A  
HETATM    8  C   UNL     1      -6.205   5.439  67.899  1.00  0.00    -0.038 A  
HETATM    9  S   UNL     1      -7.790   6.071  67.955  1.00  0.00    -0.106 SA 
HETATM   10  C   UNL     1      -5.996   7.211  69.388  1.00  0.00    -0.026 A  
HETATM   11  C   UNL     1      -5.343   6.135  68.716  1.00  0.00    -0.007 A  
ENDBRANCH   6   7
BRANCH   6  12
HETATM   12  O   UNL     1      -8.590   9.241  68.455  1.00  0.00    -0.126 OA 
BRANCH  12  13
HETATM   13  C   UNL     1      -7.616  10.198  68.251  1.00  0.00    -0.087 A  
HETATM   14  C   UNL     1      -6.335  12.124  68.991  1.00  0.00    -0.087 A  
HETATM   15  C   UNL     1      -7.280  11.135  69.237  1.00  0.00    -0.112 A  
HETATM   16  C   UNL     1      -5.694  12.179  67.759  1.00  0.00    -0.085 A  
HETATM   17  C   UNL     1      -5.951  11.219  66.775  1.00  0.00    -0.132 A  
HETATM   18  C   UNL     1      -5.261  11.279  65.555  1.00  0.00     0.148 A  
HETATM   19  C   UNL     1      -5.451  10.312  64.572  1.00  0.00    -0.129 A  
HETATM   20  C   UNL     1      -6.340   9.270  64.804  1.00  0.00    -0.075 A  
HETATM   21  C   UNL     1      -7.060   9.211  66.006  1.00  0.00    -0.090 A  
HETATM   22  C   UNL     1      -6.900  10.189  67.018  1.00  0.00    -0.083 A  
ENDBRANCH  12  13
ENDBRANCH   6  12
ENDBRANCH   5   6
ENDBRANCH   4   5
ENDBRANCH   2   4
TORSDOF 6
ENDMDL
MODEL      304
REMARK 921   NORMALIZED FREE ENERGY PREDICTED BY IDOCK:   -0.86 KCAL/MOL
REMARK 922        TOTAL FREE ENERGY PREDICTED BY IDOCK:   -2.06 KCAL/MOL
REMARK 923 INTER-LIGAND FREE ENERGY PREDICTED BY IDOCK:   -2.79 KCAL/MOL
REMARK 924 INTRA-LIGAND FREE ENERGY PREDICTED BY IDOCK:    0.73 KCAL/MOL
REMARK 927      BINDING AFFINITY PREDICTED BY RF-SCORE:    0.00 PKD
ROOT
HETATM    1  C   UNL     1      -8.879   9.391  64.800  1.00  0.00    -0.204 C  
HETATM    2  N   UNL     1      -7.468   9.042  64.952  1.00  0.00    -0.102 NA 
HETATM    3  H   UNL     1      -7.061   8.727  64.071  1.00  0.00     0.000 HD 
ENDROOT
BRANCH   2   4
HETATM    4  C   UNL     1      -6.711  10.157  65.531  1.00  0.00    -0.122 C  
BRANCH   4   5
HETATM    5  C   UNL     1      -7.560  11.081  66.420  1.00  0.00    -0.135 C  
BRANCH   5   6
HETATM    6  C   UNL     1      -8.318  10.419  67.583  1.00  0.00    -0.114 C  
BRANCH   6   7
HETATM    7  C   UNL     1      -7.495   9.347  68.274  1.00  0.00    -0.078 A  
HETATM    8  C   UNL     1      -6.813   7.342  69.559  1.00  0.00    -0.049 A  
HETATM    9  S   UNL     1      -8.291   8.061  69.099  1.00  0.00    -0.133 SA 
HETATM   10  C   UNL     1      -6.121   9.224  68.384  1.00  0.00    -0.045 A  
HETATM   11  C   UNL     1      -5.728   8.066  69.120  1.00  0.00    -0.034 A  
ENDBRANCH   6   7
BRANCH   6  12
HETATM   12  O   UNL     1      -8.622  11.417  68.595  1.00  0.00    -0.157 OA 
BRANCH  12  13
HETATM   13  C   UNL     1      -7.926  12.607  68.535  1.00  0.00    -0.093 A  
HETATM   14  C   UNL     1      -5.901  13.908  68.856  1.00  0.00    -0.083 A  
HETATM   15  C   UNL     1      -6.569  12.689  68.871  1.00  0.00    -0.095 A  
HETATM   16  C   UNL     1      -6.576  15.064  68.481  1.00  0.00    -0.096 A  
HETATM   17  C   UNL     1      -7.912  15.011  68.071  1.00  0.00    -0.134 A  
HETATM   18  C   UNL     1      -8.556  16.189  67.663  1.00  0.00    -0.181 A  
HETATM   19  C   UNL     1      -9.868  16.168  67.198  1.00  0.00    -0.241 A  
HETATM   20  C   UNL     1     -10.550  14.959  67.137  1.00  0.00    -0.285 A  
HETATM   21  C   UNL     1      -9.932  13.777  67.569  1.00  0.00    -0.233 A  
HETATM   22  C   UNL     1      -8.604  13.769  68.062  1.00  0.00    -0.177 A  
ENDBRANCH  12  13
ENDBRANCH   6  12
ENDBRANCH   5   6
ENDBRANCH   4   5
ENDBRANCH   2   4
TORSDOF 6
ENDMDL
MODEL      305
REMARK 921   NORMALIZED FREE ENERGY PREDICTED BY IDOCK:    3.29 KCAL/MOL
REMARK 922        TOTAL FREE ENERGY PREDICTED BY IDOCK:    3.55 KCAL/MOL
REMARK 923 INTER-LIGAND FREE ENERGY PREDICTED BY IDOCK:    1.49 KCAL/MOL
REMARK 924 INTRA-LIGAND FREE ENERGY PREDICTED BY IDOCK:    2.06 KCAL/MOL
REMARK 927      BINDING AFFINITY PREDICTED BY RF-SCORE:    0.00 PKD
ROOT
HETATM    1  C   UNL     1      -8.182   6.567  65.637  1.00  0.00    -0.137 C  
HETATM    2  N   UNL     1      -9.184   7.631  65.625  1.00  0.00    -0.391 NA 
HETATM    3  H   UNL     1      -8.886   8.436  66.176  1.00  0.00     0.000 HD 
ENDROOT
BRANCH   2   4
HETATM    4  C   UNL     1      -9.526   8.013  64.250  1.00  0.00     2.187 C  
BRANCH   4   5
HETATM    5  C   UNL     1      -9.780   9.520  64.076  1.00  0.00     0.563 C  
BRANCH   5   6
HETATM    6  C   UNL     1      -8.885  10.472  64.887  1.00  0.00    -0.192 C  
BRANCH   6   7
HETATM    7  C   UNL     1      -7.417  10.338  64.522  1.00  0.00    -0.088 A  
HETATM    8  C   UNL     1      -5.150  10.766  63.620  1.00  0.00    -0.148 A  
HETATM    9  S   UNL     1      -6.648  11.586  63.617  1.00  0.00     2.807 SA 
HETATM   10  C   UNL     1      -6.533   9.308  64.789  1.00  0.00    -0.076 A  
HETATM   11  C   UNL     1      -5.226   9.557  64.273  1.00  0.00    -0.060 A  
ENDBRANCH   6   7
BRANCH   6  12
HETATM   12  O   UNL     1      -9.254  11.848  64.601  1.00  0.00     0.089 OA 
BRANCH  12  13
HETATM   13  C   UNL     1      -9.975  12.520  65.568  1.00  0.00    -0.234 A  
HETATM   14  C   UNL     1     -11.002  14.541  66.438  1.00  0.00    -0.324 A  
HETATM   15  C   UNL     1     -10.323  13.869  65.428  1.00  0.00    -0.364 A  
HETATM   16  C   UNL     1     -11.362  13.866  67.599  1.00  0.00    -0.335 A  
HETATM   17  C   UNL     1     -11.093  12.502  67.746  1.00  0.00    -0.291 A  
HETATM   18  C   UNL     1     -11.502  11.840  68.913  1.00  0.00    -0.357 A  
HETATM   19  C   UNL     1     -11.299  10.472  69.073  1.00  0.00    -0.319 A  
HETATM   20  C   UNL     1     -10.683   9.751  68.059  1.00  0.00    -0.298 A  
HETATM   21  C   UNL     1     -10.241  10.402  66.898  1.00  0.00    -0.281 A  
HETATM   22  C   UNL     1     -10.418  11.795  66.714  1.00  0.00    -0.260 A  
ENDBRANCH  12  13
ENDBRANCH   6  12
ENDBRANCH   5   6
ENDBRANCH   4   5
ENDBRANCH   2   4
TORSDOF 6
ENDMDL
MODEL      306
REMARK 921   NORMALIZED FREE ENERGY PREDICTED BY IDOCK:    5.92 KCAL/MOL
REMARK 922        TOTAL FREE ENERGY PREDICTED BY IDOCK:    7.10 KCAL/MOL
REMARK 923 INTER-LIGAND FREE ENERGY PREDICTED BY IDOCK:    5.31 KCAL/MOL
REMARK 924 INTRA-LIGAND FREE ENERGY PREDICTED BY IDOCK:    1.79 KCAL/MOL
REMARK 927      BINDING AFFINITY PREDICTED BY RF-SCORE:    0.00 PKD
ROOT
HETATM    1  C   UNL     1     -10.147  14.806  63.690  1.00  0.00     4.717 C  
HETATM    2  N   UNL     1      -9.844  14.365  65.051  1.00  0.00    -0.519 NA 
HETATM    3  H   UNL     1      -8.943  14.722  65.370  1.00  0.00     0.000 HD 
ENDROOT
BRANCH   2   4
HETATM    4  C   UNL     1     -10.927  14.728  65.972  1.00  0.00    -0.328 C  
BRANCH   4   5
HETATM    5  C   UNL     1     -10.451  14.968  67.415  1.00  0.00    -0.257 C  
BRANCH   5   6
HETATM    6  C   UNL     1      -9.076  15.634  67.590  1.00  0.00    -0.192 C  
BRANCH   6   7
HETATM    7  C   UNL     1      -7.950  14.621  67.687  1.00  0.00    -0.179 A  
HETATM    8  C   UNL     1      -6.656  12.544  68.071  1.00  0.00    -0.086 A  
HETATM    9  S   UNL     1      -8.287  13.024  68.238  1.00  0.00    -0.135 SA 
HETATM   10  C   UNL     1      -6.602  14.771  67.411  1.00  0.00    -0.016 A  
HETATM   11  C   UNL     1      -5.858  13.573  67.628  1.00  0.00    -0.075 A  
ENDBRANCH   6   7
BRANCH   6  12
HETATM   12  O   UNL     1      -8.785  16.460  66.430  1.00  0.00    -0.260 OA 
BRANCH  12  13
HETATM   13  C   UNL     1      -7.857  17.469  66.593  1.00  0.00    -0.250 A  
HETATM   14  C   UNL     1      -6.327  19.122  65.684  1.00  0.00    -0.273 A  
HETATM   15  C   UNL     1      -7.300  18.146  65.501  1.00  0.00     0.120 A  
HETATM   16  C   UNL     1      -5.910  19.450  66.969  1.00  0.00    -0.174 A  
HETATM   17  C   UNL     1      -6.492  18.846  68.088  1.00  0.00    -0.231 A  
HETATM   18  C   UNL     1      -6.075  19.226  69.372  1.00  0.00    -0.299 A  
HETATM   19  C   UNL     1      -6.668  18.685  70.510  1.00  0.00     0.934 A  
HETATM   20  C   UNL     1      -7.690  17.754  70.370  1.00  0.00     3.040 A  
HETATM   21  C   UNL     1      -8.098  17.341  69.093  1.00  0.00    -0.006 A  
HETATM   22  C   UNL     1      -7.503  17.861  67.918  1.00  0.00    -0.216 A  
ENDBRANCH  12  13
ENDBRANCH   6  12
ENDBRANCH   5   6
ENDBRANCH   4   5
ENDBRANCH   2   4
TORSDOF 6
ENDMDL
MODEL      307
REMARK 921   NORMALIZED FREE ENERGY PREDICTED BY IDOCK:    7.72 KCAL/MOL
REMARK 922        TOTAL FREE ENERGY PREDICTED BY IDOCK:    9.52 KCAL/MOL
REMARK 923 INTER-LIGAND FREE ENERGY PREDICTED BY IDOCK:    4.34 KCAL/MOL
REMARK 924 INTRA-LIGAND FREE ENERGY PREDICTED BY IDOCK:    5.19 KCAL/MOL
REMARK 927      BINDING AFFINITY PREDICTED BY RF-SCORE:    0.00 PKD
ROOT
HETATM    1  C   UNL     1     -11.122  14.724  64.979  1.00  0.00    -0.405 C  
HETATM    2  N   UNL     1     -11.753  14.913  66.284  1.00  0.00    -0.245 NA 
HETATM    3  H   UNL     1     -12.768  14.839  66.226  1.00  0.00     0.000 HD 
ENDROOT
BRANCH   2   4
HETATM    4  C   UNL     1     -11.197  13.983  67.274  1.00  0.00    -0.312 C  
BRANCH   4   5
HETATM    5  C   UNL     1     -11.660  12.529  67.080  1.00  0.00    -0.437 C  
BRANCH   5   6
HETATM    6  C   UNL     1     -11.180  11.813  65.807  1.00  0.00    -0.281 C  
BRANCH   6   7
HETATM    7  C   UNL     1     -12.135  12.000  64.642  1.00  0.00    -0.232 A  
HETATM    8  C   UNL     1     -13.204  12.809  62.559  1.00  0.00     2.762 A  
HETATM    9  S   UNL     1     -11.794  13.189  63.443  1.00  0.00    -0.283 SA 
HETATM   10  C   UNL     1     -13.326  11.352  64.366  1.00  0.00     2.253 A  
HETATM   11  C   UNL     1     -13.940  11.815  63.164  1.00  0.00     2.654 A  
ENDBRANCH   6   7
BRANCH   6  12
HETATM   12  O   UNL     1      -9.907  12.373  65.385  1.00  0.00    -0.252 OA 
BRANCH  12  13
HETATM   13  C   UNL     1      -8.767  11.847  65.960  1.00  0.00     0.057 A  
HETATM   14  C   UNL     1      -7.023  10.160  66.075  1.00  0.00    -0.117 A  
HETATM   15  C   UNL     1      -8.139  10.705  65.448  1.00  0.00    -0.106 A  
HETATM   16  C   UNL     1      -6.505  10.765  67.215  1.00  0.00    -0.070 A  
HETATM   17  C   UNL     1      -7.062  11.946  67.714  1.00  0.00    -0.103 A  
HETATM   18  C   UNL     1      -6.493  12.552  68.844  1.00  0.00    -0.091 A  
HETATM   19  C   UNL     1      -6.987  13.756  69.340  1.00  0.00     0.002 A  
HETATM   20  C   UNL     1      -8.060  14.367  68.704  1.00  0.00    -0.146 A  
HETATM   21  C   UNL     1      -8.660  13.759  67.591  1.00  0.00    -0.187 A  
HETATM   22  C   UNL     1      -8.190  12.527  67.074  1.00  0.00    -0.125 A  
ENDBRANCH  12  13
ENDBRANCH   6  12
ENDBRANCH   5   6
ENDBRANCH   4   5
ENDBRANCH   2   4
TORSDOF 6
ENDMDL
MODEL      308
REMARK 921   NORMALIZED FREE ENERGY PREDICTED BY IDOCK:    8.18 KCAL/MOL
REMARK 922        TOTAL FREE ENERGY PREDICTED BY IDOCK:   10.15 KCAL/MOL
REMARK 923 INTER-LIGAND FREE ENERGY PREDICTED BY IDOCK:   -3.21 KCAL/MOL
REMARK 924 INTRA-LIGAND FREE ENERGY PREDICTED BY IDOCK:   13.36 KCAL/MOL
REMARK 927      BINDING AFFINITY PREDICTED BY RF-SCORE:    0.00 PKD
ROOT
HETATM    1  C   UNL     1     -10.474  11.132  66.957  1.00  0.00    -0.235 C  
HETATM    2  N   UNL     1     -11.387  11.816  67.871  1.00  0.00    -0.268 NA 
HETATM    3  H   UNL     1     -11.208  11.562  68.843  1.00  0.00     0.000 HD 
ENDROOT
BRANCH   2   4
HETATM    4  C   UNL     1     -11.338  13.268  67.673  1.00  0.00    -0.296 C  
BRANCH   4   5
HETATM    5  C   UNL     1      -9.930  13.865  67.839  1.00  0.00    -0.242 C  
BRANCH   5   6
HETATM    6  C   UNL     1      -8.982  13.141  68.811  1.00  0.00     0.166 C  
BRANCH   6   7
HETATM    7  C   UNL     1      -7.861  12.414  68.091  1.00  0.00    -0.146 A  
HETATM    8  C   UNL     1      -6.315  10.661  67.270  1.00  0.00    -0.064 A  
HETATM    9  S   UNL     1      -7.654  10.720  68.328  1.00  0.00    -0.103 SA 
HETATM   10  C   UNL     1      -6.895  12.911  67.233  1.00  0.00    -0.066 A  
HETATM   11  C   UNL     1      -6.008  11.900  66.757  1.00  0.00    -0.054 A  
ENDBRANCH   6   7
BRANCH   6  12
HETATM   12  O   UNL     1      -8.344  14.114  69.682  1.00  0.00     0.440 OA 
BRANCH  12  13
HETATM   13  C   UNL     1      -8.034  15.342  69.134  1.00  0.00    -0.222 A  
HETATM   14  C   UNL     1      -6.697  17.368  69.067  1.00  0.00    -0.243 A  
HETATM   15  C   UNL     1      -6.958  16.109  69.597  1.00  0.00    -0.112 A  
HETATM   16  C   UNL     1      -7.497  17.870  68.047  1.00  0.00    -0.233 A  
HETATM   17  C   UNL     1      -8.537  17.105  67.511  1.00  0.00    -0.209 A  
HETATM   18  C   UNL     1      -9.303  17.625  66.457  1.00  0.00    -0.286 A  
HETATM   19  C   UNL     1     -10.313  16.873  65.862  1.00  0.00    -0.327 A  
HETATM   20  C   UNL     1     -10.563  15.585  66.320  1.00  0.00    -0.310 A  
HETATM   21  C   UNL     1      -9.826  15.061  67.392  1.00  0.00    -0.224 A  
HETATM   22  C   UNL     1      -8.805  15.808  68.028  1.00  0.00    -0.176 A  
ENDBRANCH  12  13
ENDBRANCH   6  12
ENDBRANCH   5   6
ENDBRANCH   4   5
ENDBRANCH   2   4
TORSDOF 6
ENDMDL
MODEL      309
REMARK 921   NORMALIZED FREE ENERGY PREDICTED BY IDOCK:   20.48 KCAL/MOL
REMARK 922        TOTAL FREE ENERGY PREDICTED BY IDOCK:   26.76 KCAL/MOL
REMARK 923 INTER-LIGAND FREE ENERGY PREDICTED BY IDOCK:    9.31 KCAL/MOL
REMARK 924 INTRA-LIGAND FREE ENERGY PREDICTED BY IDOCK:   17.45 KCAL/MOL
REMARK 927      BINDING AFFINITY PREDICTED BY RF-SCORE:    0.00 PKD
ROOT
HETATM    1  C   UNL     1     -11.042  14.802  65.058  1.00  0.00    -0.405 C  
HETATM    2  N   UNL     1     -11.508  15.412  66.302  1.00  0.00    -0.087 NA 
HETATM    3  H   UNL     1     -12.508  15.612  66.272  1.00  0.00     0.000 HD 
ENDROOT
BRANCH   2   4
HETATM    4  C   UNL     1     -11.157  14.579  67.458  1.00  0.00    -0.307 C  
BRANCH   4   5
HETATM    5  C   UNL     1     -11.341  13.072  67.209  1.00  0.00    -0.348 C  
BRANCH   5   6
HETATM    6  C   UNL     1     -10.606  12.476  65.996  1.00  0.00    -0.263 C  
BRANCH   6   7
HETATM    7  C   UNL     1     -11.023  13.127  64.690  1.00  0.00    -0.356 A  
HETATM    8  C   UNL     1     -11.235  14.695  62.784  1.00  0.00     5.248 A  
HETATM    9  S   UNL     1     -10.347  14.647  64.242  1.00  0.00     1.273 SA 
HETATM   10  C   UNL     1     -11.931  12.694  63.739  1.00  0.00    -0.588 A  
HETATM   11  C   UNL     1     -12.049  13.595  62.639  1.00  0.00     1.763 A  
ENDBRANCH   6   7
BRANCH   6  12
HETATM   12  O   UNL     1      -9.178  12.708  66.131  1.00  0.00    -0.168 OA 
BRANCH  12  13
HETATM   13  C   UNL     1      -8.333  11.731  65.642  1.00  0.00     0.488 A  
HETATM   14  C   UNL     1      -6.713  10.934  64.018  1.00  0.00     0.583 A  
HETATM   15  C   UNL     1      -7.516  11.949  64.526  1.00  0.00     3.292 A  
HETATM   16  C   UNL     1      -6.699   9.688  64.634  1.00  0.00    -0.101 A  
HETATM   17  C   UNL     1      -7.447   9.454  65.792  1.00  0.00    -0.099 A  
HETATM   18  C   UNL     1      -7.382   8.198  66.412  1.00  0.00    -0.080 A  
HETATM   19  C   UNL     1      -8.071   7.943  67.595  1.00  0.00    -0.124 A  
HETATM   20  C   UNL     1      -8.834   8.951  68.171  1.00  0.00    -0.134 A  
HETATM   21  C   UNL     1      -8.933  10.204  67.548  1.00  0.00    -0.136 A  
HETATM   22  C   UNL     1      -8.257  10.487  66.336  1.00  0.00    -0.140 A  
ENDBRANCH  12  13
ENDBRANCH   6  12
ENDBRANCH   5   6
ENDBRANCH   4   5
ENDBRANCH   2   4
TORSDOF 6
ENDMDL
