MODEL        1
REMARK 921   NORMALIZED FREE ENERGY PREDICTED BY IDOCK:   -9.55 KCAL/MOL
REMARK 922        TOTAL FREE ENERGY PREDICTED BY IDOCK:  -11.30 KCAL/MOL
REMARK 923 INTER-LIGAND FREE ENERGY PREDICTED BY IDOCK:  -10.67 KCAL/MOL
REMARK 924 INTRA-LIGAND FREE ENERGY PREDICTED BY IDOCK:   -0.63 KCAL/MOL
REMARK 927      BINDING AFFINITY PREDICTED BY RF-SCORE:    0.00 PKD
ROOT
HETATM    1  C   UNL     1     -10.126  13.840  66.234  1.00  0.00    -0.304 C  
HETATM    2  H   UNL     1     -12.795   7.730  72.098  1.00  0.00     0.000 HD 
HETATM    3  C   UNL     1     -11.656  13.885  66.342  1.00  0.00    -0.382 C  
HETATM    4  C   UNL     1     -11.834  13.373  67.755  1.00  0.00    -0.395 C  
HETATM    5  C   UNL     1     -10.804   8.014  72.653  1.00  0.00    -0.368 C  
HETATM    6  O   UNL     1     -10.886   7.531  73.773  1.00  0.00    -0.316 OA 
HETATM    7  C   UNL     1      -8.293  12.199  66.459  1.00  0.00     0.019 C  
HETATM    8  C   UNL     1     -10.941  12.132  67.749  1.00  0.00    -0.278 C  
HETATM    9  N   UNL     1     -11.926   8.210  71.865  1.00  0.00    -0.301 N  
HETATM   10  C   UNL     1      -9.821  12.256  66.588  1.00  0.00    -0.230 C  
HETATM   11  C   UNL     1     -10.699  11.283  68.996  1.00  0.00    -0.257 C  
HETATM   12  C   UNL     1     -11.827  11.536  70.017  1.00  0.00    -0.435 C  
HETATM   13  C   UNL     1     -10.157  10.782  66.020  1.00  0.00    -0.305 C  
HETATM   14  C   UNL     1      -9.910   9.625  67.201  1.00  0.00    -0.238 C  
HETATM   15  C   UNL     1     -11.851  10.564  71.180  1.00  0.00    -0.391 C  
HETATM   16  C   UNL     1     -10.739   9.797  68.539  1.00  0.00    -0.252 C  
HETATM   17  C   UNL     1     -11.883   9.094  70.706  1.00  0.00    -0.227 C  
HETATM   18  C   UNL     1     -10.769   7.307  69.285  1.00  0.00    -0.212 C  
HETATM   19  C   UNL     1     -10.645   8.768  69.776  1.00  0.00    -0.227 C  
HETATM   20  C   UNL     1      -9.434   8.798  70.740  1.00  0.00    -0.253 C  
HETATM   21  C   UNL     1      -9.521   8.470  72.059  1.00  0.00    -0.364 C  
ENDROOT
BRANCH   1  22
HETATM   22  C   UNL     1      -9.588  15.367  65.851  1.00  0.00    -0.351 C  
HETATM   23  N   UNL     1      -8.645  16.076  66.578  1.00  0.00    -0.280 N  
HETATM   24  O   UNL     1     -10.212  15.966  64.948  1.00  0.00    -0.472 OA 
HETATM   25  H   UNL     1      -8.064  15.536  67.220  1.00  0.00     0.000 HD 
BRANCH  23  26
HETATM   26  C   UNL     1      -8.392  17.540  66.522  1.00  0.00    -0.270 A  
HETATM   27  C   UNL     1      -9.207  18.460  67.233  1.00  0.00    -0.271 A  
HETATM   28  F   UNL     1      -5.321  19.311  64.087  1.00  0.00    -0.193 F  
HETATM   29  F   UNL     1     -11.526  18.673  67.705  1.00  0.00    -0.186 F  
HETATM   30  F   UNL     1     -10.191  18.457  69.405  1.00  0.00    -0.353 F  
HETATM   31  F   UNL     1     -10.639  16.739  68.139  1.00  0.00    -0.287 F  
HETATM   32  F   UNL     1      -5.203  20.942  65.525  1.00  0.00    -0.206 F  
HETATM   33  F   UNL     1      -6.613  21.045  63.869  1.00  0.00    -0.350 F  
HETATM   34  C   UNL     1      -8.972  19.862  67.169  1.00  0.00    -0.425 A  
HETATM   35  C   UNL     1      -7.955  20.409  66.392  1.00  0.00    -0.179 A  
HETATM   36  C   UNL     1      -6.081  20.194  64.791  1.00  0.00    -0.261 C  
HETATM   37  C   UNL     1      -7.144  19.554  65.655  1.00  0.00    -0.306 A  
HETATM   38  C   UNL     1      -7.367  18.130  65.732  1.00  0.00    -0.170 A  
HETATM   39  C   UNL     1     -10.376  18.077  68.108  1.00  0.00    -0.388 C  
ENDBRANCH  23  26
ENDBRANCH   1  22
TORSDOF 2
ENDMDL
MODEL        2
REMARK 921   NORMALIZED FREE ENERGY PREDICTED BY IDOCK:   -9.14 KCAL/MOL
REMARK 922        TOTAL FREE ENERGY PREDICTED BY IDOCK:  -10.84 KCAL/MOL
REMARK 923 INTER-LIGAND FREE ENERGY PREDICTED BY IDOCK:  -10.19 KCAL/MOL
REMARK 924 INTRA-LIGAND FREE ENERGY PREDICTED BY IDOCK:   -0.65 KCAL/MOL
REMARK 927      BINDING AFFINITY PREDICTED BY RF-SCORE:    0.00 PKD
ROOT
HETATM    1  C   UNL     1     -10.118  13.336  66.333  1.00  0.00    -0.290 C  
HETATM    2  H   UNL     1     -12.810   7.285  72.248  1.00  0.00     0.000 HD 
HETATM    3  C   UNL     1     -11.648  13.382  66.435  1.00  0.00    -0.381 C  
HETATM    4  C   UNL     1     -11.832  12.884  67.853  1.00  0.00    -0.388 C  
HETATM    5  C   UNL     1     -10.821   7.574  72.808  1.00  0.00    -0.346 C  
HETATM    6  O   UNL     1     -10.907   7.103  73.932  1.00  0.00    -0.258 OA 
HETATM    7  C   UNL     1      -8.286  11.697  66.582  1.00  0.00    -0.140 C  
HETATM    8  C   UNL     1     -10.939  11.643  67.862  1.00  0.00    -0.277 C  
HETATM    9  N   UNL     1     -11.941   7.763  72.013  1.00  0.00    -0.296 N  
HETATM   10  C   UNL     1      -9.815  11.756  66.704  1.00  0.00    -0.223 C  
HETATM   11  C   UNL     1     -10.702  10.806  69.119  1.00  0.00    -0.265 C  
HETATM   12  C   UNL     1     -11.834  11.069  70.133  1.00  0.00    -0.441 C  
HETATM   13  C   UNL     1     -10.149  10.276  66.150  1.00  0.00    -0.307 C  
HETATM   14  C   UNL     1      -9.907   9.130  67.343  1.00  0.00    -0.237 C  
HETATM   15  C   UNL     1     -11.862  10.109  71.306  1.00  0.00    -0.448 C  
HETATM   16  C   UNL     1     -10.741   9.316  68.677  1.00  0.00    -0.180 C  
HETATM   17  C   UNL     1     -11.893   8.634  70.846  1.00  0.00    -0.225 C  
HETATM   18  C   UNL     1     -10.774   6.833  69.448  1.00  0.00    -0.291 C  
HETATM   19  C   UNL     1     -10.651   8.300  69.925  1.00  0.00    -0.232 C  
HETATM   20  C   UNL     1      -9.444   8.340  70.892  1.00  0.00    -0.192 C  
HETATM   21  C   UNL     1      -9.536   8.024  72.215  1.00  0.00    -0.286 C  
ENDROOT
BRANCH   1  22
HETATM   22  C   UNL     1      -9.579  14.859  65.937  1.00  0.00    -0.308 C  
HETATM   23  N   UNL     1      -8.678  15.597  66.689  1.00  0.00    -0.273 N  
HETATM   24  O   UNL     1     -10.166  15.428  64.991  1.00  0.00    -0.357 OA 
HETATM   25  H   UNL     1      -8.122  15.079  67.370  1.00  0.00     0.000 HD 
BRANCH  23  26
HETATM   26  C   UNL     1      -8.438  17.062  66.608  1.00  0.00    -0.248 A  
HETATM   27  C   UNL     1      -9.282  17.988  67.275  1.00  0.00    -0.255 A  
HETATM   28  F   UNL     1      -5.318  18.811  64.219  1.00  0.00    -0.219 F  
HETATM   29  F   UNL     1     -11.614  18.188  67.678  1.00  0.00     0.085 F  
HETATM   30  F   UNL     1     -10.326  18.023  69.418  1.00  0.00    -0.356 F  
HETATM   31  F   UNL     1     -10.722  16.272  68.179  1.00  0.00    -0.270 F  
HETATM   32  F   UNL     1      -5.256  20.473  65.625  1.00  0.00    -0.184 F  
HETATM   33  F   UNL     1      -6.621  20.526  63.928  1.00  0.00    -0.276 F  
HETATM   34  C   UNL     1      -9.059  19.391  67.186  1.00  0.00    -0.359 A  
HETATM   35  C   UNL     1      -8.026  19.931  66.426  1.00  0.00    -0.345 A  
HETATM   36  C   UNL     1      -6.106  19.701  64.883  1.00  0.00    -0.262 C  
HETATM   37  C   UNL     1      -7.186  19.068  65.731  1.00  0.00    -0.263 A  
HETATM   38  C   UNL     1      -7.397  17.644  65.833  1.00  0.00    -0.213 A  
HETATM   39  C   UNL     1     -10.471  17.612  68.126  1.00  0.00    -0.385 C  
ENDBRANCH  23  26
ENDBRANCH   1  22
TORSDOF 2
ENDMDL
MODEL        3
REMARK 921   NORMALIZED FREE ENERGY PREDICTED BY IDOCK:   -9.12 KCAL/MOL
REMARK 922        TOTAL FREE ENERGY PREDICTED BY IDOCK:  -10.82 KCAL/MOL
REMARK 923 INTER-LIGAND FREE ENERGY PREDICTED BY IDOCK:  -10.24 KCAL/MOL
REMARK 924 INTRA-LIGAND FREE ENERGY PREDICTED BY IDOCK:   -0.57 KCAL/MOL
REMARK 927      BINDING AFFINITY PREDICTED BY RF-SCORE:    0.00 PKD
ROOT
HETATM    1  C   UNL     1     -10.626  11.790  68.093  1.00  0.00    -0.230 C  
HETATM    2  H   UNL     1      -6.915  19.445  65.547  1.00  0.00     0.000 HD 
HETATM    3  C   UNL     1      -9.702  11.525  66.897  1.00  0.00    -0.205 C  
HETATM    4  C   UNL     1      -8.713  12.658  67.073  1.00  0.00    -0.198 C  
HETATM    5  C   UNL     1      -7.466  19.871  67.514  1.00  0.00    -0.279 C  
HETATM    6  O   UNL     1      -6.742  20.843  67.670  1.00  0.00    -0.322 OA 
HETATM    7  C   UNL     1     -12.033  13.613  68.987  1.00  0.00    -0.392 C  
HETATM    8  C   UNL     1      -9.646  13.852  67.277  1.00  0.00    -0.243 C  
HETATM    9  N   UNL     1      -7.390  19.085  66.375  1.00  0.00    -0.235 N  
HETATM   10  C   UNL     1     -11.090  13.349  67.806  1.00  0.00    -0.292 C  
HETATM   11  C   UNL     1      -9.132  15.257  67.592  1.00  0.00    -0.184 C  
HETATM   12  C   UNL     1      -7.655  15.372  67.162  1.00  0.00    -0.238 C  
HETATM   13  C   UNL     1     -11.870  14.214  66.687  1.00  0.00    -0.447 C  
HETATM   14  C   UNL     1     -11.520  15.841  66.850  1.00  0.00     0.165 C  
HETATM   15  C   UNL     1      -7.106  16.785  67.175  1.00  0.00    -0.222 C  
HETATM   16  C   UNL     1      -9.992  16.245  66.753  1.00  0.00    -0.268 C  
HETATM   17  C   UNL     1      -7.978  17.752  66.343  1.00  0.00    -0.271 C  
HETATM   18  C   UNL     1     -10.302  18.700  65.956  1.00  0.00    -0.436 C  
HETATM   19  C   UNL     1      -9.471  17.766  66.866  1.00  0.00    -0.271 C  
HETATM   20  C   UNL     1      -9.380  18.471  68.241  1.00  0.00    -0.350 C  
HETATM   21  C   UNL     1      -8.446  19.419  68.534  1.00  0.00    -0.397 C  
ENDROOT
BRANCH   1  22
HETATM   22  C   UNL     1     -10.659  10.420  69.036  1.00  0.00    -0.221 C  
HETATM   23  N   UNL     1     -11.035  10.391  70.370  1.00  0.00    -0.402 N  
HETATM   24  O   UNL     1     -10.143   9.393  68.544  1.00  0.00    -0.174 OA 
HETATM   25  H   UNL     1     -11.565  11.193  70.712  1.00  0.00     0.000 HD 
BRANCH  23  26
HETATM   26  C   UNL     1     -10.746   9.315  71.354  1.00  0.00    -0.362 A  
HETATM   27  C   UNL     1     -11.791   8.597  71.994  1.00  0.00    -0.443 A  
HETATM   28  F   UNL     1      -6.768   8.283  72.622  1.00  0.00    -0.071 F  
HETATM   29  F   UNL     1     -13.924   9.129  72.895  1.00  0.00    -0.459 F  
HETATM   30  F   UNL     1     -13.876   7.709  71.253  1.00  0.00    -0.391 F  
HETATM   31  F   UNL     1     -13.541   9.830  70.875  1.00  0.00    -0.415 F  
HETATM   32  F   UNL     1      -7.474   6.255  72.986  1.00  0.00    -0.091 F  
HETATM   33  F   UNL     1      -7.613   7.758  74.555  1.00  0.00    -0.150 F  
HETATM   34  C   UNL     1     -11.514   7.576  72.945  1.00  0.00    -0.311 A  
HETATM   35  C   UNL     1     -10.216   7.243  73.320  1.00  0.00    -0.365 A  
HETATM   36  C   UNL     1      -7.766   7.570  73.214  1.00  0.00    -0.101 C  
HETATM   37  C   UNL     1      -9.156   7.934  72.744  1.00  0.00    -0.272 A  
HETATM   38  C   UNL     1      -9.432   8.958  71.765  1.00  0.00    -0.334 A  
HETATM   39  C   UNL     1     -13.264   8.821  71.750  1.00  0.00    -0.367 C  
ENDBRANCH  23  26
ENDBRANCH   1  22
TORSDOF 2
ENDMDL
MODEL        4
REMARK 921   NORMALIZED FREE ENERGY PREDICTED BY IDOCK:   -9.00 KCAL/MOL
REMARK 922        TOTAL FREE ENERGY PREDICTED BY IDOCK:  -10.68 KCAL/MOL
REMARK 923 INTER-LIGAND FREE ENERGY PREDICTED BY IDOCK:   -9.99 KCAL/MOL
REMARK 924 INTRA-LIGAND FREE ENERGY PREDICTED BY IDOCK:   -0.70 KCAL/MOL
REMARK 927      BINDING AFFINITY PREDICTED BY RF-SCORE:    0.00 PKD
ROOT
HETATM    1  C   UNL     1     -10.283  11.533  68.275  1.00  0.00    -0.205 C  
HETATM    2  H   UNL     1      -7.335  19.464  65.580  1.00  0.00     0.000 HD 
HETATM    3  C   UNL     1      -9.538  11.364  66.945  1.00  0.00    -0.203 C  
HETATM    4  C   UNL     1      -8.585  12.538  67.027  1.00  0.00    -0.188 C  
HETATM    5  C   UNL     1      -7.603  19.780  67.625  1.00  0.00    -0.282 C  
HETATM    6  O   UNL     1      -6.907  20.780  67.719  1.00  0.00    -0.313 OA 
HETATM    7  C   UNL     1     -11.619  13.244  69.455  1.00  0.00    -0.364 C  
HETATM    8  C   UNL     1      -9.528  13.674  67.424  1.00  0.00    -0.225 C  
HETATM    9  N   UNL     1      -7.664  19.047  66.451  1.00  0.00    -0.264 N  
HETATM   10  C   UNL     1     -10.853  13.077  68.136  1.00  0.00    -0.267 C  
HETATM   11  C   UNL     1      -9.035  15.088  67.726  1.00  0.00    -0.179 C  
HETATM   12  C   UNL     1      -7.645  15.295  67.089  1.00  0.00    -0.224 C  
HETATM   13  C   UNL     1     -11.829  13.947  67.188  1.00  0.00    -0.445 C  
HETATM   14  C   UNL     1     -11.531  15.581  67.374  1.00  0.00    -0.140 C  
HETATM   15  C   UNL     1      -7.163  16.732  67.088  1.00  0.00    -0.220 C  
HETATM   16  C   UNL     1     -10.053  16.065  67.073  1.00  0.00    -0.271 C  
HETATM   17  C   UNL     1      -8.191  17.688  66.442  1.00  0.00    -0.263 C  
HETATM   18  C   UNL     1     -10.586  18.532  66.450  1.00  0.00    -0.365 C  
HETATM   19  C   UNL     1      -9.588  17.605  67.181  1.00  0.00    -0.278 C  
HETATM   20  C   UNL     1      -9.323  18.256  68.559  1.00  0.00    -0.334 C  
HETATM   21  C   UNL     1      -8.398  19.237  68.756  1.00  0.00    -0.386 C  
ENDROOT
BRANCH   1  22
HETATM   22  C   UNL     1     -10.115  10.126  69.146  1.00  0.00    -0.213 C  
HETATM   23  N   UNL     1     -11.064   9.117  69.204  1.00  0.00    -0.440 N  
HETATM   24  O   UNL     1      -9.142  10.069  69.929  1.00  0.00    -0.213 OA 
HETATM   25  H   UNL     1     -11.776   9.119  68.474  1.00  0.00     0.000 HD 
BRANCH  23  26
HETATM   26  C   UNL     1     -11.152   8.033  70.219  1.00  0.00    -0.224 A  
HETATM   27  C   UNL     1     -12.106   8.080  71.269  1.00  0.00    -0.314 A  
HETATM   28  F   UNL     1      -8.466   4.677  70.326  1.00  0.00    -0.072 F  
HETATM   29  F   UNL     1     -12.999   9.761  72.690  1.00  0.00    -0.410 F  
HETATM   30  F   UNL     1     -14.398   8.727  71.391  1.00  0.00    -0.446 F  
HETATM   31  F   UNL     1     -13.020  10.202  70.564  1.00  0.00    -0.372 F  
HETATM   32  F   UNL     1     -10.059   3.507  71.240  1.00  0.00    -0.248 F  
HETATM   33  F   UNL     1      -8.701   4.667  72.487  1.00  0.00    -0.110 F  
HETATM   34  C   UNL     1     -12.182   7.049  72.247  1.00  0.00    -0.174 A  
HETATM   35  C   UNL     1     -11.317   5.960  72.245  1.00  0.00    -0.351 A  
HETATM   36  C   UNL     1      -9.399   4.702  71.317  1.00  0.00    -0.146 C  
HETATM   37  C   UNL     1     -10.346   5.879  71.253  1.00  0.00    -0.276 A  
HETATM   38  C   UNL     1     -10.278   6.913  70.249  1.00  0.00    -0.208 A  
HETATM   39  C   UNL     1     -13.116   9.185  71.468  1.00  0.00    -0.349 C  
ENDBRANCH  23  26
ENDBRANCH   1  22
TORSDOF 2
ENDMDL
MODEL        5
REMARK 921   NORMALIZED FREE ENERGY PREDICTED BY IDOCK:   -8.81 KCAL/MOL
REMARK 922        TOTAL FREE ENERGY PREDICTED BY IDOCK:  -10.47 KCAL/MOL
REMARK 923 INTER-LIGAND FREE ENERGY PREDICTED BY IDOCK:   -9.82 KCAL/MOL
REMARK 924 INTRA-LIGAND FREE ENERGY PREDICTED BY IDOCK:   -0.65 KCAL/MOL
REMARK 927      BINDING AFFINITY PREDICTED BY RF-SCORE:    0.00 PKD
ROOT
HETATM    1  C   UNL     1     -10.135  12.884  66.627  1.00  0.00    -0.247 C  
HETATM    2  H   UNL     1     -12.601   6.699  72.503  1.00  0.00     0.000 HD 
HETATM    3  C   UNL     1     -11.647  12.993  66.864  1.00  0.00    -0.419 C  
HETATM    4  C   UNL     1     -11.733  12.441  68.270  1.00  0.00    -0.398 C  
HETATM    5  C   UNL     1     -10.560   6.874  72.897  1.00  0.00    -0.261 C  
HETATM    6  O   UNL     1     -10.573   6.358  74.005  1.00  0.00    -0.292 OA 
HETATM    7  C   UNL     1      -8.369  11.156  66.648  1.00  0.00    -0.160 C  
HETATM    8  C   UNL     1     -10.903  11.162  68.151  1.00  0.00    -0.266 C  
HETATM    9  N   UNL     1     -11.732   7.148  72.212  1.00  0.00    -0.273 N  
HETATM   10  C   UNL     1      -9.877  11.276  66.905  1.00  0.00    -0.220 C  
HETATM   11  C   UNL     1     -10.600  10.260  69.347  1.00  0.00    -0.262 C  
HETATM   12  C   UNL     1     -11.628  10.527  70.466  1.00  0.00    -0.441 C  
HETATM   13  C   UNL     1     -10.328   9.839  66.322  1.00  0.00    -0.235 C  
HETATM   14  C   UNL     1     -10.040   8.632  67.442  1.00  0.00    -0.292 C  
HETATM   15  C   UNL     1     -11.602   9.518  71.597  1.00  0.00    -0.451 C  
HETATM   16  C   UNL     1     -10.748   8.794  68.850  1.00  0.00    -0.114 C  
HETATM   17  C   UNL     1     -11.743   8.068  71.082  1.00  0.00    -0.284 C  
HETATM   18  C   UNL     1     -10.834   6.283  69.519  1.00  0.00    -0.404 C  
HETATM   19  C   UNL     1     -10.601   7.720  70.043  1.00  0.00    -0.238 C  
HETATM   20  C   UNL     1      -9.316   7.663  70.902  1.00  0.00    -0.158 C  
HETATM   21  C   UNL     1      -9.310   7.293  72.214  1.00  0.00    -0.162 C  
ENDROOT
BRANCH   1  22
HETATM   22  C   UNL     1      -9.559  14.397  66.248  1.00  0.00    -0.298 C  
HETATM   23  N   UNL     1      -8.686  15.129  67.038  1.00  0.00    -0.221 N  
HETATM   24  O   UNL     1     -10.093  14.968  65.271  1.00  0.00    -0.354 OA 
HETATM   25  H   UNL     1      -8.169  14.610  67.748  1.00  0.00     0.000 HD 
BRANCH  23  26
HETATM   26  C   UNL     1      -8.424  16.591  66.959  1.00  0.00    -0.197 A  
HETATM   27  C   UNL     1      -9.285  17.531  67.583  1.00  0.00    -0.243 A  
HETATM   28  F   UNL     1      -5.180  18.287  64.703  1.00  0.00    -0.179 F  
HETATM   29  F   UNL     1     -11.631  17.762  67.880  1.00  0.00     0.080 F  
HETATM   30  F   UNL     1     -10.423  17.591  69.677  1.00  0.00    -0.294 F  
HETATM   31  F   UNL     1     -10.785  15.839  68.431  1.00  0.00    -0.244 F  
HETATM   32  F   UNL     1      -5.160  19.958  66.100  1.00  0.00    -0.162 F  
HETATM   33  F   UNL     1      -6.446  20.017  64.345  1.00  0.00    -0.288 F  
HETATM   34  C   UNL     1      -9.041  18.931  67.497  1.00  0.00    -0.307 A  
HETATM   35  C   UNL     1      -7.968  19.453  66.781  1.00  0.00    -0.290 A  
HETATM   36  C   UNL     1      -5.985  19.191  65.326  1.00  0.00    -0.238 C  
HETATM   37  C   UNL     1      -7.109  18.577  66.128  1.00  0.00    -0.301 A  
HETATM   38  C   UNL     1      -7.343  17.156  66.229  1.00  0.00    -0.326 A  
HETATM   39  C   UNL     1     -10.515  17.175  68.382  1.00  0.00    -0.376 C  
ENDBRANCH  23  26
ENDBRANCH   1  22
TORSDOF 2
ENDMDL
MODEL        6
REMARK 921   NORMALIZED FREE ENERGY PREDICTED BY IDOCK:   -8.80 KCAL/MOL
REMARK 922        TOTAL FREE ENERGY PREDICTED BY IDOCK:  -10.46 KCAL/MOL
REMARK 923 INTER-LIGAND FREE ENERGY PREDICTED BY IDOCK:   -9.79 KCAL/MOL
REMARK 924 INTRA-LIGAND FREE ENERGY PREDICTED BY IDOCK:   -0.67 KCAL/MOL
REMARK 927      BINDING AFFINITY PREDICTED BY RF-SCORE:    0.00 PKD
ROOT
HETATM    1  C   UNL     1      -9.735  12.769  67.742  1.00  0.00    -0.207 C  
HETATM    2  H   UNL     1     -13.084   5.877  72.228  1.00  0.00     0.000 HD 
HETATM    3  C   UNL     1     -11.239  12.990  67.948  1.00  0.00    -0.304 C  
HETATM    4  C   UNL     1     -11.450  12.193  69.218  1.00  0.00    -0.363 C  
HETATM    5  C   UNL     1     -11.058   5.758  72.712  1.00  0.00    -0.284 C  
HETATM    6  O   UNL     1     -11.177   5.045  73.698  1.00  0.00    -0.315 OA 
HETATM    7  C   UNL     1      -8.149  10.893  67.482  1.00  0.00    -0.116 C  
HETATM    8  C   UNL     1     -10.743  10.880  68.879  1.00  0.00    -0.252 C  
HETATM    9  N   UNL     1     -12.162   6.278  72.057  1.00  0.00    -0.303 N  
HETATM   10  C   UNL     1      -9.649  11.120  67.711  1.00  0.00    -0.180 C  
HETATM   11  C   UNL     1     -10.590   9.741  69.886  1.00  0.00    -0.301 C  
HETATM   12  C   UNL     1     -11.642   9.898  71.003  1.00  0.00    -0.470 C  
HETATM   13  C   UNL     1     -10.207   9.875  66.847  1.00  0.00    -0.302 C  
HETATM   14  C   UNL     1     -10.095   8.454  67.720  1.00  0.00    -0.263 C  
HETATM   15  C   UNL     1     -11.772   8.695  71.917  1.00  0.00    -0.422 C  
HETATM   16  C   UNL     1     -10.854   8.420  69.109  1.00  0.00    -0.042 C  
HETATM   17  C   UNL     1     -12.026   7.392  71.126  1.00  0.00    -0.320 C  
HETATM   18  C   UNL     1     -11.217   5.851  69.276  1.00  0.00    -0.255 C  
HETATM   19  C   UNL     1     -10.873   7.130  70.075  1.00  0.00    -0.276 C  
HETATM   20  C   UNL     1      -9.644   6.776  70.947  1.00  0.00    -0.173 C  
HETATM   21  C   UNL     1      -9.740   6.166  72.161  1.00  0.00    -0.168 C  
ENDROOT
BRANCH   1  22
HETATM   22  C   UNL     1      -8.997  14.259  67.681  1.00  0.00    -0.194 C  
HETATM   23  N   UNL     1      -8.941  15.154  68.737  1.00  0.00    -0.187 N  
HETATM   24  O   UNL     1      -8.626  14.650  66.553  1.00  0.00    -0.165 OA 
HETATM   25  H   UNL     1      -9.128  14.776  69.666  1.00  0.00     0.000 HD 
BRANCH  23  26
HETATM   26  C   UNL     1      -8.639  16.608  68.659  1.00  0.00    -0.253 A  
HETATM   27  C   UNL     1      -7.375  17.122  69.051  1.00  0.00    -0.217 A  
HETATM   28  F   UNL     1     -11.525  19.556  67.447  1.00  0.00    -0.454 F  
HETATM   29  F   UNL     1      -5.820  16.685  70.793  1.00  0.00    -0.127 F  
HETATM   30  F   UNL     1      -5.128  16.381  68.757  1.00  0.00    -0.105 F  
HETATM   31  F   UNL     1      -6.504  14.956  69.670  1.00  0.00    -0.110 F  
HETATM   32  F   UNL     1      -9.879  20.782  66.718  1.00  0.00    -0.555 F  
HETATM   33  F   UNL     1     -10.536  20.952  68.787  1.00  0.00    -0.190 F  
HETATM   34  C   UNL     1      -7.090  18.516  68.988  1.00  0.00    -0.282 A  
HETATM   35  C   UNL     1      -8.034  19.447  68.568  1.00  0.00    -0.395 A  
HETATM   36  C   UNL     1     -10.304  20.051  67.792  1.00  0.00    -0.366 C  
HETATM   37  C   UNL     1      -9.297  18.999  68.198  1.00  0.00    -0.385 A  
HETATM   38  C   UNL     1      -9.584  17.585  68.243  1.00  0.00    -0.299 A  
HETATM   39  C   UNL     1      -6.225  16.288  69.561  1.00  0.00    -0.186 C  
ENDBRANCH  23  26
ENDBRANCH   1  22
TORSDOF 2
ENDMDL
MODEL        7
REMARK 921   NORMALIZED FREE ENERGY PREDICTED BY IDOCK:   -8.79 KCAL/MOL
REMARK 922        TOTAL FREE ENERGY PREDICTED BY IDOCK:  -10.44 KCAL/MOL
REMARK 923 INTER-LIGAND FREE ENERGY PREDICTED BY IDOCK:   -9.78 KCAL/MOL
REMARK 924 INTRA-LIGAND FREE ENERGY PREDICTED BY IDOCK:   -0.66 KCAL/MOL
REMARK 927      BINDING AFFINITY PREDICTED BY RF-SCORE:    0.00 PKD
ROOT
HETATM    1  C   UNL     1     -10.224  12.709  67.431  1.00  0.00    -0.219 C  
HETATM    2  H   UNL     1      -4.723  19.673  67.138  1.00  0.00     0.000 HD 
HETATM    3  C   UNL     1      -8.928  12.294  66.721  1.00  0.00    -0.209 C  
HETATM    4  C   UNL     1      -7.956  13.261  67.363  1.00  0.00    -0.175 C  
HETATM    5  C   UNL     1      -5.990  20.195  68.712  1.00  0.00    -0.284 C  
HETATM    6  O   UNL     1      -5.268  21.044  69.215  1.00  0.00    -0.335 OA 
HETATM    7  C   UNL     1     -11.599  14.735  67.756  1.00  0.00    -0.378 C  
HETATM    8  C   UNL     1      -8.705  14.587  67.226  1.00  0.00    -0.225 C  
HETATM    9  N   UNL     1      -5.551  19.398  67.667  1.00  0.00    -0.181 N  
HETATM   10  C   UNL     1     -10.292  14.319  67.068  1.00  0.00    -0.267 C  
HETATM   11  C   UNL     1      -8.177  15.897  67.810  1.00  0.00    -0.157 C  
HETATM   12  C   UNL     1      -6.657  15.778  68.049  1.00  0.00    -0.147 C  
HETATM   13  C   UNL     1     -10.390  15.286  65.778  1.00  0.00    -0.364 C  
HETATM   14  C   UNL     1      -9.912  16.839  66.168  1.00  0.00    -0.345 C  
HETATM   15  C   UNL     1      -5.968  17.088  68.374  1.00  0.00    -0.143 C  
HETATM   16  C   UNL     1      -8.447  17.000  66.747  1.00  0.00    -0.265 C  
HETATM   17  C   UNL     1      -6.255  18.173  67.311  1.00  0.00    -0.167 C  
HETATM   18  C   UNL     1      -8.032  19.467  66.040  1.00  0.00    -0.312 C  
HETATM   19  C   UNL     1      -7.810  18.422  67.159  1.00  0.00    -0.237 C  
HETATM   20  C   UNL     1      -8.210  19.115  68.483  1.00  0.00    -0.399 C  
HETATM   21  C   UNL     1      -7.364  19.909  69.197  1.00  0.00    -0.223 C  
ENDROOT
BRANCH   1  22
HETATM   22  C   UNL     1     -10.851  11.368  68.190  1.00  0.00    -0.213 C  
HETATM   23  N   UNL     1     -10.504  10.950  69.465  1.00  0.00    -0.398 N  
HETATM   24  O   UNL     1     -11.548  10.605  67.486  1.00  0.00    -0.482 OA 
HETATM   25  H   UNL     1     -10.046  11.639  70.062  1.00  0.00     0.000 HD 
BRANCH  23  26
HETATM   26  C   UNL     1     -10.728   9.603  70.054  1.00  0.00    -0.259 A  
HETATM   27  C   UNL     1     -11.854   9.334  70.876  1.00  0.00    -0.346 A  
HETATM   28  F   UNL     1      -7.973   6.335  69.585  1.00  0.00    -0.101 F  
HETATM   29  F   UNL     1     -13.051  10.496  72.567  1.00  0.00    -0.437 F  
HETATM   30  F   UNL     1     -14.155   9.952  70.778  1.00  0.00    -0.254 F  
HETATM   31  F   UNL     1     -12.712  11.586  70.719  1.00  0.00    -0.397 F  
HETATM   32  F   UNL     1      -9.656   4.966  69.781  1.00  0.00    -0.165 F  
HETATM   33  F   UNL     1      -8.588   5.646  71.553  1.00  0.00    -0.125 F  
HETATM   34  C   UNL     1     -12.062   8.048  71.449  1.00  0.00    -0.332 A  
HETATM   35  C   UNL     1     -11.168   6.998  71.261  1.00  0.00    -0.296 A  
HETATM   36  C   UNL     1      -9.068   6.063  70.347  1.00  0.00    -0.149 C  
HETATM   37  C   UNL     1     -10.034   7.217  70.487  1.00  0.00    -0.191 A  
HETATM   38  C   UNL     1      -9.829   8.514  69.888  1.00  0.00    -0.186 A  
HETATM   39  C   UNL     1     -12.926  10.337  71.226  1.00  0.00    -0.420 C  
ENDBRANCH  23  26
ENDBRANCH   1  22
TORSDOF 2
ENDMDL
MODEL        8
REMARK 921   NORMALIZED FREE ENERGY PREDICTED BY IDOCK:   -8.74 KCAL/MOL
REMARK 922        TOTAL FREE ENERGY PREDICTED BY IDOCK:  -10.40 KCAL/MOL
REMARK 923 INTER-LIGAND FREE ENERGY PREDICTED BY IDOCK:   -9.74 KCAL/MOL
REMARK 924 INTRA-LIGAND FREE ENERGY PREDICTED BY IDOCK:   -0.66 KCAL/MOL
REMARK 927      BINDING AFFINITY PREDICTED BY RF-SCORE:    0.00 PKD
ROOT
HETATM    1  C   UNL     1     -10.379  12.617  68.399  1.00  0.00    -0.241 C  
HETATM    2  H   UNL     1     -12.304   5.001  72.541  1.00  0.00     0.000 HD 
HETATM    3  C   UNL     1     -11.858  12.279  68.164  1.00  0.00    -0.372 C  
HETATM    4  C   UNL     1     -12.142  11.466  69.410  1.00  0.00    -0.358 C  
HETATM    5  C   UNL     1     -10.598   5.626  73.565  1.00  0.00    -0.269 C  
HETATM    6  O   UNL     1     -10.746   4.923  74.555  1.00  0.00    -0.360 OA 
HETATM    7  C   UNL     1      -8.242  11.440  68.787  1.00  0.00    -0.107 C  
HETATM    8  C   UNL     1     -10.960  10.497  69.421  1.00  0.00    -0.297 C  
HETATM    9  N   UNL     1     -11.570   5.708  72.582  1.00  0.00    -0.297 N  
HETATM   10  C   UNL     1      -9.726  11.110  68.575  1.00  0.00    -0.196 C  
HETATM   11  C   UNL     1     -10.725   9.495  70.552  1.00  0.00    -0.359 C  
HETATM   12  C   UNL     1     -12.045   9.266  71.317  1.00  0.00    -0.412 C  
HETATM   13  C   UNL     1      -9.542   9.743  67.734  1.00  0.00    -0.157 C  
HETATM   14  C   UNL     1      -9.208   8.463  68.756  1.00  0.00    -0.143 C  
HETATM   15  C   UNL     1     -12.013   8.102  72.289  1.00  0.00    -0.434 C  
HETATM   16  C   UNL     1     -10.279   8.164  69.883  1.00  0.00    -0.204 C  
HETATM   17  C   UNL     1     -11.560   6.791  71.607  1.00  0.00    -0.295 C  
HETATM   18  C   UNL     1      -9.767   5.638  70.227  1.00  0.00    -0.232 C  
HETATM   19  C   UNL     1     -10.134   6.959  70.943  1.00  0.00    -0.207 C  
HETATM   20  C   UNL     1      -9.171   7.077  72.149  1.00  0.00    -0.142 C  
HETATM   21  C   UNL     1      -9.401   6.480  73.351  1.00  0.00    -0.148 C  
ENDROOT
BRANCH   1  22
HETATM   22  C   UNL     1     -10.216  14.272  68.377  1.00  0.00    -0.245 C  
HETATM   23  N   UNL     1      -9.199  14.955  67.728  1.00  0.00    -0.184 N  
HETATM   24  O   UNL     1     -10.965  14.915  69.144  1.00  0.00    -0.239 OA 
HETATM   25  H   UNL     1      -8.684  14.436  67.016  1.00  0.00     0.000 HD 
BRANCH  23  26
HETATM   26  C   UNL     1      -8.780  16.362  67.961  1.00  0.00    -0.183 A  
HETATM   27  C   UNL     1      -7.542  16.672  68.584  1.00  0.00    -0.214 A  
HETATM   28  F   UNL     1     -11.252  19.748  67.006  1.00  0.00    -0.549 F  
HETATM   29  F   UNL     1      -6.265  15.781  70.378  1.00  0.00    -0.153 F  
HETATM   30  F   UNL     1      -5.338  15.777  68.413  1.00  0.00    -0.089 F  
HETATM   31  F   UNL     1      -6.925  14.355  68.878  1.00  0.00    -0.085 F  
HETATM   32  F   UNL     1      -9.437  20.916  66.714  1.00  0.00    -0.432 F  
HETATM   33  F   UNL     1     -10.343  20.779  68.690  1.00  0.00    -0.316 F  
HETATM   34  C   UNL     1      -7.147  18.019  68.818  1.00  0.00    -0.279 A  
HETATM   35  C   UNL     1      -7.955  19.099  68.477  1.00  0.00    -0.386 A  
HETATM   36  C   UNL     1     -10.053  20.051  67.575  1.00  0.00    -0.425 C  
HETATM   37  C   UNL     1      -9.189  18.850  67.888  1.00  0.00    -0.339 A  
HETATM   38  C   UNL     1      -9.586  17.486  67.632  1.00  0.00    -0.266 A  
HETATM   39  C   UNL     1      -6.535  15.650  69.055  1.00  0.00    -0.126 C  
ENDBRANCH  23  26
ENDBRANCH   1  22
TORSDOF 2
ENDMDL
MODEL        9
REMARK 921   NORMALIZED FREE ENERGY PREDICTED BY IDOCK:   -8.63 KCAL/MOL
REMARK 922        TOTAL FREE ENERGY PREDICTED BY IDOCK:  -10.27 KCAL/MOL
REMARK 923 INTER-LIGAND FREE ENERGY PREDICTED BY IDOCK:   -9.69 KCAL/MOL
REMARK 924 INTRA-LIGAND FREE ENERGY PREDICTED BY IDOCK:   -0.58 KCAL/MOL
REMARK 927      BINDING AFFINITY PREDICTED BY RF-SCORE:    0.00 PKD
ROOT
HETATM    1  C   UNL     1     -10.608  11.824  68.596  1.00  0.00    -0.250 C  
HETATM    2  H   UNL     1     -11.279   4.511  73.588  1.00  0.00     0.000 HD 
HETATM    3  C   UNL     1     -12.028  11.739  69.171  1.00  0.00    -0.356 C  
HETATM    4  C   UNL     1     -11.754  10.949  70.432  1.00  0.00    -0.444 C  
HETATM    5  C   UNL     1      -9.216   4.820  73.557  1.00  0.00    -0.119 C  
HETATM    6  O   UNL     1      -8.941   4.123  74.523  1.00  0.00    -0.099 OA 
HETATM    7  C   UNL     1      -8.787  10.304  67.906  1.00  0.00    -0.122 C  
HETATM    8  C   UNL     1     -10.900   9.799  69.897  1.00  0.00    -0.306 C  
HETATM    9  N   UNL     1     -10.529   5.088  73.206  1.00  0.00    -0.193 N  
HETATM   10  C   UNL     1     -10.199  10.227  68.503  1.00  0.00    -0.192 C  
HETATM   11  C   UNL     1     -10.276   8.741  70.806  1.00  0.00    -0.262 C  
HETATM   12  C   UNL     1     -11.031   8.709  72.151  1.00  0.00    -0.434 C  
HETATM   13  C   UNL     1     -10.687   8.872  67.770  1.00  0.00    -0.204 C  
HETATM   14  C   UNL     1     -10.077   7.526  68.552  1.00  0.00    -0.198 C  
HETATM   15  C   UNL     1     -10.685   7.529  73.037  1.00  0.00    -0.438 C  
HETATM   16  C   UNL     1     -10.448   7.374  70.084  1.00  0.00    -0.228 C  
HETATM   17  C   UNL     1     -10.855   6.181  72.300  1.00  0.00    -0.244 C  
HETATM   18  C   UNL     1     -10.229   4.790  70.269  1.00  0.00    -0.262 C  
HETATM   19  C   UNL     1      -9.967   6.132  70.992  1.00  0.00    -0.221 C  
HETATM   20  C   UNL     1      -8.516   6.058  71.526  1.00  0.00    -0.128 C  
HETATM   21  C   UNL     1      -8.185   5.472  72.710  1.00  0.00    -0.109 C  
ENDROOT
BRANCH   1  22
HETATM   22  C   UNL     1     -10.226  13.430  68.394  1.00  0.00    -0.251 C  
HETATM   23  N   UNL     1     -11.149  14.436  68.155  1.00  0.00    -0.255 N  
HETATM   24  O   UNL     1      -9.011  13.703  68.280  1.00  0.00    -0.185 OA 
HETATM   25  H   UNL     1     -12.122  14.223  68.376  1.00  0.00     0.000 HD 
BRANCH  23  26
HETATM   26  C   UNL     1     -10.871  15.791  67.610  1.00  0.00    -0.310 A  
HETATM   27  C   UNL     1     -10.875  16.041  66.213  1.00  0.00    -0.166 A  
HETATM   28  F   UNL     1      -9.812  19.153  70.074  1.00  0.00     0.025 F  
HETATM   29  F   UNL     1     -10.142  14.887  64.270  1.00  0.00    -0.025 F  
HETATM   30  F   UNL     1     -12.264  15.326  64.412  1.00  0.00    -0.438 F  
HETATM   31  F   UNL     1     -11.387  13.751  65.640  1.00  0.00    -0.302 F  
HETATM   32  F   UNL     1     -10.703  20.457  68.575  1.00  0.00    -0.425 F  
HETATM   33  F   UNL     1      -8.609  19.880  68.416  1.00  0.00    -0.356 F  
HETATM   34  C   UNL     1     -10.596  17.336  65.691  1.00  0.00    -0.173 A  
HETATM   35  C   UNL     1     -10.281  18.414  66.512  1.00  0.00    -0.423 A  
HETATM   36  C   UNL     1      -9.846  19.405  68.737  1.00  0.00    -0.456 C  
HETATM   37  C   UNL     1     -10.237  18.217  67.887  1.00  0.00    -0.391 A  
HETATM   38  C   UNL     1     -10.537  16.910  68.421  1.00  0.00    -0.365 A  
HETATM   39  C   UNL     1     -11.165  15.006  65.153  1.00  0.00    -0.388 C  
ENDBRANCH  23  26
ENDBRANCH   1  22
TORSDOF 2
ENDMDL
MODEL       10
REMARK 921   NORMALIZED FREE ENERGY PREDICTED BY IDOCK:   -8.61 KCAL/MOL
REMARK 922        TOTAL FREE ENERGY PREDICTED BY IDOCK:  -10.25 KCAL/MOL
REMARK 923 INTER-LIGAND FREE ENERGY PREDICTED BY IDOCK:   -9.61 KCAL/MOL
REMARK 924 INTRA-LIGAND FREE ENERGY PREDICTED BY IDOCK:   -0.64 KCAL/MOL
REMARK 927      BINDING AFFINITY PREDICTED BY RF-SCORE:    0.00 PKD
ROOT
HETATM    1  C   UNL     1     -10.591  12.144  68.091  1.00  0.00    -0.236 C  
HETATM    2  H   UNL     1      -8.436  20.355  65.487  1.00  0.00     0.000 HD 
HETATM    3  C   UNL     1     -10.649  12.215  66.560  1.00  0.00    -0.269 C  
HETATM    4  C   UNL     1      -9.645  13.321  66.310  1.00  0.00    -0.244 C  
HETATM    5  C   UNL     1      -7.591  20.276  67.394  1.00  0.00    -0.314 C  
HETATM    6  O   UNL     1      -6.824  21.218  67.262  1.00  0.00    -0.492 OA 
HETATM    7  C   UNL     1     -10.920  13.633  70.035  1.00  0.00     0.331 C  
HETATM    8  C   UNL     1     -10.107  14.386  67.306  1.00  0.00    -0.251 C  
HETATM    9  N   UNL     1      -8.329  19.787  66.328  1.00  0.00    -0.352 N  
HETATM   10  C   UNL     1     -10.953  13.702  68.503  1.00  0.00    -0.289 C  
HETATM   11  C   UNL     1      -9.354  15.700  67.516  1.00  0.00    -0.206 C  
HETATM   12  C   UNL     1      -8.464  15.985  66.289  1.00  0.00    -0.337 C  
HETATM   13  C   UNL     1     -12.156  14.769  68.344  1.00  0.00    -0.202 C  
HETATM   14  C   UNL     1     -11.601  16.326  68.592  1.00  0.00    -0.216 C  
HETATM   15  C   UNL     1      -7.871  17.380  66.254  1.00  0.00    -0.330 C  
HETATM   16  C   UNL     1     -10.431  16.815  67.643  1.00  0.00    -0.328 C  
HETATM   17  C   UNL     1      -8.955  18.473  66.389  1.00  0.00    -0.266 C  
HETATM   18  C   UNL     1     -10.890  19.371  67.769  1.00  0.00    -0.402 C  
HETATM   19  C   UNL     1      -9.785  18.289  67.724  1.00  0.00    -0.305 C  
HETATM   20  C   UNL     1      -8.780  18.653  68.843  1.00  0.00    -0.208 C  
HETATM   21  C   UNL     1      -7.767  19.549  68.677  1.00  0.00    -0.390 C  
ENDROOT
BRANCH   1  22
HETATM   22  C   UNL     1     -10.185  10.590  68.524  1.00  0.00    -0.174 C  
HETATM   23  N   UNL     1     -11.066   9.520  68.538  1.00  0.00    -0.473 N  
HETATM   24  O   UNL     1      -9.053  10.432  69.032  1.00  0.00    -0.169 OA 
HETATM   25  H   UNL     1     -11.930   9.635  68.008  1.00  0.00     0.000 HD 
BRANCH  23  26
HETATM   26  C   UNL     1     -10.884   8.224  69.244  1.00  0.00    -0.048 A  
HETATM   27  C   UNL     1     -10.608   7.027  68.532  1.00  0.00    -0.235 A  
HETATM   28  F   UNL     1     -11.344   7.769  73.495  1.00  0.00    -0.373 F  
HETATM   29  F   UNL     1     -11.333   6.048  66.493  1.00  0.00    -0.322 F  
HETATM   30  F   UNL     1      -9.216   6.498  66.670  1.00  0.00    -0.133 F  
HETATM   31  F   UNL     1     -10.656   8.108  66.372  1.00  0.00    -0.345 F  
HETATM   32  F   UNL     1      -9.923   6.120  73.412  1.00  0.00    -0.160 F  
HETATM   33  F   UNL     1     -12.048   5.747  73.116  1.00  0.00    -0.093 F  
HETATM   34  C   UNL     1     -10.446   5.785  69.207  1.00  0.00    -0.358 A  
HETATM   35  C   UNL     1     -10.575   5.668  70.588  1.00  0.00    -0.347 A  
HETATM   36  C   UNL     1     -11.048   6.624  72.820  1.00  0.00    -0.249 C  
HETATM   37  C   UNL     1     -10.872   6.806  71.329  1.00  0.00    -0.266 A  
HETATM   38  C   UNL     1     -11.018   8.071  70.651  1.00  0.00    -0.250 A  
HETATM   39  C   UNL     1     -10.457   6.931  67.033  1.00  0.00    -0.304 C  
ENDBRANCH  23  26
ENDBRANCH   1  22
TORSDOF 2
ENDMDL
MODEL       11
REMARK 921   NORMALIZED FREE ENERGY PREDICTED BY IDOCK:   -8.60 KCAL/MOL
REMARK 922        TOTAL FREE ENERGY PREDICTED BY IDOCK:  -10.23 KCAL/MOL
REMARK 923 INTER-LIGAND FREE ENERGY PREDICTED BY IDOCK:   -9.47 KCAL/MOL
REMARK 924 INTRA-LIGAND FREE ENERGY PREDICTED BY IDOCK:   -0.76 KCAL/MOL
REMARK 927      BINDING AFFINITY PREDICTED BY RF-SCORE:    0.00 PKD
ROOT
HETATM    1  C   UNL     1     -10.232  11.781  67.471  1.00  0.00    -0.214 C  
HETATM    2  H   UNL     1     -12.594   5.061  72.773  1.00  0.00     0.000 HD 
HETATM    3  C   UNL     1     -11.762  11.664  67.479  1.00  0.00    -0.288 C  
HETATM    4  C   UNL     1     -11.971  11.045  68.845  1.00  0.00    -0.332 C  
HETATM    5  C   UNL     1     -10.681   5.507  73.475  1.00  0.00    -0.283 C  
HETATM    6  O   UNL     1     -10.779   4.947  74.557  1.00  0.00    -0.360 OA 
HETATM    7  C   UNL     1      -8.254  10.323  67.722  1.00  0.00    -0.110 C  
HETATM    8  C   UNL     1     -10.953   9.904  68.825  1.00  0.00    -0.217 C  
HETATM    9  N   UNL     1     -11.768   5.641  72.627  1.00  0.00    -0.268 N  
HETATM   10  C   UNL     1      -9.784  10.217  67.751  1.00  0.00    -0.176 C  
HETATM   11  C   UNL     1     -10.699   9.003  70.033  1.00  0.00    -0.247 C  
HETATM   12  C   UNL     1     -11.907   9.073  70.990  1.00  0.00    -0.339 C  
HETATM   13  C   UNL     1      -9.929   8.756  67.076  1.00  0.00    -0.307 C  
HETATM   14  C   UNL     1      -9.633   7.555  68.200  1.00  0.00    -0.155 C  
HETATM   15  C   UNL     1     -11.899   8.030  72.089  1.00  0.00    -0.401 C  
HETATM   16  C   UNL     1     -10.555   7.554  69.488  1.00  0.00    -0.239 C  
HETATM   17  C   UNL     1     -11.748   6.598  71.528  1.00  0.00    -0.321 C  
HETATM   18  C   UNL     1     -10.368   5.030  70.082  1.00  0.00    -0.306 C  
HETATM   19  C   UNL     1     -10.428   6.461  70.666  1.00  0.00    -0.269 C  
HETATM   20  C   UNL     1      -9.288   6.551  71.708  1.00  0.00    -0.149 C  
HETATM   21  C   UNL     1      -9.420   6.129  72.997  1.00  0.00    -0.142 C  
ENDROOT
BRANCH   1  22
HETATM   22  C   UNL     1      -9.836  13.377  67.216  1.00  0.00    -0.233 C  
HETATM   23  N   UNL     1      -9.269  14.210  68.168  1.00  0.00    -0.188 N  
HETATM   24  O   UNL     1     -10.242  13.887  66.149  1.00  0.00    -0.285 OA 
HETATM   25  H   UNL     1      -8.833  13.755  68.970  1.00  0.00     0.000 HD 
BRANCH  23  26
HETATM   26  C   UNL     1      -9.229  15.696  68.142  1.00  0.00    -0.185 A  
HETATM   27  C   UNL     1     -10.184  16.474  68.847  1.00  0.00    -0.268 A  
HETATM   28  F   UNL     1      -6.396  17.939  65.810  1.00  0.00    -0.233 F  
HETATM   29  F   UNL     1     -12.519  16.341  69.267  1.00  0.00    -0.136 F  
HETATM   30  F   UNL     1     -11.204  16.286  70.994  1.00  0.00    -0.363 F  
HETATM   31  F   UNL     1     -11.371  14.546  69.690  1.00  0.00    -0.251 F  
HETATM   32  F   UNL     1      -6.546  19.541  67.278  1.00  0.00    -0.195 F  
HETATM   33  F   UNL     1      -7.920  19.473  65.590  1.00  0.00    -0.312 F  
HETATM   34  C   UNL     1     -10.153  17.896  68.812  1.00  0.00    -0.384 A  
HETATM   35  C   UNL     1      -9.210  18.599  68.069  1.00  0.00    -0.329 A  
HETATM   36  C   UNL     1      -7.291  18.690  66.511  1.00  0.00    -0.240 C  
HETATM   37  C   UNL     1      -8.267  17.885  67.338  1.00  0.00    -0.224 A  
HETATM   38  C   UNL     1      -8.284  16.443  67.386  1.00  0.00    -0.178 A  
HETATM   39  C   UNL     1     -11.304  15.909  69.688  1.00  0.00    -0.342 C  
ENDBRANCH  23  26
ENDBRANCH   1  22
TORSDOF 2
ENDMDL
MODEL       12
REMARK 921   NORMALIZED FREE ENERGY PREDICTED BY IDOCK:   -8.56 KCAL/MOL
REMARK 922        TOTAL FREE ENERGY PREDICTED BY IDOCK:  -10.19 KCAL/MOL
REMARK 923 INTER-LIGAND FREE ENERGY PREDICTED BY IDOCK:   -9.60 KCAL/MOL
REMARK 924 INTRA-LIGAND FREE ENERGY PREDICTED BY IDOCK:   -0.59 KCAL/MOL
REMARK 927      BINDING AFFINITY PREDICTED BY RF-SCORE:    0.00 PKD
ROOT
HETATM    1  C   UNL     1     -10.804  11.887  68.395  1.00  0.00    -0.263 C  
HETATM    2  H   UNL     1      -6.827  19.332  65.637  1.00  0.00     0.000 HD 
HETATM    3  C   UNL     1     -10.043  11.596  67.095  1.00  0.00    -0.227 C  
HETATM    4  C   UNL     1      -8.957  12.647  67.185  1.00  0.00    -0.205 C  
HETATM    5  C   UNL     1      -7.120  19.730  67.664  1.00  0.00    -0.252 C  
HETATM    6  O   UNL     1      -6.311  20.641  67.761  1.00  0.00    -0.252 OA 
HETATM    7  C   UNL     1     -11.959  13.777  69.490  1.00  0.00    -0.399 C  
HETATM    8  C   UNL     1      -9.767  13.899  67.525  1.00  0.00    -0.232 C  
HETATM    9  N   UNL     1      -7.232  18.980  66.504  1.00  0.00    -0.219 N  
HETATM   10  C   UNL     1     -11.177  13.485  68.203  1.00  0.00    -0.302 C  
HETATM   11  C   UNL     1      -9.115  15.250  67.814  1.00  0.00    -0.182 C  
HETATM   12  C   UNL     1      -7.691  15.271  67.222  1.00  0.00    -0.243 C  
HETATM   13  C   UNL     1     -12.009  14.442  67.203  1.00  0.00    -0.419 C  
HETATM   14  C   UNL     1     -11.519  16.032  67.365  1.00  0.00     0.114 C  
HETATM   15  C   UNL     1      -7.037  16.639  67.207  1.00  0.00    -0.208 C  
HETATM   16  C   UNL     1      -9.985  16.327  67.105  1.00  0.00    -0.257 C  
HETATM   17  C   UNL     1      -7.920  17.695  66.505  1.00  0.00    -0.267 C  
HETATM   18  C   UNL     1     -10.194  18.823  66.412  1.00  0.00    -0.464 C  
HETATM   19  C   UNL     1      -9.340  17.800  67.196  1.00  0.00    -0.264 C  
HETATM   20  C   UNL     1      -9.041  18.450  68.569  1.00  0.00    -0.345 C  
HETATM   21  C   UNL     1      -8.011  19.317  68.778  1.00  0.00    -0.392 C  
ENDROOT
BRANCH   1  22
HETATM   22  C   UNL     1     -10.836  10.492  69.300  1.00  0.00    -0.243 C  
HETATM   23  N   UNL     1     -10.001   9.404  69.101  1.00  0.00    -0.175 N  
HETATM   24  O   UNL     1     -11.796  10.365  70.093  1.00  0.00    -0.269 OA 
HETATM   25  H   UNL     1      -9.158   9.571  68.552  1.00  0.00     0.000 HD 
BRANCH  23  26
HETATM   26  C   UNL     1     -10.204   8.020  69.604  1.00  0.00    -0.208 A  
HETATM   27  C   UNL     1     -10.432   6.936  68.716  1.00  0.00    -0.223 A  
HETATM   28  F   UNL     1     -10.350   7.027  73.786  1.00  0.00    -0.289 F  
HETATM   29  F   UNL     1     -11.657   6.604  66.708  1.00  0.00    -0.407 F  
HETATM   30  F   UNL     1      -9.508   6.306  66.610  1.00  0.00    -0.141 F  
HETATM   31  F   UNL     1     -10.329   8.322  66.740  1.00  0.00    -0.324 F  
HETATM   32  F   UNL     1      -9.601   5.045  73.281  1.00  0.00    -0.137 F  
HETATM   33  F   UNL     1     -11.743   5.439  73.273  1.00  0.00    -0.315 F  
HETATM   34  C   UNL     1     -10.639   5.613  69.198  1.00  0.00    -0.334 A  
HETATM   35  C   UNL     1     -10.657   5.314  70.557  1.00  0.00    -0.272 A  
HETATM   36  C   UNL     1     -10.538   5.979  72.937  1.00  0.00    -0.235 C  
HETATM   37  C   UNL     1     -10.466   6.343  71.471  1.00  0.00    -0.256 A  
HETATM   38  C   UNL     1     -10.236   7.683  70.985  1.00  0.00    -0.200 A  
HETATM   39  C   UNL     1     -10.479   7.051  67.211  1.00  0.00    -0.293 C  
ENDBRANCH  23  26
ENDBRANCH   1  22
TORSDOF 2
ENDMDL
MODEL       13
REMARK 921   NORMALIZED FREE ENERGY PREDICTED BY IDOCK:   -8.52 KCAL/MOL
REMARK 922        TOTAL FREE ENERGY PREDICTED BY IDOCK:  -10.15 KCAL/MOL
REMARK 923 INTER-LIGAND FREE ENERGY PREDICTED BY IDOCK:   -9.51 KCAL/MOL
REMARK 924 INTRA-LIGAND FREE ENERGY PREDICTED BY IDOCK:   -0.64 KCAL/MOL
REMARK 927      BINDING AFFINITY PREDICTED BY RF-SCORE:    0.00 PKD
ROOT
HETATM    1  C   UNL     1     -10.722  10.808  68.818  1.00  0.00    -0.243 C  
HETATM    2  H   UNL     1     -10.014   3.832  74.267  1.00  0.00     0.000 HD 
HETATM    3  C   UNL     1     -11.934  10.782  69.759  1.00  0.00    -0.397 C  
HETATM    4  C   UNL     1     -11.329  10.067  70.948  1.00  0.00    -0.439 C  
HETATM    5  C   UNL     1      -8.036   4.104  73.661  1.00  0.00    -0.089 C  
HETATM    6  O   UNL     1      -7.510   3.464  74.560  1.00  0.00    -0.055 OA 
HETATM    7  C   UNL     1      -9.153   9.218  67.763  1.00  0.00    -0.135 C  
HETATM    8  C   UNL     1     -10.650   8.873  70.277  1.00  0.00    -0.246 C  
HETATM    9  N   UNL     1      -9.396   4.371  73.661  1.00  0.00    -0.113 N  
HETATM   10  C   UNL     1     -10.352   9.201  68.721  1.00  0.00    -0.235 C  
HETATM   11  C   UNL     1      -9.803   7.863  71.051  1.00  0.00    -0.189 C  
HETATM   12  C   UNL     1     -10.167   7.927  72.549  1.00  0.00    -0.342 C  
HETATM   13  C   UNL     1     -11.018   7.812  68.236  1.00  0.00     0.122 C  
HETATM   14  C   UNL     1     -10.219   6.508  68.910  1.00  0.00    -0.206 C  
HETATM   15  C   UNL     1      -9.593   6.799  73.383  1.00  0.00    -0.195 C  
HETATM   16  C   UNL     1     -10.162   6.457  70.492  1.00  0.00    -0.230 C  
HETATM   17  C   UNL     1      -9.955   5.411  72.807  1.00  0.00    -0.170 C  
HETATM   18  C   UNL     1      -9.899   3.886  70.777  1.00  0.00    -0.211 C  
HETATM   19  C   UNL     1      -9.453   5.266  71.314  1.00  0.00    -0.197 C  
HETATM   20  C   UNL     1      -7.912   5.202  71.441  1.00  0.00    -0.112 C  
HETATM   21  C   UNL     1      -7.273   4.685  72.528  1.00  0.00    -0.081 C  
ENDROOT
BRANCH   1  22
HETATM   22  C   UNL     1     -10.410  12.392  68.418  1.00  0.00    -0.229 C  
HETATM   23  N   UNL     1     -11.353  13.280  67.925  1.00  0.00    -0.268 N  
HETATM   24  O   UNL     1      -9.208  12.735  68.403  1.00  0.00    -0.198 OA 
HETATM   25  H   UNL     1     -12.332  13.030  68.064  1.00  0.00     0.000 HD 
BRANCH  23  26
HETATM   26  C   UNL     1     -11.087  14.559  67.214  1.00  0.00    -0.312 A  
HETATM   27  C   UNL     1     -11.027  14.619  65.797  1.00  0.00    -0.330 A  
HETATM   28  F   UNL     1     -10.253  18.257  69.245  1.00  0.00    -0.373 F  
HETATM   29  F   UNL     1     -10.163  13.242  64.065  1.00  0.00    -0.441 F  
HETATM   30  F   UNL     1     -12.302  13.619  64.048  1.00  0.00    -0.446 F  
HETATM   31  F   UNL     1     -11.442  12.256  65.518  1.00  0.00    -0.345 F  
HETATM   32  F   UNL     1     -11.105  19.315  67.543  1.00  0.00    -0.544 F  
HETATM   33  F   UNL     1      -8.990  18.798  67.561  1.00  0.00    -0.272 F  
HETATM   34  C   UNL     1     -10.761  15.841  65.118  1.00  0.00    -0.455 A  
HETATM   35  C   UNL     1     -10.519  17.030  65.798  1.00  0.00    -0.261 A  
HETATM   36  C   UNL     1     -10.226  18.326  67.886  1.00  0.00    -0.384 C  
HETATM   37  C   UNL     1     -10.539  17.021  67.188  1.00  0.00    -0.245 A  
HETATM   38  C   UNL     1     -10.827  15.788  67.881  1.00  0.00    -0.314 A  
HETATM   39  C   UNL     1     -11.233  13.441  64.875  1.00  0.00    -0.331 C  
ENDBRANCH  23  26
ENDBRANCH   1  22
TORSDOF 2
ENDMDL
MODEL       14
REMARK 921   NORMALIZED FREE ENERGY PREDICTED BY IDOCK:   -8.50 KCAL/MOL
REMARK 922        TOTAL FREE ENERGY PREDICTED BY IDOCK:  -10.12 KCAL/MOL
REMARK 923 INTER-LIGAND FREE ENERGY PREDICTED BY IDOCK:   -9.45 KCAL/MOL
REMARK 924 INTRA-LIGAND FREE ENERGY PREDICTED BY IDOCK:   -0.67 KCAL/MOL
REMARK 927      BINDING AFFINITY PREDICTED BY RF-SCORE:    0.00 PKD
ROOT
HETATM    1  C   UNL     1     -10.056  10.299  67.835  1.00  0.00    -0.200 C  
HETATM    2  H   UNL     1      -7.570  18.534  65.634  1.00  0.00     0.000 HD 
HETATM    3  C   UNL     1      -8.944  10.221  66.781  1.00  0.00    -0.147 C  
HETATM    4  C   UNL     1      -8.224  11.523  67.062  1.00  0.00    -0.167 C  
HETATM    5  C   UNL     1      -8.456  18.840  67.497  1.00  0.00    -0.270 C  
HETATM    6  O   UNL     1      -7.961  19.933  67.727  1.00  0.00    -0.282 OA 
HETATM    7  C   UNL     1     -11.896  11.813  68.488  1.00  0.00    -0.365 C  
HETATM    8  C   UNL     1      -9.388  12.514  67.111  1.00  0.00    -0.201 C  
HETATM    9  N   UNL     1      -8.075  18.087  66.398  1.00  0.00    -0.266 N  
HETATM   10  C   UNL     1     -10.767  11.740  67.452  1.00  0.00    -0.277 C  
HETATM   11  C   UNL     1      -9.201  13.991  67.458  1.00  0.00    -0.197 C  
HETATM   12  C   UNL     1      -7.729  14.390  67.230  1.00  0.00    -0.164 C  
HETATM   13  C   UNL     1     -11.538  12.441  66.218  1.00  0.00    -0.449 C  
HETATM   14  C   UNL     1     -11.532  14.104  66.387  1.00  0.00    -0.362 C  
HETATM   15  C   UNL     1      -7.468  15.883  67.283  1.00  0.00    -0.244 C  
HETATM   16  C   UNL     1     -10.111  14.796  66.488  1.00  0.00    -0.281 C  
HETATM   17  C   UNL     1      -8.387  16.666  66.318  1.00  0.00    -0.325 C  
HETATM   18  C   UNL     1     -10.775  17.148  65.600  1.00  0.00    -0.140 C  
HETATM   19  C   UNL     1      -9.912  16.389  66.635  1.00  0.00    -0.281 C  
HETATM   20  C   UNL     1     -10.147  17.094  67.992  1.00  0.00    -0.311 C  
HETATM   21  C   UNL     1      -9.462  18.204  68.386  1.00  0.00    -0.327 C  
ENDROOT
BRANCH   1  22
HETATM   22  C   UNL     1      -9.955   8.946  68.797  1.00  0.00    -0.184 C  
HETATM   23  N   UNL     1     -11.011   8.089  69.065  1.00  0.00    -0.428 N  
HETATM   24  O   UNL     1      -8.898   8.806  69.451  1.00  0.00    -0.139 OA 
HETATM   25  H   UNL     1     -11.811   8.141  68.434  1.00  0.00     0.000 HD 
BRANCH  23  26
HETATM   26  C   UNL     1     -11.099   7.101  70.173  1.00  0.00    -0.272 A  
HETATM   27  C   UNL     1     -11.943   7.321  71.293  1.00  0.00    -0.359 A  
HETATM   28  F   UNL     1      -8.720   3.523  70.341  1.00  0.00    -0.089 F  
HETATM   29  F   UNL     1     -12.548   9.186  72.634  1.00  0.00    -0.422 F  
HETATM   30  F   UNL     1     -14.148   8.191  71.554  1.00  0.00    -0.388 F  
HETATM   31  F   UNL     1     -12.729   9.458  70.487  1.00  0.00    -0.174 F  
HETATM   32  F   UNL     1     -10.317   2.586  71.486  1.00  0.00    -0.181 F  
HETATM   33  F   UNL     1      -8.753   3.705  72.507  1.00  0.00    -0.086 F  
HETATM   34  C   UNL     1     -12.018   6.382  72.360  1.00  0.00    -0.213 A  
HETATM   35  C   UNL     1     -11.255   5.218  72.379  1.00  0.00    -0.229 A  
HETATM   36  C   UNL     1      -9.551   3.715  71.402  1.00  0.00    -0.167 C  
HETATM   37  C   UNL     1     -10.392   4.968  71.318  1.00  0.00    -0.255 A  
HETATM   38  C   UNL     1     -10.327   5.908  70.225  1.00  0.00    -0.298 A  
HETATM   39  C   UNL     1     -12.829   8.529  71.481  1.00  0.00    -0.311 C  
ENDBRANCH  23  26
ENDBRANCH   1  22
TORSDOF 2
ENDMDL
MODEL       15
REMARK 921   NORMALIZED FREE ENERGY PREDICTED BY IDOCK:   -8.46 KCAL/MOL
REMARK 922        TOTAL FREE ENERGY PREDICTED BY IDOCK:  -10.08 KCAL/MOL
REMARK 923 INTER-LIGAND FREE ENERGY PREDICTED BY IDOCK:   -9.45 KCAL/MOL
REMARK 924 INTRA-LIGAND FREE ENERGY PREDICTED BY IDOCK:   -0.63 KCAL/MOL
REMARK 927      BINDING AFFINITY PREDICTED BY RF-SCORE:    0.00 PKD
ROOT
HETATM    1  C   UNL     1     -10.252  12.725  67.462  1.00  0.00    -0.216 C  
HETATM    2  H   UNL     1      -4.793  19.719  67.098  1.00  0.00     0.000 HD 
HETATM    3  C   UNL     1      -8.965  12.318  66.732  1.00  0.00    -0.209 C  
HETATM    4  C   UNL     1      -7.988  13.289  67.361  1.00  0.00    -0.175 C  
HETATM    5  C   UNL     1      -6.038  20.232  68.691  1.00  0.00    -0.300 C  
HETATM    6  O   UNL     1      -5.314  21.084  69.185  1.00  0.00    -0.343 OA 
HETATM    7  C   UNL     1     -11.633  14.744  67.810  1.00  0.00    -0.378 C  
HETATM    8  C   UNL     1      -8.746  14.612  67.237  1.00  0.00    -0.224 C  
HETATM    9  N   UNL     1      -5.611  19.439  67.638  1.00  0.00    -0.181 N  
HETATM   10  C   UNL     1     -10.334  14.335  67.102  1.00  0.00    -0.262 C  
HETATM   11  C   UNL     1      -8.216  15.924  67.815  1.00  0.00    -0.157 C  
HETATM   12  C   UNL     1      -6.692  15.812  68.031  1.00  0.00    -0.144 C  
HETATM   13  C   UNL     1     -10.456  15.304  65.815  1.00  0.00    -0.365 C  
HETATM   14  C   UNL     1      -9.980  16.859  66.201  1.00  0.00    -0.332 C  
HETATM   15  C   UNL     1      -6.005  17.125  68.348  1.00  0.00    -0.145 C  
HETATM   16  C   UNL     1      -8.508  17.027  66.758  1.00  0.00    -0.265 C  
HETATM   17  C   UNL     1      -6.314  18.210  67.292  1.00  0.00    -0.172 C  
HETATM   18  C   UNL     1      -8.116  19.497  66.049  1.00  0.00    -0.299 C  
HETATM   19  C   UNL     1      -7.872  18.452  67.162  1.00  0.00    -0.237 C  
HETATM   20  C   UNL     1      -8.256  19.141  68.494  1.00  0.00    -0.399 C  
HETATM   21  C   UNL     1      -7.404  19.938  69.196  1.00  0.00    -0.223 C  
ENDROOT
BRANCH   1  22
HETATM   22  C   UNL     1     -10.861  11.380  68.228  1.00  0.00    -0.209 C  
HETATM   23  N   UNL     1     -10.088  10.392  68.818  1.00  0.00    -0.178 N  
HETATM   24  O   UNL     1     -12.088  11.176  68.101  1.00  0.00    -0.633 OA 
HETATM   25  H   UNL     1      -9.119  10.634  69.023  1.00  0.00     0.000 HD 
BRANCH  23  26
HETATM   26  C   UNL     1     -10.524   9.018  69.183  1.00  0.00    -0.225 A  
HETATM   27  C   UNL     1     -10.282   7.913  68.326  1.00  0.00    -0.240 A  
HETATM   28  F   UNL     1     -12.752   8.121  72.751  1.00  0.00    -0.263 F  
HETATM   29  F   UNL     1     -10.338   7.527  65.982  1.00  0.00    -0.026 F  
HETATM   30  F   UNL     1      -8.431   7.241  66.982  1.00  0.00    -0.113 F  
HETATM   31  F   UNL     1      -9.195   9.255  66.636  1.00  0.00    -0.145 F  
HETATM   32  F   UNL     1     -11.861   6.133  72.735  1.00  0.00    -0.272 F  
HETATM   33  F   UNL     1     -13.708   6.512  71.646  1.00  0.00    -0.267 F  
HETATM   34  C   UNL     1     -10.711   6.600  68.670  1.00  0.00    -0.303 A  
HETATM   35  C   UNL     1     -11.409   6.332  69.843  1.00  0.00    -0.504 A  
HETATM   36  C   UNL     1     -12.494   7.053  71.946  1.00  0.00    -0.311 C  
HETATM   37  C   UNL     1     -11.695   7.384  70.706  1.00  0.00    -0.305 A  
HETATM   38  C   UNL     1     -11.246   8.713  70.370  1.00  0.00    -0.236 A  
HETATM   39  C   UNL     1      -9.569   7.993  66.998  1.00  0.00    -0.196 C  
ENDBRANCH  23  26
ENDBRANCH   1  22
TORSDOF 2
ENDMDL
MODEL       16
REMARK 921   NORMALIZED FREE ENERGY PREDICTED BY IDOCK:   -8.43 KCAL/MOL
REMARK 922        TOTAL FREE ENERGY PREDICTED BY IDOCK:  -10.04 KCAL/MOL
REMARK 923 INTER-LIGAND FREE ENERGY PREDICTED BY IDOCK:   -9.36 KCAL/MOL
REMARK 924 INTRA-LIGAND FREE ENERGY PREDICTED BY IDOCK:   -0.68 KCAL/MOL
REMARK 927      BINDING AFFINITY PREDICTED BY RF-SCORE:    0.00 PKD
ROOT
HETATM    1  C   UNL     1     -10.438  12.658  68.341  1.00  0.00    -0.248 C  
HETATM    2  H   UNL     1     -12.430   5.284  72.869  1.00  0.00     0.000 HD 
HETATM    3  C   UNL     1     -11.959  12.581  68.527  1.00  0.00    -0.266 C  
HETATM    4  C   UNL     1     -12.026  11.770  69.804  1.00  0.00    -0.392 C  
HETATM    5  C   UNL     1     -10.427   5.570  73.377  1.00  0.00    -0.237 C  
HETATM    6  O   UNL     1     -10.417   4.857  74.370  1.00  0.00    -0.264 OA 
HETATM    7  C   UNL     1      -8.511  11.127  68.121  1.00  0.00    -0.138 C  
HETATM    8  C   UNL     1     -11.071  10.618  69.488  1.00  0.00    -0.328 C  
HETATM    9  N   UNL     1     -11.603   5.857  72.703  1.00  0.00    -0.275 N  
HETATM   10  C   UNL     1     -10.030  11.058  68.330  1.00  0.00    -0.194 C  
HETATM   11  C   UNL     1     -10.711   9.541  70.511  1.00  0.00    -0.359 C  
HETATM   12  C   UNL     1     -11.789   9.498  71.614  1.00  0.00    -0.468 C  
HETATM   13  C   UNL     1     -10.321   9.719  67.474  1.00  0.00    -0.291 C  
HETATM   14  C   UNL     1      -9.944   8.356  68.365  1.00  0.00    -0.208 C  
HETATM   15  C   UNL     1     -11.692   8.302  72.540  1.00  0.00    -0.451 C  
HETATM   16  C   UNL     1     -10.700   8.186  69.746  1.00  0.00    -0.229 C  
HETATM   17  C   UNL     1     -11.675   6.967  71.762  1.00  0.00    -0.298 C  
HETATM   18  C   UNL     1     -10.555   5.598  69.939  1.00  0.00    -0.399 C  
HETATM   19  C   UNL     1     -10.479   6.927  70.727  1.00  0.00    -0.238 C  
HETATM   20  C   UNL     1      -9.217   6.829  71.617  1.00  0.00    -0.144 C  
HETATM   21  C   UNL     1      -9.208   6.223  72.837  1.00  0.00    -0.133 C  
ENDROOT
BRANCH   1  22
HETATM   22  C   UNL     1     -10.005  14.263  68.271  1.00  0.00    -0.239 C  
HETATM   23  N   UNL     1      -9.032  14.780  67.431  1.00  0.00    -0.183 N  
HETATM   24  O   UNL     1     -10.474  15.005  69.162  1.00  0.00    -0.231 OA 
HETATM   25  H   UNL     1      -8.758  14.200  66.638  1.00  0.00     0.000 HD 
BRANCH  23  26
HETATM   26  C   UNL     1      -8.344  16.092  67.564  1.00  0.00    -0.159 A  
HETATM   27  C   UNL     1      -7.177  16.238  68.358  1.00  0.00    -0.152 A  
HETATM   28  F   UNL     1      -9.815  19.717  65.778  1.00  0.00    -0.434 F  
HETATM   29  F   UNL     1      -6.418  15.399  70.447  1.00  0.00    -0.138 F  
HETATM   30  F   UNL     1      -5.233  14.900  68.696  1.00  0.00    -0.083 F  
HETATM   31  F   UNL     1      -7.151  13.920  69.036  1.00  0.00    -0.101 F  
HETATM   32  F   UNL     1      -7.760  20.432  65.679  1.00  0.00    -0.270 F  
HETATM   33  F   UNL     1      -8.958  20.793  67.461  1.00  0.00    -0.425 F  
HETATM   34  C   UNL     1      -6.527  17.497  68.495  1.00  0.00    -0.186 A  
HETATM   35  C   UNL     1      -7.009  18.651  67.886  1.00  0.00    -0.231 A  
HETATM   36  C   UNL     1      -8.677  19.856  66.513  1.00  0.00    -0.350 C  
HETATM   37  C   UNL     1      -8.165  18.568  67.119  1.00  0.00    -0.256 A  
HETATM   38  C   UNL     1      -8.817  17.291  66.961  1.00  0.00    -0.243 A  
HETATM   39  C   UNL     1      -6.509  15.121  69.122  1.00  0.00    -0.116 C  
ENDBRANCH  23  26
ENDBRANCH   1  22
TORSDOF 2
ENDMDL
MODEL       17
REMARK 921   NORMALIZED FREE ENERGY PREDICTED BY IDOCK:   -8.32 KCAL/MOL
REMARK 922        TOTAL FREE ENERGY PREDICTED BY IDOCK:   -9.93 KCAL/MOL
REMARK 923 INTER-LIGAND FREE ENERGY PREDICTED BY IDOCK:   -9.46 KCAL/MOL
REMARK 924 INTRA-LIGAND FREE ENERGY PREDICTED BY IDOCK:   -0.47 KCAL/MOL
REMARK 927      BINDING AFFINITY PREDICTED BY RF-SCORE:    0.00 PKD
ROOT
HETATM    1  C   UNL     1     -10.836  12.505  67.217  1.00  0.00    -0.277 C  
HETATM    2  H   UNL     1      -7.933  20.823  66.101  1.00  0.00     0.000 HD 
HETATM    3  C   UNL     1     -11.033  12.911  65.750  1.00  0.00    -0.303 C  
HETATM    4  C   UNL     1      -9.928  13.937  65.612  1.00  0.00    -0.298 C  
HETATM    5  C   UNL     1      -6.925  20.247  67.834  1.00  0.00    -0.290 C  
HETATM    6  O   UNL     1      -6.062  21.112  67.805  1.00  0.00    -0.322 OA 
HETATM    7  C   UNL     1     -10.786  13.563  69.449  1.00  0.00    -0.032 C  
HETATM    8  C   UNL     1     -10.154  14.803  66.852  1.00  0.00    -0.246 C  
HETATM    9  N   UNL     1      -7.818  20.078  66.788  1.00  0.00    -0.298 N  
HETATM   10  C   UNL     1     -10.959  13.966  67.978  1.00  0.00    -0.267 C  
HETATM   11  C   UNL     1      -9.226  15.956  67.234  1.00  0.00    -0.216 C  
HETATM   12  C   UNL     1      -8.430  16.408  65.992  1.00  0.00    -0.205 C  
HETATM   13  C   UNL     1     -12.029  15.158  68.188  1.00  0.00    -0.151 C  
HETATM   14  C   UNL     1     -11.262  16.559  68.679  1.00  0.00    -0.297 C  
HETATM   15  C   UNL     1      -7.674  17.710  66.170  1.00  0.00    -0.293 C  
HETATM   16  C   UNL     1     -10.137  17.121  67.715  1.00  0.00    -0.306 C  
HETATM   17  C   UNL     1      -8.594  18.852  66.656  1.00  0.00    -0.307 C  
HETATM   18  C   UNL     1     -10.259  19.622  68.414  1.00  0.00    -0.553 C  
HETATM   19  C   UNL     1      -9.307  18.469  68.016  1.00  0.00    -0.321 C  
HETATM   20  C   UNL     1      -8.161  18.478  69.055  1.00  0.00    -0.126 C  
HETATM   21  C   UNL     1      -7.065  19.281  68.953  1.00  0.00    -0.385 C  
ENDROOT
BRANCH   1  22
HETATM   22  C   UNL     1     -10.587  10.862  67.271  1.00  0.00    -0.251 C  
HETATM   23  N   UNL     1     -11.264   9.989  68.109  1.00  0.00    -0.502 N  
HETATM   24  O   UNL     1      -9.603  10.426  66.634  1.00  0.00    -0.167 OA 
HETATM   25  H   UNL     1     -12.134  10.332  68.517  1.00  0.00     0.000 HD 
BRANCH  23  26
HETATM   26  C   UNL     1     -10.856   8.607  68.475  1.00  0.00     0.053 A  
HETATM   27  C   UNL     1     -10.780   8.194  69.831  1.00  0.00    -0.241 A  
HETATM   28  F   UNL     1      -9.640   5.663  65.586  1.00  0.00    -0.154 F  
HETATM   29  F   UNL     1     -10.058   9.166  71.874  1.00  0.00    -0.384 F  
HETATM   30  F   UNL     1     -12.143   8.571  71.751  1.00  0.00    -0.302 F  
HETATM   31  F   UNL     1     -11.447  10.348  70.695  1.00  0.00    -0.332 F  
HETATM   32  F   UNL     1     -10.360   4.120  66.944  1.00  0.00    -0.199 F  
HETATM   33  F   UNL     1      -8.313   4.847  67.103  1.00  0.00    -0.106 F  
HETATM   34  C   UNL     1     -10.377   6.874  70.182  1.00  0.00    -0.218 A  
HETATM   35  C   UNL     1     -10.013   5.931  69.226  1.00  0.00    -0.224 A  
HETATM   36  C   UNL     1      -9.596   5.252  66.884  1.00  0.00    -0.145 C  
HETATM   37  C   UNL     1     -10.044   6.294  67.884  1.00  0.00    -0.169 A  
HETATM   38  C   UNL     1     -10.470   7.624  67.523  1.00  0.00    -0.336 A  
HETATM   39  C   UNL     1     -11.105   9.067  71.018  1.00  0.00    -0.289 C  
ENDBRANCH  23  26
ENDBRANCH   1  22
TORSDOF 2
ENDMDL
MODEL       18
REMARK 921   NORMALIZED FREE ENERGY PREDICTED BY IDOCK:   -8.24 KCAL/MOL
REMARK 922        TOTAL FREE ENERGY PREDICTED BY IDOCK:   -9.83 KCAL/MOL
REMARK 923 INTER-LIGAND FREE ENERGY PREDICTED BY IDOCK:   -9.16 KCAL/MOL
REMARK 924 INTRA-LIGAND FREE ENERGY PREDICTED BY IDOCK:   -0.67 KCAL/MOL
REMARK 927      BINDING AFFINITY PREDICTED BY RF-SCORE:    0.00 PKD
ROOT
HETATM    1  C   UNL     1     -11.269   9.613  69.418  1.00  0.00    -0.112 C  
HETATM    2  H   UNL     1      -8.157   3.482  75.037  1.00  0.00     0.000 HD 
HETATM    3  C   UNL     1     -12.075   9.675  70.722  1.00  0.00    -0.328 C  
HETATM    4  C   UNL     1     -11.039   9.152  71.695  1.00  0.00    -0.445 C  
HETATM    5  C   UNL     1      -6.539   3.737  73.744  1.00  0.00    -0.042 C  
HETATM    6  O   UNL     1      -5.685   3.246  74.467  1.00  0.00    -0.006 OA 
HETATM    7  C   UNL     1     -10.039   7.949  68.069  1.00  0.00    -0.235 C  
HETATM    8  C   UNL     1     -10.540   7.901  70.972  1.00  0.00    -0.232 C  
HETATM    9  N   UNL     1      -7.832   3.954  74.193  1.00  0.00    -0.081 N  
HETATM   10  C   UNL     1     -10.826   8.022  69.384  1.00  0.00    -0.104 C  
HETATM   11  C   UNL     1      -9.399   7.037  71.508  1.00  0.00    -0.154 C  
HETATM   12  C   UNL     1      -9.226   7.294  73.019  1.00  0.00    -0.190 C  
HETATM   13  C   UNL     1     -11.504   6.557  69.331  1.00  0.00    -0.346 C  
HETATM   14  C   UNL     1     -10.418   5.387  69.826  1.00  0.00    -0.378 C  
HETATM   15  C   UNL     1      -8.310   6.313  73.722  1.00  0.00    -0.116 C  
HETATM   16  C   UNL     1      -9.814   5.556  71.280  1.00  0.00    -0.228 C  
HETATM   17  C   UNL     1      -8.734   4.847  73.478  1.00  0.00    -0.104 C  
HETATM   18  C   UNL     1      -9.261   3.060  71.751  1.00  0.00    -0.181 C  
HETATM   19  C   UNL     1      -8.770   4.516  71.931  1.00  0.00    -0.129 C  
HETATM   20  C   UNL     1      -7.280   4.523  71.512  1.00  0.00    -0.059 C  
HETATM   21  C   UNL     1      -6.265   4.184  72.354  1.00  0.00    -0.020 C  
ENDROOT
BRANCH   1  22
HETATM   22  C   UNL     1     -11.244  11.137  68.751  1.00  0.00    -0.253 C  
HETATM   23  N   UNL     1     -10.580  12.225  69.296  1.00  0.00    -0.440 N  
HETATM   24  O   UNL     1     -12.022  11.338  67.793  1.00  0.00    -0.637 OA 
HETATM   25  H   UNL     1      -9.861  12.019  69.989  1.00  0.00     0.000 HD 
BRANCH  23  26
HETATM   26  C   UNL     1     -10.806  13.659  68.977  1.00  0.00    -0.204 A  
HETATM   27  C   UNL     1     -11.633  14.476  69.792  1.00  0.00    -0.345 A  
HETATM   28  F   UNL     1      -9.208  15.577  65.476  1.00  0.00    -0.334 F  
HETATM   29  F   UNL     1     -13.684  14.203  70.959  1.00  0.00    -0.363 F  
HETATM   30  F   UNL     1     -11.934  14.692  72.147  1.00  0.00    -0.390 F  
HETATM   31  F   UNL     1     -12.172  12.687  71.322  1.00  0.00    -0.389 F  
HETATM   32  F   UNL     1      -9.197  17.453  66.581  1.00  0.00    -0.232 F  
HETATM   33  F   UNL     1     -10.971  16.849  65.472  1.00  0.00    -0.295 F  
HETATM   34  C   UNL     1     -11.860  15.846  69.479  1.00  0.00    -0.310 A  
HETATM   35  C   UNL     1     -11.310  16.450  68.352  1.00  0.00    -0.268 A  
HETATM   36  C   UNL     1      -9.975  16.373  66.271  1.00  0.00    -0.323 C  
HETATM   37  C   UNL     1     -10.514  15.687  67.506  1.00  0.00    -0.285 A  
HETATM   38  C   UNL     1     -10.266  14.303  67.830  1.00  0.00    -0.235 A  
HETATM   39  C   UNL     1     -12.344  14.011  71.039  1.00  0.00    -0.369 C  
ENDBRANCH  23  26
ENDBRANCH   1  22
TORSDOF 2
ENDMDL
MODEL       19
REMARK 921   NORMALIZED FREE ENERGY PREDICTED BY IDOCK:   -8.20 KCAL/MOL
REMARK 922        TOTAL FREE ENERGY PREDICTED BY IDOCK:   -9.79 KCAL/MOL
REMARK 923 INTER-LIGAND FREE ENERGY PREDICTED BY IDOCK:   -9.51 KCAL/MOL
REMARK 924 INTRA-LIGAND FREE ENERGY PREDICTED BY IDOCK:   -0.28 KCAL/MOL
REMARK 927      BINDING AFFINITY PREDICTED BY RF-SCORE:    0.00 PKD
ROOT
HETATM    1  C   UNL     1     -11.054   8.978  71.128  1.00  0.00    -0.371 C  
HETATM    2  H   UNL     1      -5.794   2.544  68.000  1.00  0.00     0.000 HD 
HETATM    3  C   UNL     1      -9.598   9.303  71.487  1.00  0.00    -0.162 C  
HETATM    4  C   UNL     1      -8.884   8.585  70.361  1.00  0.00    -0.157 C  
HETATM    5  C   UNL     1      -7.494   2.322  66.811  1.00  0.00    -0.065 C  
HETATM    6  O   UNL     1      -6.974   1.668  65.918  1.00  0.00    -0.040 OA 
HETATM    7  C   UNL     1     -12.478   6.994  70.750  1.00  0.00    -0.253 C  
HETATM    8  C   UNL     1      -9.563   7.215  70.389  1.00  0.00    -0.169 C  
HETATM    9  N   UNL     1      -6.744   2.877  67.834  1.00  0.00    -0.040 N  
HETATM   10  C   UNL     1     -11.018   7.327  71.086  1.00  0.00    -0.267 C  
HETATM   11  C   UNL     1      -9.254   6.120  69.368  1.00  0.00    -0.137 C  
HETATM   12  C   UNL     1      -7.886   6.399  68.713  1.00  0.00    -0.109 C  
HETATM   13  C   UNL     1     -10.715   6.078  72.064  1.00  0.00    -0.281 C  
HETATM   14  C   UNL     1     -10.395   4.698  71.176  1.00  0.00    -0.142 C  
HETATM   15  C   UNL     1      -7.344   5.255  67.880  1.00  0.00    -0.076 C  
HETATM   16  C   UNL     1      -9.186   4.781  70.156  1.00  0.00    -0.195 C  
HETATM   17  C   UNL     1      -7.291   3.932  68.678  1.00  0.00    -0.055 C  
HETATM   18  C   UNL     1      -8.590   2.252  70.071  1.00  0.00    -0.100 C  
HETATM   19  C   UNL     1      -8.722   3.545  69.232  1.00  0.00    -0.133 C  
HETATM   20  C   UNL     1      -9.523   3.159  67.966  1.00  0.00    -0.218 C  
HETATM   21  C   UNL     1      -8.949   2.617  66.855  1.00  0.00    -0.164 C  
ENDROOT
BRANCH   1  22
HETATM   22  C   UNL     1     -11.878  10.412  70.952  1.00  0.00    -0.377 C  
HETATM   23  N   UNL     1     -11.440  11.484  70.189  1.00  0.00    -0.496 N  
HETATM   24  O   UNL     1     -12.865  10.583  71.701  1.00  0.00    -0.412 OA 
HETATM   25  H   UNL     1     -10.717  11.285  69.497  1.00  0.00     0.000 HD 
BRANCH  23  26
HETATM   26  C   UNL     1     -11.912  12.891  70.274  1.00  0.00    -0.283 A  
HETATM   27  C   UNL     1     -11.960  13.725  69.126  1.00  0.00    -0.403 A  
HETATM   28  F   UNL     1     -13.028  14.786  73.969  1.00  0.00    -0.512 F  
HETATM   29  F   UNL     1     -10.589  14.086  67.220  1.00  0.00    -0.263 F  
HETATM   30  F   UNL     1     -12.609  13.377  66.858  1.00  0.00    -0.331 F  
HETATM   31  F   UNL     1     -11.097  12.019  67.650  1.00  0.00    -0.242 F  
HETATM   32  F   UNL     1     -14.386  16.059  72.837  1.00  0.00    -0.664 F  
HETATM   33  F   UNL     1     -12.313  16.658  73.126  1.00  0.00    -0.499 F  
HETATM   34  C   UNL     1     -12.400  15.076  69.210  1.00  0.00    -0.129 A  
HETATM   35  C   UNL     1     -12.781  15.659  70.415  1.00  0.00    -0.325 A  
HETATM   36  C   UNL     1     -13.106  15.581  72.866  1.00  0.00    -0.507 C  
HETATM   37  C   UNL     1     -12.727  14.893  71.574  1.00  0.00    -0.404 A  
HETATM   38  C   UNL     1     -12.299  13.518  71.490  1.00  0.00    -0.186 A  
HETATM   39  C   UNL     1     -11.566  13.298  67.733  1.00  0.00    -0.342 C  
ENDBRANCH  23  26
ENDBRANCH   1  22
TORSDOF 2
ENDMDL
MODEL       20
REMARK 921   NORMALIZED FREE ENERGY PREDICTED BY IDOCK:   -8.11 KCAL/MOL
REMARK 922        TOTAL FREE ENERGY PREDICTED BY IDOCK:   -9.69 KCAL/MOL
REMARK 923 INTER-LIGAND FREE ENERGY PREDICTED BY IDOCK:   -8.92 KCAL/MOL
REMARK 924 INTRA-LIGAND FREE ENERGY PREDICTED BY IDOCK:   -0.77 KCAL/MOL
REMARK 927      BINDING AFFINITY PREDICTED BY RF-SCORE:    0.00 PKD
ROOT
HETATM    1  C   UNL     1     -10.249  12.312  66.565  1.00  0.00    -0.235 C  
HETATM    2  H   UNL     1     -11.963   5.043  71.368  1.00  0.00     0.000 HD 
HETATM    3  C   UNL     1     -11.762  12.216  66.805  1.00  0.00    -0.377 C  
HETATM    4  C   UNL     1     -11.772  11.442  68.106  1.00  0.00    -0.355 C  
HETATM    5  C   UNL     1      -9.949   5.376  71.800  1.00  0.00    -0.183 C  
HETATM    6  O   UNL     1      -9.894   4.692  72.812  1.00  0.00    -0.136 OA 
HETATM    7  C   UNL     1      -8.305  10.807  66.324  1.00  0.00    -0.160 C  
HETATM    8  C   UNL     1     -10.809  10.298  67.792  1.00  0.00    -0.346 C  
HETATM    9  N   UNL     1     -11.152   5.625  71.159  1.00  0.00    -0.189 N  
HETATM   10  C   UNL     1      -9.815  10.719  66.587  1.00  0.00    -0.241 C  
HETATM   11  C   UNL     1     -10.396   9.256  68.832  1.00  0.00    -0.231 C  
HETATM   12  C   UNL     1     -11.436   9.229  69.971  1.00  0.00    -0.077 C  
HETATM   13  C   UNL     1     -10.112   9.352  65.780  1.00  0.00    -0.166 C  
HETATM   14  C   UNL     1      -9.682   8.021  66.697  1.00  0.00    -0.313 C  
HETATM   15  C   UNL     1     -11.288   8.062  70.928  1.00  0.00    -0.291 C  
HETATM   16  C   UNL     1     -10.389   7.880  68.107  1.00  0.00    -0.249 C  
HETATM   17  C   UNL     1     -11.275   6.705  70.188  1.00  0.00    -0.360 C  
HETATM   18  C   UNL     1     -10.193   5.301  68.369  1.00  0.00    -0.206 C  
HETATM   19  C   UNL     1     -10.113   6.653  69.115  1.00  0.00    -0.185 C  
HETATM   20  C   UNL     1      -8.820   6.602  69.964  1.00  0.00    -0.141 C  
HETATM   21  C   UNL     1      -8.760   6.032  71.200  1.00  0.00    -0.132 C  
ENDROOT
BRANCH   1  22
HETATM   22  C   UNL     1      -9.847  13.921  66.435  1.00  0.00    -0.295 C  
HETATM   23  N   UNL     1      -9.234  14.663  67.432  1.00  0.00    -0.192 N  
HETATM   24  O   UNL     1     -10.289  14.526  65.433  1.00  0.00    -0.333 OA 
HETATM   25  H   UNL     1      -8.773  14.137  68.174  1.00  0.00     0.000 HD 
BRANCH  23  26
HETATM   26  C   UNL     1      -9.180  16.146  67.535  1.00  0.00    -0.208 A  
HETATM   27  C   UNL     1     -10.095  16.865  68.348  1.00  0.00    -0.304 A  
HETATM   28  F   UNL     1      -6.429  18.566  65.284  1.00  0.00    -0.279 F  
HETATM   29  F   UNL     1     -12.409  16.712  68.860  1.00  0.00     0.115 F  
HETATM   30  F   UNL     1     -11.020  16.496  70.515  1.00  0.00    -0.333 F  
HETATM   31  F   UNL     1     -11.263  14.879  69.072  1.00  0.00    -0.223 F  
HETATM   32  F   UNL     1      -6.497  20.034  66.891  1.00  0.00    -0.192 F  
HETATM   33  F   UNL     1      -7.945  20.124  65.268  1.00  0.00    -0.249 F  
HETATM   34  C   UNL     1     -10.050  18.285  68.436  1.00  0.00    -0.412 A  
HETATM   35  C   UNL     1      -9.133  19.044  67.716  1.00  0.00    -0.331 A  
HETATM   36  C   UNL     1      -7.284  19.258  66.087  1.00  0.00    -0.265 C  
HETATM   37  C   UNL     1      -8.231  18.391  66.884  1.00  0.00    -0.258 A  
HETATM   38  C   UNL     1      -8.261  16.950  66.806  1.00  0.00    -0.275 A  
HETATM   39  C   UNL     1     -11.182  16.236  69.186  1.00  0.00    -0.309 C  
ENDBRANCH  23  26
ENDBRANCH   1  22
TORSDOF 2
ENDMDL
MODEL       21
REMARK 921   NORMALIZED FREE ENERGY PREDICTED BY IDOCK:   -8.06 KCAL/MOL
REMARK 922        TOTAL FREE ENERGY PREDICTED BY IDOCK:   -9.64 KCAL/MOL
REMARK 923 INTER-LIGAND FREE ENERGY PREDICTED BY IDOCK:   -8.88 KCAL/MOL
REMARK 924 INTRA-LIGAND FREE ENERGY PREDICTED BY IDOCK:   -0.76 KCAL/MOL
REMARK 927      BINDING AFFINITY PREDICTED BY RF-SCORE:    0.00 PKD
ROOT
HETATM    1  C   UNL     1     -10.519  11.672  68.266  1.00  0.00    -0.223 C  
HETATM    2  H   UNL     1     -10.752   4.684  73.740  1.00  0.00     0.000 HD 
HETATM    3  C   UNL     1     -11.899  11.604  68.933  1.00  0.00    -0.392 C  
HETATM    4  C   UNL     1     -11.533  10.900  70.222  1.00  0.00    -0.391 C  
HETATM    5  C   UNL     1      -8.701   5.018  73.560  1.00  0.00    -0.110 C  
HETATM    6  O   UNL     1      -8.355   4.388  74.549  1.00  0.00    -0.090 OA 
HETATM    7  C   UNL     1      -8.717  10.136  67.561  1.00  0.00    -0.125 C  
HETATM    8  C   UNL     1     -10.694   9.730  69.707  1.00  0.00    -0.283 C  
HETATM    9  N   UNL     1     -10.038   5.245  73.277  1.00  0.00    -0.168 N  
HETATM   10  C   UNL     1     -10.088  10.078  68.248  1.00  0.00    -0.182 C  
HETATM   11  C   UNL     1      -9.997   8.741  70.640  1.00  0.00    -0.242 C  
HETATM   12  C   UNL     1     -10.667   8.784  72.029  1.00  0.00    -0.417 C  
HETATM   13  C   UNL     1     -10.596   8.673  67.634  1.00  0.00    -0.272 C  
HETATM   14  C   UNL     1      -9.916   7.388  68.459  1.00  0.00    -0.172 C  
HETATM   15  C   UNL     1     -10.246   7.668  72.964  1.00  0.00    -0.379 C  
HETATM   16  C   UNL     1     -10.189   7.329  70.018  1.00  0.00    -0.206 C  
HETATM   17  C   UNL     1     -10.438   6.274  72.325  1.00  0.00    -0.199 C  
HETATM   18  C   UNL     1      -9.914   4.765  70.351  1.00  0.00    -0.315 C  
HETATM   19  C   UNL     1      -9.631   6.154  70.970  1.00  0.00    -0.194 C  
HETATM   20  C   UNL     1      -8.149   6.134  71.416  1.00  0.00    -0.118 C  
HETATM   21  C   UNL     1      -7.735   5.629  72.612  1.00  0.00    -0.102 C  
ENDROOT
BRANCH   1  22
HETATM   22  C   UNL     1     -10.178  13.267  67.940  1.00  0.00    -0.233 C  
HETATM   23  N   UNL     1      -9.578  14.143  68.832  1.00  0.00    -0.387 N  
HETATM   24  O   UNL     1     -10.657  13.734  66.884  1.00  0.00    -0.273 OA 
HETATM   25  H   UNL     1      -9.086  13.724  69.621  1.00  0.00     0.000 HD 
BRANCH  23  26
HETATM   26  C   UNL     1      -9.577  15.628  68.759  1.00  0.00    -0.215 A  
HETATM   27  C   UNL     1     -10.486  16.406  69.523  1.00  0.00    -0.301 A  
HETATM   28  F   UNL     1      -7.014  17.859  66.123  1.00  0.00    -0.235 F  
HETATM   29  F   UNL     1     -12.771  16.236  70.150  1.00  0.00    -0.107 F  
HETATM   30  F   UNL     1     -11.310  16.264  71.756  1.00  0.00    -0.421 F  
HETATM   31  F   UNL     1     -11.548  14.481  70.523  1.00  0.00    -0.299 F  
HETATM   32  F   UNL     1      -7.076  19.502  67.551  1.00  0.00    -0.225 F  
HETATM   33  F   UNL     1      -8.589  19.351  65.993  1.00  0.00    -0.326 F  
HETATM   34  C   UNL     1     -10.493  17.828  69.443  1.00  0.00     0.157 A  
HETATM   35  C   UNL     1      -9.636  18.527  68.600  1.00  0.00    -0.382 A  
HETATM   36  C   UNL     1      -7.863  18.611  66.877  1.00  0.00    -0.236 C  
HETATM   37  C   UNL     1      -8.744  17.811  67.810  1.00  0.00    -0.241 A  
HETATM   38  C   UNL     1      -8.720  16.371  67.902  1.00  0.00    -0.179 A  
HETATM   39  C   UNL     1     -11.514  15.844  70.475  1.00  0.00    -0.392 C  
ENDBRANCH  23  26
ENDBRANCH   1  22
TORSDOF 2
ENDMDL
MODEL       22
REMARK 921   NORMALIZED FREE ENERGY PREDICTED BY IDOCK:   -7.98 KCAL/MOL
REMARK 922        TOTAL FREE ENERGY PREDICTED BY IDOCK:   -9.54 KCAL/MOL
REMARK 923 INTER-LIGAND FREE ENERGY PREDICTED BY IDOCK:   -8.85 KCAL/MOL
REMARK 924 INTRA-LIGAND FREE ENERGY PREDICTED BY IDOCK:   -0.70 KCAL/MOL
REMARK 927      BINDING AFFINITY PREDICTED BY RF-SCORE:    0.00 PKD
ROOT
HETATM    1  C   UNL     1     -10.999  13.128  68.076  1.00  0.00    -0.270 C  
HETATM    2  H   UNL     1      -7.171  20.651  65.321  1.00  0.00     0.000 HD 
HETATM    3  C   UNL     1     -11.009  13.162  66.542  1.00  0.00    -0.303 C  
HETATM    4  C   UNL     1      -9.797  14.034  66.291  1.00  0.00    -0.318 C  
HETATM    5  C   UNL     1      -6.401  20.462  67.251  1.00  0.00    -0.215 C  
HETATM    6  O   UNL     1      -5.456  21.225  67.116  1.00  0.00    -0.235 OA 
HETATM    7  C   UNL     1     -11.061  14.711  69.971  1.00  0.00    -0.204 C  
HETATM    8  C   UNL     1     -10.054  15.200  67.246  1.00  0.00    -0.235 C  
HETATM    9  N   UNL     1      -7.199  20.099  66.178  1.00  0.00    -0.283 N  
HETATM   10  C   UNL     1     -11.047  14.738  68.437  1.00  0.00    -0.274 C  
HETATM   11  C   UNL     1      -9.056  16.341  67.444  1.00  0.00    -0.203 C  
HETATM   12  C   UNL     1      -8.101  16.403  66.234  1.00  0.00    -0.311 C  
HETATM   13  C   UNL     1     -12.006  16.020  68.219  1.00  0.00     0.171 C  
HETATM   14  C   UNL     1     -11.152  17.440  68.442  1.00  0.00     0.028 C  
HETATM   15  C   UNL     1      -7.237  17.648  66.179  1.00  0.00    -0.352 C  
HETATM   16  C   UNL     1      -9.887  17.654  67.513  1.00  0.00    -0.299 C  
HETATM   17  C   UNL     1      -8.080  18.941  66.257  1.00  0.00    -0.269 C  
HETATM   18  C   UNL     1      -9.821  20.252  67.560  1.00  0.00    -0.576 C  
HETATM   19  C   UNL     1      -8.958  18.969  67.573  1.00  0.00    -0.322 C  
HETATM   20  C   UNL     1      -7.924  19.156  68.709  1.00  0.00    -0.382 C  
HETATM   21  C   UNL     1      -6.748  19.824  68.547  1.00  0.00    -0.331 C  
ENDROOT
BRANCH   1  22
HETATM   22  C   UNL     1     -10.925  11.538  68.559  1.00  0.00    -0.223 C  
HETATM   23  N   UNL     1     -10.534  11.114  69.820  1.00  0.00    -0.437 N  
HETATM   24  O   UNL     1     -11.067  10.677  67.663  1.00  0.00    -0.294 OA 
HETATM   25  H   UNL     1     -10.548  11.815  70.560  1.00  0.00     0.000 HD 
BRANCH  23  26
HETATM   26  C   UNL     1     -10.096   9.747  70.205  1.00  0.00    -0.266 A  
HETATM   27  C   UNL     1      -8.734   9.354  70.118  1.00  0.00    -0.245 A  
HETATM   28  F   UNL     1     -12.820   6.662  71.453  1.00  0.00    -0.375 F  
HETATM   29  F   UNL     1      -6.947   9.718  68.596  1.00  0.00    -0.060 F  
HETATM   30  F   UNL     1      -6.670  10.433  70.628  1.00  0.00    -0.135 F  
HETATM   31  F   UNL     1      -8.004  11.493  69.266  1.00  0.00    -0.083 F  
HETATM   32  F   UNL     1     -11.210   5.804  72.643  1.00  0.00    -0.273 F  
HETATM   33  F   UNL     1     -11.461   5.219  70.561  1.00  0.00    -0.024 F  
HETATM   34  C   UNL     1      -8.317   8.041  70.475  1.00  0.00    -0.123 A  
HETATM   35  C   UNL     1      -9.216   7.068  70.901  1.00  0.00    -0.156 A  
HETATM   36  C   UNL     1     -11.511   6.290  71.402  1.00  0.00    -0.293 C  
HETATM   37  C   UNL     1     -10.566   7.392  70.978  1.00  0.00    -0.234 A  
HETATM   38  C   UNL     1     -10.990   8.728  70.635  1.00  0.00    -0.278 A  
HETATM   39  C   UNL     1      -7.608  10.247  69.656  1.00  0.00    -0.164 C  
ENDBRANCH  23  26
ENDBRANCH   1  22
TORSDOF 2
ENDMDL
MODEL       23
REMARK 921   NORMALIZED FREE ENERGY PREDICTED BY IDOCK:   -7.94 KCAL/MOL
REMARK 922        TOTAL FREE ENERGY PREDICTED BY IDOCK:   -9.50 KCAL/MOL
REMARK 923 INTER-LIGAND FREE ENERGY PREDICTED BY IDOCK:   -8.93 KCAL/MOL
REMARK 924 INTRA-LIGAND FREE ENERGY PREDICTED BY IDOCK:   -0.57 KCAL/MOL
REMARK 927      BINDING AFFINITY PREDICTED BY RF-SCORE:    0.00 PKD
ROOT
HETATM    1  C   UNL     1     -10.415  12.398  66.827  1.00  0.00    -0.242 C  
HETATM    2  H   UNL     1     -11.226   4.626  71.045  1.00  0.00     0.000 HD 
HETATM    3  C   UNL     1     -11.901  12.131  67.104  1.00  0.00    -0.292 C  
HETATM    4  C   UNL     1     -11.786  11.256  68.334  1.00  0.00    -0.365 C  
HETATM    5  C   UNL     1      -9.239   5.122  71.442  1.00  0.00    -0.146 C  
HETATM    6  O   UNL     1      -9.078   4.368  72.390  1.00  0.00    -0.118 OA 
HETATM    7  C   UNL     1      -8.345  11.119  66.400  1.00  0.00    -0.167 C  
HETATM    8  C   UNL     1     -10.728  10.243  67.894  1.00  0.00    -0.310 C  
HETATM    9  N   UNL     1     -10.484   5.301  70.861  1.00  0.00    -0.236 N  
HETATM   10  C   UNL     1      -9.827  10.860  66.700  1.00  0.00    -0.237 C  
HETATM   11  C   UNL     1     -10.176   9.167  68.829  1.00  0.00    -0.228 C  
HETATM   12  C   UNL     1     -11.163   8.943  69.993  1.00  0.00    -0.120 C  
HETATM   13  C   UNL     1     -10.021   9.540  65.789  1.00  0.00    -0.316 C  
HETATM   14  C   UNL     1      -9.429   8.189  66.576  1.00  0.00    -0.286 C  
HETATM   15  C   UNL     1     -10.866   7.723  70.842  1.00  0.00    -0.246 C  
HETATM   16  C   UNL     1     -10.063   7.863  67.990  1.00  0.00    -0.235 C  
HETATM   17  C   UNL     1     -10.749   6.439  69.990  1.00  0.00    -0.259 C  
HETATM   18  C   UNL     1      -9.607   5.304  68.026  1.00  0.00    -0.163 C  
HETATM   19  C   UNL     1      -9.630   6.592  68.882  1.00  0.00    -0.128 C  
HETATM   20  C   UNL     1      -8.307   6.601  69.683  1.00  0.00    -0.132 C  
HETATM   21  C   UNL     1      -8.143   5.942  70.864  1.00  0.00    -0.120 C  
ENDROOT
BRANCH   1  22
HETATM   22  C   UNL     1     -10.176  14.044  66.821  1.00  0.00    -0.264 C  
HETATM   23  N   UNL     1      -9.015  14.670  66.396  1.00  0.00    -0.466 N  
HETATM   24  O   UNL     1     -11.042  14.734  67.403  1.00  0.00    -0.303 OA 
HETATM   25  H   UNL     1      -8.385  14.116  65.816  1.00  0.00     0.000 HD 
BRANCH  23  26
HETATM   26  C   UNL     1      -8.592  16.063  66.697  1.00  0.00    -0.281 A  
HETATM   27  C   UNL     1      -7.368  16.337  67.362  1.00  0.00    -0.193 A  
HETATM   28  F   UNL     1     -11.017  19.506  65.823  1.00  0.00    -0.512 F  
HETATM   29  F   UNL     1      -6.141  15.363  69.148  1.00  0.00    -0.100 F  
HETATM   30  F   UNL     1      -5.167  15.433  67.208  1.00  0.00    -0.053 F  
HETATM   31  F   UNL     1      -6.774  14.005  67.575  1.00  0.00    -0.163 F  
HETATM   32  F   UNL     1      -9.187  20.670  65.623  1.00  0.00    -0.107 F  
HETATM   33  F   UNL     1     -10.141  20.459  67.569  1.00  0.00    -0.528 F  
HETATM   34  C   UNL     1      -6.969  17.670  67.661  1.00  0.00    -0.186 A  
HETATM   35  C   UNL     1      -7.761  18.770  67.345  1.00  0.00    -0.240 A  
HETATM   36  C   UNL     1      -9.829  19.775  66.433  1.00  0.00    -0.449 C  
HETATM   37  C   UNL     1      -8.982  18.555  66.716  1.00  0.00    -0.293 A  
HETATM   38  C   UNL     1      -9.382  17.206  66.395  1.00  0.00    -0.286 A  
HETATM   39  C   UNL     1      -6.380  15.289  67.815  1.00  0.00    -0.160 C  
ENDBRANCH  23  26
ENDBRANCH   1  22
TORSDOF 2
ENDMDL
MODEL       24
REMARK 921   NORMALIZED FREE ENERGY PREDICTED BY IDOCK:   -7.89 KCAL/MOL
REMARK 922        TOTAL FREE ENERGY PREDICTED BY IDOCK:   -9.45 KCAL/MOL
REMARK 923 INTER-LIGAND FREE ENERGY PREDICTED BY IDOCK:   -8.79 KCAL/MOL
REMARK 924 INTRA-LIGAND FREE ENERGY PREDICTED BY IDOCK:   -0.65 KCAL/MOL
REMARK 927      BINDING AFFINITY PREDICTED BY RF-SCORE:    0.00 PKD
ROOT
HETATM    1  C   UNL     1      -9.513   9.649  67.509  1.00  0.00    -0.157 C  
HETATM    2  H   UNL     1      -7.640  18.204  66.041  1.00  0.00     0.000 HD 
HETATM    3  C   UNL     1      -8.250   9.743  66.643  1.00  0.00    -0.120 C  
HETATM    4  C   UNL     1      -7.730  11.095  67.083  1.00  0.00    -0.136 C  
HETATM    5  C   UNL     1      -8.830  18.314  67.752  1.00  0.00    -0.263 C  
HETATM    6  O   UNL     1      -8.499  19.439  68.097  1.00  0.00    -0.311 OA 
HETATM    7  C   UNL     1     -11.586  10.927  67.920  1.00  0.00    -0.270 C  
HETATM    8  C   UNL     1      -8.989  11.957  66.984  1.00  0.00    -0.190 C  
HETATM    9  N   UNL     1      -8.205  17.666  66.699  1.00  0.00    -0.246 N  
HETATM   10  C   UNL     1     -10.311  11.027  67.073  1.00  0.00    -0.269 C  
HETATM   11  C   UNL     1      -9.022  13.424  67.412  1.00  0.00    -0.215 C  
HETATM   12  C   UNL     1      -7.585  13.984  67.435  1.00  0.00    -0.167 C  
HETATM   13  C   UNL     1     -10.956  11.712  65.760  1.00  0.00    -0.329 C  
HETATM   14  C   UNL     1     -11.159  13.355  65.991  1.00  0.00    -0.294 C  
HETATM   15  C   UNL     1      -7.501  15.490  67.584  1.00  0.00    -0.189 C  
HETATM   16  C   UNL     1      -9.856  14.183  66.342  1.00  0.00    -0.308 C  
HETATM   17  C   UNL     1      -8.342  16.226  66.517  1.00  0.00    -0.308 C  
HETATM   18  C   UNL     1     -10.630  16.499  65.449  1.00  0.00    -0.293 C  
HETATM   19  C   UNL     1      -9.858  15.777  66.578  1.00  0.00    -0.286 C  
HETATM   20  C   UNL     1     -10.374  16.380  67.907  1.00  0.00    -0.286 C  
HETATM   21  C   UNL     1      -9.884  17.531  68.446  1.00  0.00    -0.325 C  
ENDROOT
BRANCH   1  22
HETATM   22  C   UNL     1      -9.412   8.263  68.424  1.00  0.00    -0.139 C  
HETATM   23  N   UNL     1     -10.501   7.521  68.853  1.00  0.00    -0.215 N  
HETATM   24  O   UNL     1      -8.285   7.984  68.890  1.00  0.00    -0.122 OA 
HETATM   25  H   UNL     1     -11.383   7.683  68.367  1.00  0.00     0.000 HD 
BRANCH  23  26
HETATM   26  C   UNL     1     -10.519   6.515  69.948  1.00  0.00    -0.213 A  
HETATM   27  C   UNL     1     -11.236   6.745  71.152  1.00  0.00    -0.327 A  
HETATM   28  F   UNL     1      -8.287   2.842  69.815  1.00  0.00    -0.060 F  
HETATM   29  F   UNL     1     -11.626   8.604  72.578  1.00  0.00    -0.428 F  
HETATM   30  F   UNL     1     -13.366   7.697  71.648  1.00  0.00    -0.340 F  
HETATM   31  F   UNL     1     -12.009   8.928  70.465  1.00  0.00    -0.252 F  
HETATM   32  F   UNL     1      -9.799   1.945  71.100  1.00  0.00    -0.200 F  
HETATM   33  F   UNL     1      -8.095   2.980  71.975  1.00  0.00    -0.055 F  
HETATM   34  C   UNL     1     -11.243   5.787  72.205  1.00  0.00    -0.327 A  
HETATM   35  C   UNL     1     -10.532   4.594  72.126  1.00  0.00    -0.219 A  
HETATM   36  C   UNL     1      -8.999   3.044  70.957  1.00  0.00    -0.098 C  
HETATM   37  C   UNL     1      -9.791   4.332  70.980  1.00  0.00    -0.251 A  
HETATM   38  C   UNL     1      -9.797   5.291  69.902  1.00  0.00    -0.282 A  
HETATM   39  C   UNL     1     -12.047   7.983  71.448  1.00  0.00    -0.305 C  
ENDBRANCH  23  26
ENDBRANCH   1  22
TORSDOF 2
ENDMDL
MODEL       25
REMARK 921   NORMALIZED FREE ENERGY PREDICTED BY IDOCK:   -7.84 KCAL/MOL
REMARK 922        TOTAL FREE ENERGY PREDICTED BY IDOCK:   -9.39 KCAL/MOL
REMARK 923 INTER-LIGAND FREE ENERGY PREDICTED BY IDOCK:   -8.65 KCAL/MOL
REMARK 924 INTRA-LIGAND FREE ENERGY PREDICTED BY IDOCK:   -0.74 KCAL/MOL
REMARK 927      BINDING AFFINITY PREDICTED BY RF-SCORE:    0.00 PKD
ROOT
HETATM    1  C   UNL     1     -10.549  11.653  68.013  1.00  0.00    -0.232 C  
HETATM    2  H   UNL     1      -7.209  19.519  65.601  1.00  0.00     0.000 HD 
HETATM    3  C   UNL     1      -9.653  11.460  66.783  1.00  0.00    -0.207 C  
HETATM    4  C   UNL     1      -8.703  12.624  66.965  1.00  0.00    -0.198 C  
HETATM    5  C   UNL     1      -7.716  19.863  67.595  1.00  0.00    -0.291 C  
HETATM    6  O   UNL     1      -7.025  20.858  67.760  1.00  0.00    -0.312 OA 
HETATM    7  C   UNL     1     -11.996  13.392  69.005  1.00  0.00    -0.357 C  
HETATM    8  C   UNL     1      -9.673  13.775  67.234  1.00  0.00    -0.242 C  
HETATM    9  N   UNL     1      -7.645  19.116  66.431  1.00  0.00    -0.252 N  
HETATM   10  C   UNL     1     -11.080  13.200  67.789  1.00  0.00    -0.287 C  
HETATM   11  C   UNL     1      -9.203  15.188  67.577  1.00  0.00    -0.188 C  
HETATM   12  C   UNL     1      -7.745  15.373  67.108  1.00  0.00    -0.246 C  
HETATM   13  C   UNL     1     -11.926  14.068  66.722  1.00  0.00    -0.473 C  
HETATM   14  C   UNL     1     -11.633  15.701  66.925  1.00  0.00     0.193 C  
HETATM   15  C   UNL     1      -7.250  16.805  67.149  1.00  0.00    -0.220 C  
HETATM   16  C   UNL     1     -10.125  16.167  66.796  1.00  0.00    -0.275 C  
HETATM   17  C   UNL     1      -8.183  17.763  66.374  1.00  0.00    -0.255 C  
HETATM   18  C   UNL     1     -10.552  18.632  66.086  1.00  0.00    -0.409 C  
HETATM   19  C   UNL     1      -9.658  17.703  66.941  1.00  0.00    -0.286 C  
HETATM   20  C   UNL     1      -9.552  18.369  68.334  1.00  0.00    -0.366 C  
HETATM   21  C   UNL     1      -8.646  19.343  68.629  1.00  0.00    -0.394 C  
ENDROOT
BRANCH   1  22
HETATM   22  C   UNL     1     -10.502  10.255  68.913  1.00  0.00    -0.211 C  
HETATM   23  N   UNL     1     -10.059  10.176  70.224  1.00  0.00    -0.413 N  
HETATM   24  O   UNL     1     -10.718   9.188  68.297  1.00  0.00    -0.199 OA 
HETATM   25  H   UNL     1     -10.011  11.054  70.743  1.00  0.00     0.000 HD 
BRANCH  23  26
HETATM   26  C   UNL     1      -9.646   8.949  70.954  1.00  0.00    -0.238 A  
HETATM   27  C   UNL     1      -8.276   8.626  71.144  1.00  0.00    -0.187 A  
HETATM   28  F   UNL     1     -12.440   6.044  72.454  1.00  0.00    -0.342 F  
HETATM   29  F   UNL     1      -6.295   8.764  69.841  1.00  0.00    -0.036 F  
HETATM   30  F   UNL     1      -6.339   9.906  71.688  1.00  0.00     0.011 F  
HETATM   31  F   UNL     1      -7.486  10.576  69.957  1.00  0.00    -0.154 F  
HETATM   32  F   UNL     1     -11.001   5.551  74.012  1.00  0.00    -0.292 F  
HETATM   33  F   UNL     1     -10.926   4.527  72.092  1.00  0.00    -0.196 F  
HETATM   34  C   UNL     1      -7.881   7.445  71.832  1.00  0.00    -0.091 A  
HETATM   35  C   UNL     1      -8.807   6.532  72.330  1.00  0.00    -0.133 A  
HETATM   36  C   UNL     1     -11.128   5.746  72.666  1.00  0.00    -0.280 C  
HETATM   37  C   UNL     1     -10.161   6.787  72.148  1.00  0.00    -0.198 A  
HETATM   38  C   UNL     1     -10.566   7.993  71.467  1.00  0.00    -0.273 A  
HETATM   39  C   UNL     1      -7.119   9.465  70.659  1.00  0.00    -0.124 C  
ENDBRANCH  23  26
ENDBRANCH   1  22
TORSDOF 2
ENDMDL
MODEL       26
REMARK 921   NORMALIZED FREE ENERGY PREDICTED BY IDOCK:   -7.74 KCAL/MOL
REMARK 922        TOTAL FREE ENERGY PREDICTED BY IDOCK:   -9.27 KCAL/MOL
REMARK 923 INTER-LIGAND FREE ENERGY PREDICTED BY IDOCK:   -8.60 KCAL/MOL
REMARK 924 INTRA-LIGAND FREE ENERGY PREDICTED BY IDOCK:   -0.67 KCAL/MOL
REMARK 927      BINDING AFFINITY PREDICTED BY RF-SCORE:    0.00 PKD
ROOT
HETATM    1  C   UNL     1     -10.464   9.806  68.041  1.00  0.00    -0.271 C  
HETATM    2  H   UNL     1      -8.172   2.000  71.601  1.00  0.00     0.000 HD 
HETATM    3  C   UNL     1     -11.219   9.618  69.363  1.00  0.00    -0.112 C  
HETATM    4  C   UNL     1     -10.250   8.711  70.092  1.00  0.00    -0.204 C  
HETATM    5  C   UNL     1      -6.567   2.374  70.321  1.00  0.00    -0.032 C  
HETATM    6  O   UNL     1      -5.779   1.591  70.830  1.00  0.00    -0.014 OA 
HETATM    7  C   UNL     1      -9.531   8.422  66.219  1.00  0.00    -0.292 C  
HETATM    8  C   UNL     1      -9.963   7.650  69.029  1.00  0.00    -0.181 C  
HETATM    9  N   UNL     1      -7.801   2.636  70.895  1.00  0.00    -0.045 N  
HETATM   10  C   UNL     1     -10.266   8.240  67.554  1.00  0.00    -0.309 C  
HETATM   11  C   UNL     1      -8.951   6.523  69.240  1.00  0.00    -0.131 C  
HETATM   12  C   UNL     1      -8.705   6.329  70.750  1.00  0.00    -0.136 C  
HETATM   13  C   UNL     1     -11.158   6.954  67.155  1.00  0.00    -0.362 C  
HETATM   14  C   UNL     1     -10.249   5.554  67.247  1.00  0.00    -0.255 C  
HETATM   15  C   UNL     1      -7.930   5.076  71.104  1.00  0.00    -0.101 C  
HETATM   16  C   UNL     1      -9.591   5.233  68.651  1.00  0.00    -0.183 C  
HETATM   17  C   UNL     1      -8.576   3.807  70.504  1.00  0.00    -0.070 C  
HETATM   18  C   UNL     1      -9.408   2.652  68.400  1.00  0.00    -0.256 C  
HETATM   19  C   UNL     1      -8.699   3.920  68.931  1.00  0.00    -0.132 C  
HETATM   20  C   UNL     1      -7.236   3.837  68.434  1.00  0.00    -0.054 C  
HETATM   21  C   UNL     1      -6.263   3.143  69.087  1.00  0.00    -0.029 C  
ENDROOT
BRANCH   1  22
HETATM   22  C   UNL     1     -10.227  11.435  67.806  1.00  0.00    -0.181 C  
HETATM   23  N   UNL     1     -11.208  12.323  67.393  1.00  0.00    -0.281 N  
HETATM   24  O   UNL     1      -9.042  11.836  67.842  1.00  0.00    -0.167 OA 
HETATM   25  H   UNL     1     -12.174  12.013  67.493  1.00  0.00     0.000 HD 
BRANCH  23  26
HETATM   26  C   UNL     1     -10.999  13.678  66.818  1.00  0.00    -0.292 A  
HETATM   27  C   UNL     1     -11.031  13.900  65.416  1.00  0.00    -0.316 A  
HETATM   28  F   UNL     1     -10.068  17.133  69.203  1.00  0.00    -0.267 F  
HETATM   29  F   UNL     1     -10.268  12.743  63.487  1.00  0.00    -0.391 F  
HETATM   30  F   UNL     1     -12.407  13.086  63.647  1.00  0.00    -0.478 F  
HETATM   31  F   UNL     1     -11.443  11.578  64.894  1.00  0.00    -0.331 F  
HETATM   32  F   UNL     1     -11.036  18.365  67.691  1.00  0.00    -0.436 F  
HETATM   33  F   UNL     1      -8.920  17.883  67.517  1.00  0.00    -0.241 F  
HETATM   34  C   UNL     1     -10.819  15.196  64.866  1.00  0.00    -0.437 A  
HETATM   35  C   UNL     1     -10.544  16.304  65.662  1.00  0.00    -0.360 A  
HETATM   36  C   UNL     1     -10.129  17.357  67.862  1.00  0.00    -0.326 C  
HETATM   37  C   UNL     1     -10.474  16.136  67.040  1.00  0.00    -0.306 A  
HETATM   38  C   UNL     1     -10.708  14.828  67.604  1.00  0.00    -0.270 A  
HETATM   39  C   UNL     1     -11.285  12.832  64.380  1.00  0.00    -0.347 C  
ENDBRANCH  23  26
ENDBRANCH   1  22
TORSDOF 2
ENDMDL
MODEL       27
REMARK 921   NORMALIZED FREE ENERGY PREDICTED BY IDOCK:   -7.70 KCAL/MOL
REMARK 922        TOTAL FREE ENERGY PREDICTED BY IDOCK:   -9.23 KCAL/MOL
REMARK 923 INTER-LIGAND FREE ENERGY PREDICTED BY IDOCK:   -8.51 KCAL/MOL
REMARK 924 INTRA-LIGAND FREE ENERGY PREDICTED BY IDOCK:   -0.71 KCAL/MOL
REMARK 927      BINDING AFFINITY PREDICTED BY RF-SCORE:    0.00 PKD
ROOT
HETATM    1  C   UNL     1      -8.728  11.945  68.697  1.00  0.00    -0.034 C  
HETATM    2  H   UNL     1      -7.805   3.281  66.984  1.00  0.00     0.000 HD 
HETATM    3  C   UNL     1      -7.273  11.535  68.960  1.00  0.00    -0.106 C  
HETATM    4  C   UNL     1      -7.155  10.363  68.010  1.00  0.00    -0.082 C  
HETATM    5  C   UNL     1      -9.519   3.753  65.891  1.00  0.00    -0.171 C  
HETATM    6  O   UNL     1      -9.507   2.776  65.156  1.00  0.00    -0.140 OA 
HETATM    7  C   UNL     1     -10.986  10.944  68.776  1.00  0.00    -0.285 C  
HETATM    8  C   UNL     1      -8.417   9.567  68.343  1.00  0.00    -0.119 C  
HETATM    9  N   UNL     1      -8.474   4.019  66.760  1.00  0.00    -0.104 N  
HETATM   10  C   UNL     1      -9.526  10.534  69.015  1.00  0.00    -0.211 C  
HETATM   11  C   UNL     1      -8.823   8.306  67.581  1.00  0.00    -0.137 C  
HETATM   12  C   UNL     1      -7.589   7.718  66.865  1.00  0.00    -0.099 C  
HETATM   13  C   UNL     1      -9.770   9.507  70.238  1.00  0.00    -0.314 C  
HETATM   14  C   UNL     1     -10.293   8.025  69.668  1.00  0.00    -0.220 C  
HETATM   15  C   UNL     1      -7.796   6.329  66.295  1.00  0.00    -0.104 C  
HETATM   16  C   UNL     1      -9.338   7.290  68.640  1.00  0.00    -0.138 C  
HETATM   17  C   UNL     1      -8.315   5.337  67.361  1.00  0.00    -0.106 C  
HETATM   18  C   UNL     1     -10.099   4.847  69.101  1.00  0.00    -0.229 C  
HETATM   19  C   UNL     1      -9.668   5.847  68.002  1.00  0.00    -0.132 C  
HETATM   20  C   UNL     1     -10.702   5.705  66.860  1.00  0.00    -0.350 C  
HETATM   21  C   UNL     1     -10.614   4.756  65.887  1.00  0.00    -0.290 C  
ENDROOT
BRANCH   1  22
HETATM   22  C   UNL     1      -8.740  13.539  68.223  1.00  0.00    -0.172 C  
HETATM   23  N   UNL     1      -9.842  14.377  68.301  1.00  0.00    -0.222 N  
HETATM   24  O   UNL     1      -7.734  13.941  67.598  1.00  0.00    -0.154 OA 
HETATM   25  H   UNL     1     -10.597  14.079  68.919  1.00  0.00     0.000 HD 
BRANCH  23  26
HETATM   26  C   UNL     1     -10.039  15.661  67.579  1.00  0.00    -0.253 A  
HETATM   27  C   UNL     1     -10.600  15.698  66.275  1.00  0.00    -0.310 A  
HETATM   28  F   UNL     1      -8.793  19.465  69.151  1.00  0.00    -0.390 F  
HETATM   29  F   UNL     1     -10.429  14.383  64.305  1.00  0.00    -0.339 F  
HETATM   30  F   UNL     1     -12.394  14.537  65.217  1.00  0.00    -0.381 F  
HETATM   31  F   UNL     1     -10.852  13.300  66.139  1.00  0.00    -0.276 F  
HETATM   32  F   UNL     1     -10.396  20.396  68.007  1.00  0.00    -0.508 F  
HETATM   33  F   UNL     1      -8.438  20.099  67.102  1.00  0.00    -0.328 F  
HETATM   34  C   UNL     1     -10.777  16.927  65.579  1.00  0.00    -0.171 A  
HETATM   35  C   UNL     1     -10.388  18.149  66.121  1.00  0.00    -0.394 A  
HETATM   36  C   UNL     1      -9.360  19.509  67.913  1.00  0.00    -0.333 C  
HETATM   37  C   UNL     1      -9.808  18.166  67.384  1.00  0.00    -0.316 A  
HETATM   38  C   UNL     1      -9.644  16.924  68.101  1.00  0.00    -0.255 A  
HETATM   39  C   UNL     1     -11.060  14.487  65.501  1.00  0.00    -0.339 C  
ENDBRANCH  23  26
ENDBRANCH   1  22
TORSDOF 2
ENDMDL
MODEL       28
REMARK 921   NORMALIZED FREE ENERGY PREDICTED BY IDOCK:   -7.66 KCAL/MOL
REMARK 922        TOTAL FREE ENERGY PREDICTED BY IDOCK:   -9.19 KCAL/MOL
REMARK 923 INTER-LIGAND FREE ENERGY PREDICTED BY IDOCK:   -8.54 KCAL/MOL
REMARK 924 INTRA-LIGAND FREE ENERGY PREDICTED BY IDOCK:   -0.65 KCAL/MOL
REMARK 927      BINDING AFFINITY PREDICTED BY RF-SCORE:    0.00 PKD
ROOT
HETATM    1  C   UNL     1      -9.194   9.970  67.044  1.00  0.00    -0.167 C  
HETATM    2  H   UNL     1      -8.143  18.719  65.950  1.00  0.00     0.000 HD 
HETATM    3  C   UNL     1      -7.898  10.225  66.262  1.00  0.00    -0.118 C  
HETATM    4  C   UNL     1      -7.550  11.606  66.774  1.00  0.00    -0.104 C  
HETATM    5  C   UNL     1      -9.439  18.645  67.584  1.00  0.00    -0.293 C  
HETATM    6  O   UNL     1      -9.248  19.785  67.983  1.00  0.00    -0.335 OA 
HETATM    7  C   UNL     1     -11.411  11.013  67.359  1.00  0.00    -0.306 C  
HETATM    8  C   UNL     1      -8.884  12.337  66.621  1.00  0.00    -0.167 C  
HETATM    9  N   UNL     1      -8.687  18.103  66.554  1.00  0.00    -0.275 N  
HETATM   10  C   UNL     1     -10.104  11.274  66.598  1.00  0.00    -0.251 C  
HETATM   11  C   UNL     1      -9.096  13.776  67.089  1.00  0.00    -0.243 C  
HETATM   12  C   UNL     1      -7.730  14.481  67.219  1.00  0.00    -0.177 C  
HETATM   13  C   UNL     1     -10.737  11.935  65.268  1.00  0.00    -0.331 C  
HETATM   14  C   UNL     1     -11.125  13.540  65.534  1.00  0.00    -0.303 C  
HETATM   15  C   UNL     1      -7.813  15.981  67.419  1.00  0.00    -0.188 C  
HETATM   16  C   UNL     1      -9.939  14.484  65.991  1.00  0.00    -0.343 C  
HETATM   17  C   UNL     1      -8.661  16.665  66.322  1.00  0.00    -0.324 C  
HETATM   18  C   UNL     1     -10.896  16.738  65.119  1.00  0.00    -0.150 C  
HETATM   19  C   UNL     1     -10.122  16.060  66.273  1.00  0.00    -0.329 C  
HETATM   20  C   UNL     1     -10.778  16.558  67.584  1.00  0.00    -0.311 C  
HETATM   21  C   UNL     1     -10.444  17.734  68.186  1.00  0.00    -0.382 C  
ENDROOT
BRANCH   1  22
HETATM   22  C   UNL     1      -9.003   8.570  67.921  1.00  0.00    -0.137 C  
HETATM   23  N   UNL     1      -9.973   7.589  68.061  1.00  0.00    -0.165 N  
HETATM   24  O   UNL     1      -7.979   8.496  68.635  1.00  0.00    -0.112 OA 
HETATM   25  H   UNL     1     -10.735   7.602  67.382  1.00  0.00     0.000 HD 
BRANCH  23  26
HETATM   26  C   UNL     1     -10.020   6.522  69.094  1.00  0.00    -0.146 A  
HETATM   27  C   UNL     1      -9.674   5.179  68.787  1.00  0.00    -0.215 A  
HETATM   28  F   UNL     1     -11.378   7.194  73.119  1.00  0.00    -0.299 F  
HETATM   29  F   UNL     1     -10.018   3.704  66.958  1.00  0.00    -0.227 F  
HETATM   30  F   UNL     1      -7.961   4.176  67.467  1.00  0.00    -0.088 F  
HETATM   31  F   UNL     1      -9.209   5.659  66.466  1.00  0.00    -0.128 F  
HETATM   32  F   UNL     1     -10.073   5.575  73.767  1.00  0.00    -0.158 F  
HETATM   33  F   UNL     1     -12.109   5.147  73.123  1.00  0.00    -0.355 F  
HETATM   34  C   UNL     1      -9.731   4.155  69.775  1.00  0.00    -0.278 A  
HETATM   35  C   UNL     1     -10.151   4.404  71.078  1.00  0.00    -0.195 A  
HETATM   36  C   UNL     1     -11.017   5.911  72.838  1.00  0.00    -0.268 C  
HETATM   37  C   UNL     1     -10.526   5.697  71.424  1.00  0.00    -0.300 A  
HETATM   38  C   UNL     1     -10.452   6.742  70.431  1.00  0.00    -0.236 A  
HETATM   39  C   UNL     1      -9.222   4.694  67.432  1.00  0.00    -0.131 C  
ENDBRANCH  23  26
ENDBRANCH   1  22
TORSDOF 2
ENDMDL
MODEL       29
REMARK 921   NORMALIZED FREE ENERGY PREDICTED BY IDOCK:   -7.62 KCAL/MOL
REMARK 922        TOTAL FREE ENERGY PREDICTED BY IDOCK:   -9.14 KCAL/MOL
REMARK 923 INTER-LIGAND FREE ENERGY PREDICTED BY IDOCK:   -8.42 KCAL/MOL
REMARK 924 INTRA-LIGAND FREE ENERGY PREDICTED BY IDOCK:   -0.72 KCAL/MOL
REMARK 927      BINDING AFFINITY PREDICTED BY RF-SCORE:    0.00 PKD
ROOT
HETATM    1  C   UNL     1     -10.347  12.447  67.023  1.00  0.00    -0.235 C  
HETATM    2  H   UNL     1     -10.541   3.859  69.269  1.00  0.00     0.000 HD 
HETATM    3  C   UNL     1     -11.803  12.025  67.259  1.00  0.00    -0.257 C  
HETATM    4  C   UNL     1     -11.591  10.892  68.241  1.00  0.00    -0.335 C  
HETATM    5  C   UNL     1      -8.573   4.377  69.732  1.00  0.00    -0.069 C  
HETATM    6  O   UNL     1      -8.333   3.431  70.467  1.00  0.00    -0.058 OA 
HETATM    7  C   UNL     1      -8.221  11.448  66.258  1.00  0.00    -0.088 C  
HETATM    8  C   UNL     1     -10.492  10.085  67.548  1.00  0.00    -0.307 C  
HETATM    9  N   UNL     1      -9.847   4.606  69.237  1.00  0.00    -0.199 N  
HETATM   10  C   UNL     1      -9.674  11.026  66.518  1.00  0.00    -0.230 C  
HETATM   11  C   UNL     1      -9.844   8.857  68.186  1.00  0.00    -0.193 C  
HETATM   12  C   UNL     1     -10.772   8.297  69.283  1.00  0.00    -0.140 C  
HETATM   13  C   UNL     1      -9.822   9.951  65.322  1.00  0.00    -0.373 C  
HETATM   14  C   UNL     1      -9.122   8.494  65.748  1.00  0.00    -0.222 C  
HETATM   15  C   UNL     1     -10.372   6.932  69.808  1.00  0.00    -0.224 C  
HETATM   16  C   UNL     1      -9.683   7.800  67.056  1.00  0.00    -0.259 C  
HETATM   17  C   UNL     1     -10.210   5.899  68.670  1.00  0.00    -0.192 C  
HETATM   18  C   UNL     1      -9.076   5.342  66.467  1.00  0.00    -0.129 C  
HETATM   19  C   UNL     1      -9.144   6.385  67.607  1.00  0.00    -0.114 C  
HETATM   20  C   UNL     1      -7.795   6.291  68.360  1.00  0.00    -0.105 C  
HETATM   21  C   UNL     1      -7.550   5.381  69.344  1.00  0.00    -0.077 C  
ENDROOT
BRANCH   1  22
HETATM   22  C   UNL     1     -10.206  14.060  67.407  1.00  0.00    -0.248 C  
HETATM   23  N   UNL     1      -9.404  14.964  66.729  1.00  0.00    -0.236 N  
HETATM   24  O   UNL     1     -10.728  14.423  68.484  1.00  0.00    -0.239 OA 
HETATM   25  H   UNL     1      -9.095  14.690  65.797  1.00  0.00     0.000 HD 
BRANCH  23  26
HETATM   26  C   UNL     1      -8.948  16.292  67.218  1.00  0.00    -0.195 A  
HETATM   27  C   UNL     1      -7.686  16.454  67.848  1.00  0.00    -0.161 A  
HETATM   28  F   UNL     1     -11.374  19.838  67.026  1.00  0.00    -0.489 F  
HETATM   29  F   UNL     1      -6.375  15.210  69.388  1.00  0.00    -0.104 F  
HETATM   30  F   UNL     1      -5.508  15.577  67.431  1.00  0.00    -0.131 F  
HETATM   31  F   UNL     1      -7.111  14.116  67.663  1.00  0.00    -0.128 F  
HETATM   32  F   UNL     1      -9.543  21.012  66.907  1.00  0.00    -0.487 F  
HETATM   33  F   UNL     1     -10.392  20.505  68.847  1.00  0.00    -0.442 F  
HETATM   34  C   UNL     1      -7.254  17.724  68.327  1.00  0.00    -0.237 A  
HETATM   35  C   UNL     1      -8.049  18.862  68.230  1.00  0.00    -0.353 A  
HETATM   36  C   UNL     1     -10.151  20.005  67.603  1.00  0.00    -0.422 C  
HETATM   37  C   UNL     1      -9.305  18.752  67.645  1.00  0.00    -0.320 A  
HETATM   38  C   UNL     1      -9.739  17.471  67.142  1.00  0.00    -0.279 A  
HETATM   39  C   UNL     1      -6.688  15.346  68.076  1.00  0.00    -0.144 C  
ENDBRANCH  23  26
ENDBRANCH   1  22
TORSDOF 2
ENDMDL
MODEL       30
REMARK 921   NORMALIZED FREE ENERGY PREDICTED BY IDOCK:   -7.62 KCAL/MOL
REMARK 922        TOTAL FREE ENERGY PREDICTED BY IDOCK:   -9.14 KCAL/MOL
REMARK 923 INTER-LIGAND FREE ENERGY PREDICTED BY IDOCK:   -8.38 KCAL/MOL
REMARK 924 INTRA-LIGAND FREE ENERGY PREDICTED BY IDOCK:   -0.76 KCAL/MOL
REMARK 927      BINDING AFFINITY PREDICTED BY RF-SCORE:    0.00 PKD
ROOT
HETATM    1  C   UNL     1     -11.081  13.035  68.032  1.00  0.00    -0.288 C  
HETATM    2  H   UNL     1      -7.268  20.624  65.443  1.00  0.00     0.000 HD 
HETATM    3  C   UNL     1     -11.162  13.139  66.504  1.00  0.00    -0.339 C  
HETATM    4  C   UNL     1      -9.950  14.006  66.236  1.00  0.00    -0.317 C  
HETATM    5  C   UNL     1      -6.412  20.336  67.324  1.00  0.00    -0.212 C  
HETATM    6  O   UNL     1      -5.462  21.091  67.179  1.00  0.00    -0.190 OA 
HETATM    7  C   UNL     1     -11.030  14.530  69.998  1.00  0.00    -0.100 C  
HETATM    8  C   UNL     1     -10.144  15.130  67.254  1.00  0.00    -0.235 C  
HETATM    9  N   UNL     1      -7.265  20.034  66.275  1.00  0.00    -0.262 N  
HETATM   10  C   UNL     1     -11.087  14.628  68.468  1.00  0.00    -0.273 C  
HETATM   11  C   UNL     1      -9.120  16.247  67.455  1.00  0.00    -0.196 C  
HETATM   12  C   UNL     1      -8.220  16.351  66.206  1.00  0.00    -0.343 C  
HETATM   13  C   UNL     1     -12.034  15.931  68.353  1.00  0.00     0.023 C  
HETATM   14  C   UNL     1     -11.149  17.327  68.600  1.00  0.00     0.037 C  
HETATM   15  C   UNL     1      -7.341  17.585  66.167  1.00  0.00    -0.347 C  
HETATM   16  C   UNL     1      -9.926  17.567  67.623  1.00  0.00    -0.309 C  
HETATM   17  C   UNL     1      -8.159  18.885  66.342  1.00  0.00    -0.292 C  
HETATM   18  C   UNL     1      -9.817  20.159  67.784  1.00  0.00    -0.547 C  
HETATM   19  C   UNL     1      -8.974  18.865  67.698  1.00  0.00    -0.313 C  
HETATM   20  C   UNL     1      -7.886  18.986  68.792  1.00  0.00    -0.378 C  
HETATM   21  C   UNL     1      -6.708  19.644  68.605  1.00  0.00    -0.332 C  
ENDROOT
BRANCH   1  22
HETATM   22  C   UNL     1     -11.010  11.423  68.439  1.00  0.00    -0.215 C  
HETATM   23  N   UNL     1      -9.846  10.742  68.759  1.00  0.00    -0.187 N  
HETATM   24  O   UNL     1     -12.057  10.760  68.270  1.00  0.00    -0.496 OA 
HETATM   25  H   UNL     1      -9.040  11.312  69.014  1.00  0.00     0.000 HD 
BRANCH  23  26
HETATM   26  C   UNL     1      -9.649   9.268  68.769  1.00  0.00    -0.154 A  
HETATM   27  C   UNL     1      -9.178   8.577  67.622  1.00  0.00    -0.147 A  
HETATM   28  F   UNL     1     -10.634   6.781  72.136  1.00  0.00    -0.209 F  
HETATM   29  F   UNL     1      -9.536   8.717  65.278  1.00  0.00    -0.236 F  
HETATM   30  F   UNL     1      -7.508   9.043  65.985  1.00  0.00    -0.089 F  
HETATM   31  F   UNL     1      -9.029  10.578  66.277  1.00  0.00    -0.149 F  
HETATM   32  F   UNL     1      -9.078   5.399  71.494  1.00  0.00    -0.138 F  
HETATM   33  F   UNL     1     -11.104   5.199  70.722  1.00  0.00    -0.202 F  
HETATM   34  C   UNL     1      -9.002   7.165  67.629  1.00  0.00    -0.125 A  
HETATM   35  C   UNL     1      -9.304   6.385  68.741  1.00  0.00    -0.125 A  
HETATM   36  C   UNL     1     -10.152   6.117  71.049  1.00  0.00    -0.188 C  
HETATM   37  C   UNL     1      -9.795   7.009  69.882  1.00  0.00    -0.173 A  
HETATM   38  C   UNL     1      -9.957   8.443  69.886  1.00  0.00    -0.190 A  
HETATM   39  C   UNL     1      -8.820   9.230  66.310  1.00  0.00    -0.146 C  
ENDBRANCH  23  26
ENDBRANCH   1  22
TORSDOF 2
ENDMDL
MODEL       31
REMARK 921   NORMALIZED FREE ENERGY PREDICTED BY IDOCK:   -7.51 KCAL/MOL
REMARK 922        TOTAL FREE ENERGY PREDICTED BY IDOCK:   -9.02 KCAL/MOL
REMARK 923 INTER-LIGAND FREE ENERGY PREDICTED BY IDOCK:   -8.70 KCAL/MOL
REMARK 924 INTRA-LIGAND FREE ENERGY PREDICTED BY IDOCK:   -0.31 KCAL/MOL
REMARK 927      BINDING AFFINITY PREDICTED BY RF-SCORE:    0.00 PKD
ROOT
HETATM    1  C   UNL     1      -9.716  13.010  67.881  1.00  0.00    -0.218 C  
HETATM    2  H   UNL     1     -12.888   5.946  72.228  1.00  0.00     0.000 HD 
HETATM    3  C   UNL     1     -11.189  13.258  68.232  1.00  0.00    -0.309 C  
HETATM    4  C   UNL     1     -11.314  12.390  69.466  1.00  0.00    -0.250 C  
HETATM    5  C   UNL     1     -10.833   5.742  72.523  1.00  0.00    -0.250 C  
HETATM    6  O   UNL     1     -10.889   4.973  73.472  1.00  0.00    -0.257 OA 
HETATM    7  C   UNL     1      -8.220  11.111  67.371  1.00  0.00    -0.132 C  
HETATM    8  C   UNL     1     -10.683  11.082  68.989  1.00  0.00    -0.258 C  
HETATM    9  N   UNL     1     -11.972   6.332  72.001  1.00  0.00    -0.330 N  
HETATM   10  C   UNL     1      -9.687  11.364  67.745  1.00  0.00    -0.184 C  
HETATM   11  C   UNL     1     -10.480   9.878  69.909  1.00  0.00    -0.309 C  
HETATM   12  C   UNL     1     -11.426   9.994  71.122  1.00  0.00    -0.432 C  
HETATM   13  C   UNL     1     -10.359  10.191  66.861  1.00  0.00    -0.298 C  
HETATM   14  C   UNL     1     -10.218   8.715  67.635  1.00  0.00    -0.300 C  
HETATM   15  C   UNL     1     -11.516   8.741  71.971  1.00  0.00    -0.441 C  
HETATM   16  C   UNL     1     -10.854   8.616  69.082  1.00  0.00    -0.060 C  
HETATM   17  C   UNL     1     -11.880   7.497  71.130  1.00  0.00    -0.299 C  
HETATM   18  C   UNL     1     -11.286   6.053  69.127  1.00  0.00    -0.337 C  
HETATM   19  C   UNL     1     -10.832   7.269  69.967  1.00  0.00    -0.271 C  
HETATM   20  C   UNL     1      -9.544   6.829  70.704  1.00  0.00    -0.174 C  
HETATM   21  C   UNL     1      -9.555   6.147  71.884  1.00  0.00    -0.166 C  
ENDROOT
BRANCH   1  22
HETATM   22  C   UNL     1      -8.937  14.479  67.844  1.00  0.00    -0.187 C  
HETATM   23  N   UNL     1      -9.118  15.490  68.775  1.00  0.00    -0.193 N  
HETATM   24  O   UNL     1      -8.284  14.736  66.809  1.00  0.00    -0.168 OA 
HETATM   25  H   UNL     1      -9.543  15.222  69.662  1.00  0.00     0.000 HD 
BRANCH  23  26
HETATM   26  C   UNL     1      -8.758  16.924  68.615  1.00  0.00    -0.267 A  
HETATM   27  C   UNL     1      -9.544  17.800  67.821  1.00  0.00    -0.272 A  
HETATM   28  F   UNL     1      -5.214  18.670  70.315  1.00  0.00    -0.179 F  
HETATM   29  F   UNL     1     -10.705  17.651  65.754  1.00  0.00    -0.377 F  
HETATM   30  F   UNL     1     -11.891  18.095  67.519  1.00  0.00     0.576 F  
HETATM   31  F   UNL     1     -11.120  16.080  67.195  1.00  0.00    -0.316 F  
HETATM   32  F   UNL     1      -6.267  20.574  70.405  1.00  0.00    -0.393 F  
HETATM   33  F   UNL     1      -5.164  20.018  68.612  1.00  0.00    -0.193 F  
HETATM   34  C   UNL     1      -9.192  19.170  67.659  1.00  0.00    -0.349 A  
HETATM   35  C   UNL     1      -8.053  19.716  68.241  1.00  0.00    -0.357 A  
HETATM   36  C   UNL     1      -5.983  19.521  69.581  1.00  0.00    -0.268 C  
HETATM   37  C   UNL     1      -7.233  18.895  69.006  1.00  0.00    -0.328 A  
HETATM   38  C   UNL     1      -7.596  17.510  69.189  1.00  0.00    -0.069 A  
HETATM   39  C   UNL     1     -10.800  17.402  67.084  1.00  0.00    -0.090 C  
ENDBRANCH  23  26
ENDBRANCH   1  22
TORSDOF 2
ENDMDL
MODEL       32
REMARK 921   NORMALIZED FREE ENERGY PREDICTED BY IDOCK:   -7.49 KCAL/MOL
REMARK 922        TOTAL FREE ENERGY PREDICTED BY IDOCK:   -8.99 KCAL/MOL
REMARK 923 INTER-LIGAND FREE ENERGY PREDICTED BY IDOCK:   -8.37 KCAL/MOL
REMARK 924 INTRA-LIGAND FREE ENERGY PREDICTED BY IDOCK:   -0.62 KCAL/MOL
REMARK 927      BINDING AFFINITY PREDICTED BY RF-SCORE:    0.00 PKD
ROOT
HETATM    1  C   UNL     1      -9.989  10.098  67.524  1.00  0.00    -0.231 C  
HETATM    2  H   UNL     1     -10.562   3.782  73.740  1.00  0.00     0.000 HD 
HETATM    3  C   UNL     1     -11.342  10.219  68.238  1.00  0.00    -0.245 C  
HETATM    4  C   UNL     1     -10.982   9.629  69.585  1.00  0.00    -0.253 C  
HETATM    5  C   UNL     1      -8.500   3.920  73.459  1.00  0.00    -0.088 C  
HETATM    6  O   UNL     1      -8.166   3.373  74.500  1.00  0.00    -0.072 OA 
HETATM    7  C   UNL     1      -8.347   8.348  66.936  1.00  0.00    -0.106 C  
HETATM    8  C   UNL     1     -10.262   8.344  69.176  1.00  0.00    -0.217 C  
HETATM    9  N   UNL     1      -9.824   4.228  73.195  1.00  0.00    -0.131 N  
HETATM   10  C   UNL     1      -9.690   8.480  67.668  1.00  0.00    -0.201 C  
HETATM   11  C   UNL     1      -9.609   7.405  70.189  1.00  0.00    -0.165 C  
HETATM   12  C   UNL     1     -10.216   7.653  71.586  1.00  0.00    -0.217 C  
HETATM   13  C   UNL     1     -10.334   7.066  67.230  1.00  0.00    -0.331 C  
HETATM   14  C   UNL     1      -9.727   5.824  68.169  1.00  0.00    -0.146 C  
HETATM   15  C   UNL     1      -9.849   6.612  72.625  1.00  0.00    -0.180 C  
HETATM   16  C   UNL     1      -9.940   5.955  69.733  1.00  0.00    -0.236 C  
HETATM   17  C   UNL     1     -10.179   5.179  72.149  1.00  0.00    -0.202 C  
HETATM   18  C   UNL     1      -9.859   3.428  70.337  1.00  0.00    -0.020 C  
HETATM   19  C   UNL     1      -9.440   4.846  70.790  1.00  0.00    -0.232 C  
HETATM   20  C   UNL     1      -7.948   4.749  71.188  1.00  0.00    -0.088 C  
HETATM   21  C   UNL     1      -7.528   4.342  72.419  1.00  0.00    -0.077 C  
ENDROOT
BRANCH   1  22
HETATM   22  C   UNL     1      -9.534  11.614  67.014  1.00  0.00    -0.182 C  
HETATM   23  N   UNL     1     -10.096  12.799  67.465  1.00  0.00    -0.211 N  
HETATM   24  O   UNL     1      -8.757  11.662  66.035  1.00  0.00    -0.160 OA 
HETATM   25  H   UNL     1     -10.623  12.751  68.337  1.00  0.00     0.000 HD 
BRANCH  23  26
HETATM   26  C   UNL     1     -10.011  14.131  66.811  1.00  0.00    -0.267 A  
HETATM   27  C   UNL     1     -10.948  14.530  65.821  1.00  0.00    -0.319 A  
HETATM   28  F   UNL     1      -6.860  16.950  67.598  1.00  0.00    -0.131 F  
HETATM   29  F   UNL     1     -12.059  13.482  64.002  1.00  0.00    -0.426 F  
HETATM   30  F   UNL     1     -13.308  14.284  65.587  1.00  0.00    -0.526 F  
HETATM   31  F   UNL     1     -12.172  12.450  65.909  1.00  0.00    -0.471 F  
HETATM   32  F   UNL     1      -8.253  18.552  67.111  1.00  0.00    -0.238 F  
HETATM   33  F   UNL     1      -7.063  17.622  65.541  1.00  0.00    -0.284 F  
HETATM   34  C   UNL     1     -10.859  15.801  65.186  1.00  0.00    -0.444 A  
HETATM   35  C   UNL     1      -9.843  16.706  65.477  1.00  0.00    -0.014 A  
HETATM   36  C   UNL     1      -7.774  17.350  66.672  1.00  0.00    -0.258 C  
HETATM   37  C   UNL     1      -8.884  16.354  66.420  1.00  0.00    -0.346 A  
HETATM   38  C   UNL     1      -8.981  15.074  67.080  1.00  0.00    -0.255 A  
HETATM   39  C   UNL     1     -12.106  13.689  65.341  1.00  0.00    -0.403 C  
ENDBRANCH  23  26
ENDBRANCH   1  22
TORSDOF 2
ENDMDL
MODEL       33
REMARK 921   NORMALIZED FREE ENERGY PREDICTED BY IDOCK:   -7.43 KCAL/MOL
REMARK 922        TOTAL FREE ENERGY PREDICTED BY IDOCK:   -8.93 KCAL/MOL
REMARK 923 INTER-LIGAND FREE ENERGY PREDICTED BY IDOCK:   -8.32 KCAL/MOL
REMARK 924 INTRA-LIGAND FREE ENERGY PREDICTED BY IDOCK:   -0.61 KCAL/MOL
REMARK 927      BINDING AFFINITY PREDICTED BY RF-SCORE:    0.00 PKD
ROOT
HETATM    1  C   UNL     1      -8.438   8.434  70.143  1.00  0.00    -0.126 C  
HETATM    2  H   UNL     1     -12.379  15.513  66.510  1.00  0.00     0.000 HD 
HETATM    3  C   UNL     1      -9.330   9.105  71.196  1.00  0.00    -0.313 C  
HETATM    4  C   UNL     1     -10.362   9.747  70.294  1.00  0.00    -0.348 C  
HETATM    5  C   UNL     1     -11.879  14.390  64.825  1.00  0.00    -0.433 C  
HETATM    6  O   UNL     1     -12.640  14.940  64.042  1.00  0.00    -0.832 OA 
HETATM    7  C   UNL     1      -7.114   9.062  68.155  1.00  0.00    -0.078 C  
HETATM    8  C   UNL     1      -9.477  10.435  69.254  1.00  0.00    -0.214 C  
HETATM    9  N   UNL     1     -11.907  14.671  66.181  1.00  0.00    -0.323 N  
HETATM   10  C   UNL     1      -8.026   9.723  69.197  1.00  0.00    -0.104 C  
HETATM   11  C   UNL     1     -10.047  11.171  68.041  1.00  0.00    -0.191 C  
HETATM   12  C   UNL     1     -11.520  11.542  68.311  1.00  0.00    -0.368 C  
HETATM   13  C   UNL     1      -7.258  11.139  69.313  1.00  0.00    -0.112 C  
HETATM   14  C   UNL     1      -7.670  12.140  68.039  1.00  0.00    -0.134 C  
HETATM   15  C   UNL     1     -12.121  12.502  67.303  1.00  0.00    -0.133 C  
HETATM   16  C   UNL     1      -9.209  12.470  67.873  1.00  0.00    -0.200 C  
HETATM   17  C   UNL     1     -11.270  13.782  67.144  1.00  0.00    -0.311 C  
HETATM   18  C   UNL     1      -8.975  14.744  66.636  1.00  0.00    -0.286 C  
HETATM   19  C   UNL     1      -9.788  13.431  66.715  1.00  0.00    -0.265 C  
HETATM   20  C   UNL     1      -9.929  12.922  65.261  1.00  0.00    -0.192 C  
HETATM   21  C   UNL     1     -10.901  13.352  64.409  1.00  0.00    -0.422 C  
ENDROOT
BRANCH   1  22
HETATM   22  C   UNL     1      -8.371   6.807  70.482  1.00  0.00    -0.129 C  
HETATM   23  N   UNL     1      -9.304   5.874  70.055  1.00  0.00    -0.146 N  
HETATM   24  O   UNL     1      -7.515   6.447  71.319  1.00  0.00    -0.086 OA 
HETATM   25  H   UNL     1      -9.909   6.155  69.283  1.00  0.00     0.000 HD 
BRANCH  23  26
HETATM   26  C   UNL     1      -9.517   4.509  70.605  1.00  0.00    -0.170 A  
HETATM   27  C   UNL     1      -9.289   3.351  69.817  1.00  0.00    -0.238 A  
HETATM   28  F   UNL     1     -11.035   3.770  74.560  1.00  0.00    -0.229 F  
HETATM   29  F   UNL     1      -9.669   2.721  67.559  1.00  0.00    -0.229 F  
HETATM   30  F   UNL     1      -7.608   2.730  68.244  1.00  0.00    -0.054 F  
HETATM   31  F   UNL     1      -8.643   4.611  67.860  1.00  0.00    -0.101 F  
HETATM   32  F   UNL     1      -9.937   1.889  74.566  1.00  0.00    -0.110 F  
HETATM   33  F   UNL     1     -11.964   1.968  73.774  1.00  0.00    -0.297 F  
HETATM   34  C   UNL     1      -9.504   2.045  70.340  1.00  0.00    -0.156 A  
HETATM   35  C   UNL     1      -9.972   1.831  71.633  1.00  0.00    -0.207 A  
HETATM   36  C   UNL     1     -10.787   2.655  73.819  1.00  0.00    -0.202 C  
HETATM   37  C   UNL     1     -10.238   2.933  72.438  1.00  0.00    -0.204 A  
HETATM   38  C   UNL     1     -10.003   4.259  71.918  1.00  0.00    -0.255 A  
HETATM   39  C   UNL     1      -8.808   3.363  68.386  1.00  0.00    -0.119 C  
ENDBRANCH  23  26
ENDBRANCH   1  22
TORSDOF 2
ENDMDL
MODEL       34
REMARK 921   NORMALIZED FREE ENERGY PREDICTED BY IDOCK:   -7.43 KCAL/MOL
REMARK 922        TOTAL FREE ENERGY PREDICTED BY IDOCK:   -8.93 KCAL/MOL
REMARK 923 INTER-LIGAND FREE ENERGY PREDICTED BY IDOCK:   -8.39 KCAL/MOL
REMARK 924 INTRA-LIGAND FREE ENERGY PREDICTED BY IDOCK:   -0.54 KCAL/MOL
REMARK 927      BINDING AFFINITY PREDICTED BY RF-SCORE:    0.00 PKD
ROOT
HETATM    1  C   UNL     1     -10.505  10.724  67.001  1.00  0.00    -0.297 C  
HETATM    2  H   UNL     1      -6.856  18.776  66.155  1.00  0.00     0.000 HD 
HETATM    3  C   UNL     1      -9.363  10.652  65.978  1.00  0.00    -0.219 C  
HETATM    4  C   UNL     1      -8.493  11.787  66.475  1.00  0.00    -0.125 C  
HETATM    5  C   UNL     1      -7.782  18.920  68.019  1.00  0.00    -0.271 C  
HETATM    6  O   UNL     1      -7.159  19.889  68.426  1.00  0.00    -0.289 OA 
HETATM    7  C   UNL     1     -12.159  12.362  67.828  1.00  0.00    -0.074 C  
HETATM    8  C   UNL     1      -9.518  12.909  66.643  1.00  0.00    -0.255 C  
HETATM    9  N   UNL     1      -7.452  18.294  66.828  1.00  0.00    -0.211 N  
HETATM   10  C   UNL     1     -11.001  12.289  66.824  1.00  0.00    -0.321 C  
HETATM   11  C   UNL     1      -9.155  14.279  67.217  1.00  0.00    -0.221 C  
HETATM   12  C   UNL     1      -7.634  14.502  67.092  1.00  0.00    -0.045 C  
HETATM   13  C   UNL     1     -11.614  13.265  65.692  1.00  0.00    -0.363 C  
HETATM   14  C   UNL     1     -11.398  14.868  66.114  1.00  0.00    -0.307 C  
HETATM   15  C   UNL     1      -7.182  15.920  67.380  1.00  0.00    -0.227 C  
HETATM   16  C   UNL     1      -9.905  15.336  66.358  1.00  0.00    -0.295 C  
HETATM   17  C   UNL     1      -7.943  16.956  66.523  1.00  0.00    -0.294 C  
HETATM   18  C   UNL     1     -10.210  17.862  65.823  1.00  0.00    -0.135 C  
HETATM   19  C   UNL     1      -9.505  16.847  66.752  1.00  0.00    -0.269 C  
HETATM   20  C   UNL     1      -9.709  17.369  68.195  1.00  0.00    -0.291 C  
HETATM   21  C   UNL     1      -8.904  18.303  68.773  1.00  0.00    -0.235 C  
ENDROOT
BRANCH   1  22
HETATM   22  C   UNL     1     -10.628   9.243  67.747  1.00  0.00    -0.246 C  
HETATM   23  N   UNL     1     -10.403   9.018  69.096  1.00  0.00    -0.215 N  
HETATM   24  O   UNL     1     -10.761   8.251  66.996  1.00  0.00    -0.307 OA 
HETATM   25  H   UNL     1     -10.424   9.837  69.704  1.00  0.00     0.000 HD 
BRANCH  23  26
HETATM   26  C   UNL     1     -10.135   7.710  69.750  1.00  0.00    -0.196 A  
HETATM   27  C   UNL     1     -10.946   7.236  70.815  1.00  0.00    -0.273 A  
HETATM   28  F   UNL     1      -6.792   5.205  68.732  1.00  0.00    -0.045 F  
HETATM   29  F   UNL     1     -12.008   8.197  72.710  1.00  0.00    -0.423 F  
HETATM   30  F   UNL     1     -13.293   7.252  71.236  1.00  0.00    -0.397 F  
HETATM   31  F   UNL     1     -12.374   9.184  70.811  1.00  0.00    -0.291 F  
HETATM   32  F   UNL     1      -7.975   3.480  69.341  1.00  0.00    -0.051 F  
HETATM   33  F   UNL     1      -6.764   4.546  70.803  1.00  0.00    -0.031 F  
HETATM   34  C   UNL     1     -10.681   5.990  71.449  1.00  0.00    -0.314 A  
HETATM   35  C   UNL     1      -9.607   5.185  71.084  1.00  0.00    -0.224 A  
HETATM   36  C   UNL     1      -7.585   4.731  69.732  1.00  0.00    -0.055 C  
HETATM   37  C   UNL     1      -8.765   5.616  70.065  1.00  0.00    -0.132 A  
HETATM   38  C   UNL     1      -9.041   6.870  69.406  1.00  0.00    -0.141 A  
HETATM   39  C   UNL     1     -12.140   7.966  71.380  1.00  0.00    -0.307 C  
ENDBRANCH  23  26
ENDBRANCH   1  22
TORSDOF 2
ENDMDL
MODEL       35
REMARK 921   NORMALIZED FREE ENERGY PREDICTED BY IDOCK:   -7.39 KCAL/MOL
REMARK 922        TOTAL FREE ENERGY PREDICTED BY IDOCK:   -8.88 KCAL/MOL
REMARK 923 INTER-LIGAND FREE ENERGY PREDICTED BY IDOCK:   -8.24 KCAL/MOL
REMARK 924 INTRA-LIGAND FREE ENERGY PREDICTED BY IDOCK:   -0.65 KCAL/MOL
REMARK 927      BINDING AFFINITY PREDICTED BY RF-SCORE:    0.00 PKD
ROOT
HETATM    1  C   UNL     1      -8.631  10.915  67.922  1.00  0.00    -0.130 C  
HETATM    2  H   UNL     1     -10.896   3.420  72.110  1.00  0.00     0.000 HD 
HETATM    3  C   UNL     1      -9.392  10.007  66.947  1.00  0.00    -0.188 C  
HETATM    4  C   UNL     1     -10.241   9.224  67.926  1.00  0.00    -0.263 C  
HETATM    5  C   UNL     1     -10.596   4.728  73.708  1.00  0.00    -0.272 C  
HETATM    6  O   UNL     1     -11.203   4.084  74.551  1.00  0.00     0.023 OA 
HETATM    7  C   UNL     1      -7.150  10.705  69.888  1.00  0.00    -0.133 C  
HETATM    8  C   UNL     1      -9.202   8.803  68.966  1.00  0.00    -0.141 C  
HETATM    9  N   UNL     1     -10.602   4.361  72.372  1.00  0.00    -0.147 N  
HETATM   10  C   UNL     1      -7.932   9.803  68.923  1.00  0.00    -0.092 C  
HETATM   11  C   UNL     1      -9.571   8.044  70.241  1.00  0.00    -0.171 C  
HETATM   12  C   UNL     1     -10.940   7.358  70.053  1.00  0.00    -0.264 C  
HETATM   13  C   UNL     1      -6.887   8.573  68.856  1.00  0.00    -0.061 C  
HETATM   14  C   UNL     1      -7.044   7.592  70.201  1.00  0.00    -0.059 C  
HETATM   15  C   UNL     1     -11.298   6.362  71.138  1.00  0.00    -0.376 C  
HETATM   16  C   UNL     1      -8.475   6.961  70.449  1.00  0.00    -0.134 C  
HETATM   17  C   UNL     1     -10.193   5.299  71.334  1.00  0.00    -0.213 C  
HETATM   18  C   UNL     1      -7.734   4.869  71.803  1.00  0.00    -0.102 C  
HETATM   19  C   UNL     1      -8.806   5.977  71.682  1.00  0.00    -0.139 C  
HETATM   20  C   UNL     1      -9.010   6.538  73.109  1.00  0.00    -0.137 C  
HETATM   21  C   UNL     1      -9.846   5.971  74.023  1.00  0.00    -0.215 C  
ENDROOT
BRANCH   1  22
HETATM   22  C   UNL     1      -8.917  12.496  67.490  1.00  0.00    -0.185 C  
HETATM   23  N   UNL     1     -10.170  13.025  67.221  1.00  0.00    -0.237 N  
HETATM   24  O   UNL     1      -7.912  13.191  67.225  1.00  0.00    -0.173 OA 
HETATM   25  H   UNL     1     -10.972  12.493  67.560  1.00  0.00     0.000 HD 
BRANCH  23  26
HETATM   26  C   UNL     1     -10.468  14.285  66.490  1.00  0.00    -0.287 A  
HETATM   27  C   UNL     1     -11.011  14.268  65.178  1.00  0.00    -0.369 A  
HETATM   28  F   UNL     1      -9.585  18.189  68.063  1.00  0.00    -0.268 F  
HETATM   29  F   UNL     1     -10.695  12.967  63.217  1.00  0.00    -0.344 F  
HETATM   30  F   UNL     1     -12.679  12.951  64.099  1.00  0.00    -0.407 F  
HETATM   31  F   UNL     1     -11.050  11.857  65.050  1.00  0.00    -0.332 F  
HETATM   32  F   UNL     1     -11.246  18.971  66.892  1.00  0.00    -0.408 F  
HETATM   33  F   UNL     1      -9.256  18.845  66.017  1.00  0.00    -0.313 F  
HETATM   34  C   UNL     1     -11.284  15.475  64.475  1.00  0.00    -0.327 A  
HETATM   35  C   UNL     1     -11.012  16.728  65.016  1.00  0.00    -0.118 A  
HETATM   36  C   UNL     1     -10.135  18.179  66.818  1.00  0.00    -0.362 C  
HETATM   37  C   UNL     1     -10.455  16.799  66.288  1.00  0.00    -0.264 A  
HETATM   38  C   UNL     1     -10.194  15.579  67.013  1.00  0.00    -0.271 A  
HETATM   39  C   UNL     1     -11.351  13.019  64.403  1.00  0.00    -0.357 C  
ENDBRANCH  23  26
ENDBRANCH   1  22
TORSDOF 2
ENDMDL
MODEL       36
REMARK 921   NORMALIZED FREE ENERGY PREDICTED BY IDOCK:   -7.30 KCAL/MOL
REMARK 922        TOTAL FREE ENERGY PREDICTED BY IDOCK:   -8.79 KCAL/MOL
REMARK 923 INTER-LIGAND FREE ENERGY PREDICTED BY IDOCK:   -8.15 KCAL/MOL
REMARK 924 INTRA-LIGAND FREE ENERGY PREDICTED BY IDOCK:   -0.64 KCAL/MOL
REMARK 927      BINDING AFFINITY PREDICTED BY RF-SCORE:    0.00 PKD
ROOT
HETATM    1  C   UNL     1      -9.454  11.893  66.781  1.00  0.00    -0.207 C  
HETATM    2  H   UNL     1     -10.623   4.196  71.053  1.00  0.00     0.000 HD 
HETATM    3  C   UNL     1     -10.819  11.307  66.394  1.00  0.00    -0.306 C  
HETATM    4  C   UNL     1     -11.120  10.498  67.637  1.00  0.00    -0.375 C  
HETATM    5  C   UNL     1      -9.179   5.127  72.237  1.00  0.00    -0.138 C  
HETATM    6  O   UNL     1      -9.333   4.441  73.236  1.00  0.00    -0.119 OA 
HETATM    7  C   UNL     1      -7.220  11.100  67.475  1.00  0.00    -0.101 C  
HETATM    8  C   UNL     1      -9.807   9.739  67.836  1.00  0.00    -0.176 C  
HETATM    9  N   UNL     1     -10.024   5.016  71.144  1.00  0.00    -0.196 N  
HETATM   10  C   UNL     1      -8.593  10.522  67.108  1.00  0.00    -0.127 C  
HETATM   11  C   UNL     1      -9.556   8.825  69.035  1.00  0.00    -0.162 C  
HETATM   12  C   UNL     1     -10.905   8.405  69.653  1.00  0.00    -0.153 C  
HETATM   13  C   UNL     1      -8.090   9.179  66.365  1.00  0.00    -0.107 C  
HETATM   14  C   UNL     1      -7.682   8.004  67.483  1.00  0.00    -0.106 C  
HETATM   15  C   UNL     1     -10.807   7.293  70.679  1.00  0.00    -0.261 C  
HETATM   16  C   UNL     1      -8.822   7.566  68.492  1.00  0.00    -0.126 C  
HETATM   17  C   UNL     1     -10.068   6.055  70.123  1.00  0.00    -0.194 C  
HETATM   18  C   UNL     1      -7.956   5.173  69.021  1.00  0.00    -0.085 C  
HETATM   19  C   UNL     1      -8.616   6.436  69.622  1.00  0.00    -0.134 C  
HETATM   20  C   UNL     1      -7.841   6.750  70.923  1.00  0.00    -0.098 C  
HETATM   21  C   UNL     1      -8.118   6.160  72.120  1.00  0.00    -0.110 C  
ENDROOT
BRANCH   1  22
HETATM   22  C   UNL     1      -9.558  13.551  66.694  1.00  0.00    -0.278 C  
HETATM   23  N   UNL     1      -8.845  14.428  67.496  1.00  0.00    -0.183 N  
HETATM   24  O   UNL     1     -10.470  14.014  65.975  1.00  0.00    -0.290 OA 
HETATM   25  H   UNL     1      -8.028  14.047  67.975  1.00  0.00     0.000 HD 
BRANCH  23  26
HETATM   26  C   UNL     1      -9.144  15.865  67.732  1.00  0.00    -0.196 A  
HETATM   27  C   UNL     1     -10.114  16.271  68.686  1.00  0.00    -0.233 A  
HETATM   28  F   UNL     1      -7.332  19.052  65.485  1.00  0.00    -0.291 F  
HETATM   29  F   UNL     1     -12.251  15.502  69.382  1.00  0.00    -0.342 F  
HETATM   30  F   UNL     1     -10.680  15.532  70.881  1.00  0.00    -0.337 F  
HETATM   31  F   UNL     1     -10.675  14.009  69.320  1.00  0.00    -0.239 F  
HETATM   32  F   UNL     1      -7.583  20.340  67.223  1.00  0.00    -0.288 F  
HETATM   33  F   UNL     1      -9.176  20.172  65.749  1.00  0.00    -0.394 F  
HETATM   34  C   UNL     1     -10.409  17.647  68.903  1.00  0.00    -0.323 A  
HETATM   35  C   UNL     1      -9.790  18.661  68.180  1.00  0.00    -0.391 A  
HETATM   36  C   UNL     1      -8.238  19.448  66.422  1.00  0.00    -0.325 C  
HETATM   37  C   UNL     1      -8.852  18.316  67.214  1.00  0.00    -0.255 A  
HETATM   38  C   UNL     1      -8.535  16.924  67.004  1.00  0.00    -0.228 A  
HETATM   39  C   UNL     1     -10.916  15.331  69.553  1.00  0.00    -0.277 C  
ENDBRANCH  23  26
ENDBRANCH   1  22
TORSDOF 2
ENDMDL
MODEL       37
REMARK 921   NORMALIZED FREE ENERGY PREDICTED BY IDOCK:   -7.22 KCAL/MOL
REMARK 922        TOTAL FREE ENERGY PREDICTED BY IDOCK:   -8.70 KCAL/MOL
REMARK 923 INTER-LIGAND FREE ENERGY PREDICTED BY IDOCK:   -8.09 KCAL/MOL
REMARK 924 INTRA-LIGAND FREE ENERGY PREDICTED BY IDOCK:   -0.61 KCAL/MOL
REMARK 927      BINDING AFFINITY PREDICTED BY RF-SCORE:    0.00 PKD
ROOT
HETATM    1  C   UNL     1      -9.061  12.222  66.714  1.00  0.00    -0.211 C  
HETATM    2  H   UNL     1     -10.558   3.499  65.988  1.00  0.00     0.000 HD 
HETATM    3  C   UNL     1     -10.474  12.001  66.159  1.00  0.00    -0.271 C  
HETATM    4  C   UNL     1     -10.778  10.641  66.750  1.00  0.00    -0.272 C  
HETATM    5  C   UNL     1      -9.011   3.553  67.387  1.00  0.00    -0.146 C  
HETATM    6  O   UNL     1      -9.170   2.427  67.835  1.00  0.00    -0.171 OA 
HETATM    7  C   UNL     1      -6.857  11.106  66.685  1.00  0.00    -0.137 C  
HETATM    8  C   UNL     1      -9.511   9.861  66.396  1.00  0.00    -0.234 C  
HETATM    9  N   UNL     1      -9.903   4.105  66.483  1.00  0.00    -0.215 N  
HETATM   10  C   UNL     1      -8.278  10.880  66.153  1.00  0.00    -0.168 C  
HETATM   11  C   UNL     1      -9.272   8.422  66.854  1.00  0.00    -0.196 C  
HETATM   12  C   UNL     1     -10.621   7.769  67.219  1.00  0.00    -0.376 C  
HETATM   13  C   UNL     1      -7.892  10.177  64.751  1.00  0.00    -0.146 C  
HETATM   14  C   UNL     1      -7.518   8.564  64.984  1.00  0.00    -0.089 C  
HETATM   15  C   UNL     1     -10.555   6.270  67.433  1.00  0.00    -0.361 C  
HETATM   16  C   UNL     1      -8.644   7.669  65.647  1.00  0.00    -0.142 C  
HETATM   17  C   UNL     1      -9.920   5.540  66.228  1.00  0.00    -0.140 C  
HETATM   18  C   UNL     1      -7.915   5.369  64.678  1.00  0.00    -0.112 C  
HETATM   19  C   UNL     1      -8.468   6.092  65.929  1.00  0.00    -0.143 C  
HETATM   20  C   UNL     1      -7.623   5.591  67.125  1.00  0.00    -0.092 C  
HETATM   21  C   UNL     1      -7.891   4.438  67.798  1.00  0.00    -0.084 C  
ENDROOT
BRANCH   1  22
HETATM   22  C   UNL     1      -9.060  13.641  67.581  1.00  0.00    -0.207 C  
HETATM   23  N   UNL     1     -10.026  14.630  67.475  1.00  0.00    -0.223 N  
HETATM   24  O   UNL     1      -8.025  13.893  68.236  1.00  0.00    -0.131 OA 
HETATM   25  H   UNL     1     -10.911  14.359  67.046  1.00  0.00     0.000 HD 
BRANCH  23  26
HETATM   26  C   UNL     1      -9.908  16.043  67.921  1.00  0.00    -0.226 A  
HETATM   27  C   UNL     1     -10.499  16.488  69.133  1.00  0.00    -0.317 A  
HETATM   28  F   UNL     1      -7.965  19.096  65.596  1.00  0.00    -0.257 F  
HETATM   29  F   UNL     1     -12.532  16.080  70.291  1.00  0.00    -0.372 F  
HETATM   30  F   UNL     1     -10.692  15.551  71.317  1.00  0.00    -0.360 F  
HETATM   31  F   UNL     1     -11.420  14.321  69.669  1.00  0.00    -0.267 F  
HETATM   32  F   UNL     1      -7.483  20.122  67.456  1.00  0.00    -0.286 F  
HETATM   33  F   UNL     1      -9.372  20.518  66.446  1.00  0.00    -0.394 F  
HETATM   34  C   UNL     1     -10.396  17.845  69.553  1.00  0.00     0.249 A  
HETATM   35  C   UNL     1      -9.740  18.808  68.794  1.00  0.00    -0.432 A  
HETATM   36  C   UNL     1      -8.503  19.520  66.773  1.00  0.00    -0.309 C  
HETATM   37  C   UNL     1      -9.166  18.431  67.585  1.00  0.00    -0.274 A  
HETATM   38  C   UNL     1      -9.252  17.053  67.164  1.00  0.00    -0.242 A  
HETATM   39  C   UNL     1     -11.276  15.612  70.085  1.00  0.00    -0.336 C  
ENDBRANCH  23  26
ENDBRANCH   1  22
TORSDOF 2
ENDMDL
MODEL       38
REMARK 921   NORMALIZED FREE ENERGY PREDICTED BY IDOCK:   -7.20 KCAL/MOL
REMARK 922        TOTAL FREE ENERGY PREDICTED BY IDOCK:   -8.68 KCAL/MOL
REMARK 923 INTER-LIGAND FREE ENERGY PREDICTED BY IDOCK:   -8.04 KCAL/MOL
REMARK 924 INTRA-LIGAND FREE ENERGY PREDICTED BY IDOCK:   -0.63 KCAL/MOL
REMARK 927      BINDING AFFINITY PREDICTED BY RF-SCORE:    0.00 PKD
ROOT
HETATM    1  C   UNL     1      -8.788  12.203  68.546  1.00  0.00    -0.079 C  
HETATM    2  H   UNL     1      -7.800   3.510  67.030  1.00  0.00     0.000 HD 
HETATM    3  C   UNL     1      -7.332  11.809  68.828  1.00  0.00    -0.114 C  
HETATM    4  C   UNL     1      -7.200  10.617  67.904  1.00  0.00    -0.087 C  
HETATM    5  C   UNL     1      -9.509   3.947  65.917  1.00  0.00    -0.181 C  
HETATM    6  O   UNL     1      -9.486   2.954  65.204  1.00  0.00    -0.148 OA 
HETATM    7  C   UNL     1     -11.039  11.190  68.633  1.00  0.00    -0.293 C  
HETATM    8  C   UNL     1      -8.460   9.820  68.246  1.00  0.00    -0.114 C  
HETATM    9  N   UNL     1      -8.471   4.238  66.787  1.00  0.00    -0.104 N  
HETATM   10  C   UNL     1      -9.579  10.795  68.890  1.00  0.00    -0.204 C  
HETATM   11  C   UNL     1      -8.853   8.540  67.510  1.00  0.00    -0.139 C  
HETATM   12  C   UNL     1      -7.610   7.945  66.815  1.00  0.00    -0.098 C  
HETATM   13  C   UNL     1      -9.824   9.794  70.134  1.00  0.00    -0.306 C  
HETATM   14  C   UNL     1     -10.334   8.296  69.594  1.00  0.00    -0.218 C  
HETATM   15  C   UNL     1      -7.805   6.542  66.275  1.00  0.00    -0.105 C  
HETATM   16  C   UNL     1      -9.368   7.545  68.588  1.00  0.00    -0.143 C  
HETATM   17  C   UNL     1      -8.324   5.571  67.359  1.00  0.00    -0.103 C  
HETATM   18  C   UNL     1     -10.116   5.108  69.098  1.00  0.00    -0.274 C  
HETATM   19  C   UNL     1      -9.685   6.086  67.980  1.00  0.00    -0.126 C  
HETATM   20  C   UNL     1     -10.710   5.912  66.835  1.00  0.00    -0.395 C  
HETATM   21  C   UNL     1     -10.611   4.942  65.884  1.00  0.00    -0.280 C  
ENDROOT
BRANCH   1  22
HETATM   22  C   UNL     1      -8.806  13.787  68.037  1.00  0.00    -0.182 C  
HETATM   23  N   UNL     1      -8.465  14.873  68.828  1.00  0.00    -0.165 N  
HETATM   24  O   UNL     1      -9.330  14.007  66.923  1.00  0.00    -0.238 OA 
HETATM   25  H   UNL     1      -7.928  14.672  69.671  1.00  0.00     0.000 HD 
BRANCH  23  26
HETATM   26  C   UNL     1      -8.801  16.300  68.576  1.00  0.00    -0.219 A  
HETATM   27  C   UNL     1     -10.024  16.862  69.027  1.00  0.00    -0.265 A  
HETATM   28  F   UNL     1      -6.292  18.947  66.298  1.00  0.00    -0.181 F  
HETATM   29  F   UNL     1     -12.284  16.144  69.166  1.00  0.00    -0.320 F  
HETATM   30  F   UNL     1     -11.297  16.654  71.032  1.00  0.00    -0.398 F  
HETATM   31  F   UNL     1     -10.803  14.795  70.004  1.00  0.00    -0.253 F  
HETATM   32  F   UNL     1      -7.081  20.605  67.468  1.00  0.00    -0.303 F  
HETATM   33  F   UNL     1      -8.099  19.967  65.653  1.00  0.00    -0.339 F  
HETATM   34  C   UNL     1     -10.350  18.224  68.775  1.00  0.00    -0.246 A  
HETATM   35  C   UNL     1      -9.509  19.068  68.056  1.00  0.00    -0.370 A  
HETATM   36  C   UNL     1      -7.449  19.499  66.755  1.00  0.00    -0.241 C  
HETATM   37  C   UNL     1      -8.310  18.559  67.569  1.00  0.00    -0.267 A  
HETATM   38  C   UNL     1      -7.967  17.184  67.838  1.00  0.00    -0.193 A  
HETATM   39  C   UNL     1     -11.084  16.114  69.798  1.00  0.00    -0.350 C  
ENDBRANCH  23  26
ENDBRANCH   1  22
TORSDOF 2
ENDMDL
MODEL       39
REMARK 921   NORMALIZED FREE ENERGY PREDICTED BY IDOCK:   -7.08 KCAL/MOL
REMARK 922        TOTAL FREE ENERGY PREDICTED BY IDOCK:   -8.54 KCAL/MOL
REMARK 923 INTER-LIGAND FREE ENERGY PREDICTED BY IDOCK:   -8.36 KCAL/MOL
REMARK 924 INTRA-LIGAND FREE ENERGY PREDICTED BY IDOCK:   -0.18 KCAL/MOL
REMARK 927      BINDING AFFINITY PREDICTED BY RF-SCORE:    0.00 PKD
ROOT
HETATM    1  C   UNL     1     -10.645  10.525  68.647  1.00  0.00    -0.226 C  
HETATM    2  H   UNL     1      -7.005  18.003  65.535  1.00  0.00     0.000 HD 
HETATM    3  C   UNL     1      -9.759  10.186  67.441  1.00  0.00    -0.192 C  
HETATM    4  C   UNL     1      -8.764  11.325  67.518  1.00  0.00    -0.138 C  
HETATM    5  C   UNL     1      -7.495  18.547  67.489  1.00  0.00    -0.220 C  
HETATM    6  O   UNL     1      -6.765  19.524  67.565  1.00  0.00    -0.207 OA 
HETATM    7  C   UNL     1     -12.022  12.402  69.474  1.00  0.00    -0.324 C  
HETATM    8  C   UNL     1      -9.688  12.532  67.680  1.00  0.00    -0.196 C  
HETATM    9  N   UNL     1      -7.455  17.695  66.398  1.00  0.00    -0.262 N  
HETATM   10  C   UNL     1     -11.116  12.065  68.282  1.00  0.00    -0.290 C  
HETATM   11  C   UNL     1      -9.163  13.951  67.894  1.00  0.00    -0.198 C  
HETATM   12  C   UNL     1      -7.700  14.036  67.413  1.00  0.00    -0.177 C  
HETATM   13  C   UNL     1     -11.929  12.865  67.138  1.00  0.00    -0.374 C  
HETATM   14  C   UNL     1     -11.573  14.497  67.192  1.00  0.00    -0.406 C  
HETATM   15  C   UNL     1      -7.149  15.445  67.324  1.00  0.00    -0.206 C  
HETATM   16  C   UNL     1     -10.048  14.890  67.025  1.00  0.00    -0.244 C  
HETATM   17  C   UNL     1      -8.045  16.364  66.463  1.00  0.00    -0.310 C  
HETATM   18  C   UNL     1     -10.379  17.294  66.093  1.00  0.00    -0.320 C  
HETATM   19  C   UNL     1      -9.521  16.413  67.031  1.00  0.00    -0.240 C  
HETATM   20  C   UNL     1      -9.386  17.198  68.357  1.00  0.00    -0.273 C  
HETATM   21  C   UNL     1      -8.443  18.160  68.565  1.00  0.00    -0.312 C  
ENDROOT
BRANCH   1  22
HETATM   22  C   UNL     1     -10.650   9.214  69.670  1.00  0.00    -0.228 C  
HETATM   23  N   UNL     1      -9.554   8.402  69.917  1.00  0.00    -0.170 N  
HETATM   24  O   UNL     1     -11.766   8.848  70.101  1.00  0.00    -0.062 OA 
HETATM   25  H   UNL     1      -8.641   8.781  69.667  1.00  0.00     0.000 HD 
BRANCH  23  26
HETATM   26  C   UNL     1      -9.570   7.037  70.506  1.00  0.00    -0.169 A  
HETATM   27  C   UNL     1      -9.795   6.833  71.893  1.00  0.00    -0.173 A  
HETATM   28  F   UNL     1      -8.755   3.477  68.235  1.00  0.00    -0.099 F  
HETATM   29  F   UNL     1      -9.143   7.914  73.905  1.00  0.00    -0.290 F  
HETATM   30  F   UNL     1     -11.272   7.813  73.488  1.00  0.00    -0.403 F  
HETATM   31  F   UNL     1     -10.002   9.191  72.372  1.00  0.00    -0.315 F  
HETATM   32  F   UNL     1     -10.030   2.376  69.615  1.00  0.00    -0.070 F  
HETATM   33  F   UNL     1      -7.909   2.619  70.044  1.00  0.00    -0.043 F  
HETATM   34  C   UNL     1      -9.797   5.527  72.459  1.00  0.00    -0.188 A  
HETATM   35  C   UNL     1      -9.556   4.388  71.697  1.00  0.00    -0.227 A  
HETATM   36  C   UNL     1      -9.001   3.274  69.559  1.00  0.00    -0.113 C  
HETATM   37  C   UNL     1      -9.303   4.534  70.338  1.00  0.00    -0.217 A  
HETATM   38  C   UNL     1      -9.318   5.855  69.756  1.00  0.00    -0.171 A  
HETATM   39  C   UNL     1     -10.049   7.932  72.896  1.00  0.00    -0.310 C  
ENDBRANCH  23  26
ENDBRANCH   1  22
TORSDOF 2
ENDMDL
MODEL       40
REMARK 921   NORMALIZED FREE ENERGY PREDICTED BY IDOCK:   -7.08 KCAL/MOL
REMARK 922        TOTAL FREE ENERGY PREDICTED BY IDOCK:   -8.54 KCAL/MOL
REMARK 923 INTER-LIGAND FREE ENERGY PREDICTED BY IDOCK:   -8.00 KCAL/MOL
REMARK 924 INTRA-LIGAND FREE ENERGY PREDICTED BY IDOCK:   -0.53 KCAL/MOL
REMARK 927      BINDING AFFINITY PREDICTED BY RF-SCORE:    0.00 PKD
ROOT
HETATM    1  C   UNL     1      -8.407  11.016  68.147  1.00  0.00    -0.130 C  
HETATM    2  H   UNL     1     -10.911   3.377  71.918  1.00  0.00     0.000 HD 
HETATM    3  C   UNL     1      -9.364  10.281  67.200  1.00  0.00    -0.175 C  
HETATM    4  C   UNL     1     -10.167   9.483  68.206  1.00  0.00    -0.225 C  
HETATM    5  C   UNL     1     -10.296   4.489  73.573  1.00  0.00    -0.188 C  
HETATM    6  O   UNL     1     -10.862   3.821  74.426  1.00  0.00    -0.173 OA 
HETATM    7  C   UNL     1      -6.735  10.481  69.886  1.00  0.00    -0.142 C  
HETATM    8  C   UNL     1      -9.062   8.871  69.067  1.00  0.00    -0.137 C  
HETATM    9  N   UNL     1     -10.495   4.257  72.221  1.00  0.00    -0.140 N  
HETATM   10  C   UNL     1      -7.711   9.753  68.952  1.00  0.00    -0.082 C  
HETATM   11  C   UNL     1      -9.354   8.026  70.307  1.00  0.00    -0.159 C  
HETATM   12  C   UNL     1     -10.798   7.487  70.233  1.00  0.00    -0.257 C  
HETATM   13  C   UNL     1      -6.810   8.447  68.648  1.00  0.00    -0.063 C  
HETATM   14  C   UNL     1      -6.907   7.356  69.911  1.00  0.00    -0.055 C  
HETATM   15  C   UNL     1     -11.125   6.425  71.263  1.00  0.00    -0.334 C  
HETATM   16  C   UNL     1      -8.356   6.834  70.280  1.00  0.00    -0.134 C  
HETATM   17  C   UNL     1     -10.118   5.253  71.226  1.00  0.00    -0.213 C  
HETATM   18  C   UNL     1      -7.677   4.561  71.343  1.00  0.00    -0.085 C  
HETATM   19  C   UNL     1      -8.639   5.767  71.455  1.00  0.00    -0.129 C  
HETATM   20  C   UNL     1      -8.617   6.200  72.940  1.00  0.00    -0.123 C  
HETATM   21  C   UNL     1      -9.394   5.622  73.898  1.00  0.00    -0.134 C  
ENDROOT
BRANCH   1  22
HETATM   22  C   UNL     1      -8.581  12.651  67.893  1.00  0.00    -0.181 C  
HETATM   23  N   UNL     1      -8.754  13.591  68.898  1.00  0.00    -0.370 N  
HETATM   24  O   UNL     1      -8.738  13.016  66.708  1.00  0.00    -0.188 OA 
HETATM   25  H   UNL     1      -8.498  13.301  69.842  1.00  0.00     0.000 HD 
BRANCH  23  26
HETATM   26  C   UNL     1      -9.273  14.975  68.744  1.00  0.00    -0.200 A  
HETATM   27  C   UNL     1     -10.658  15.230  68.568  1.00  0.00    -0.237 A  
HETATM   28  F   UNL     1      -6.733  18.443  68.596  1.00  0.00    -0.219 F  
HETATM   29  F   UNL     1     -12.443  14.212  67.377  1.00  0.00    -0.393 F  
HETATM   30  F   UNL     1     -12.640  14.325  69.537  1.00  0.00    -0.356 F  
HETATM   31  F   UNL     1     -11.263  12.893  68.636  1.00  0.00    -0.246 F  
HETATM   32  F   UNL     1      -8.375  19.607  69.427  1.00  0.00    -0.344 F  
HETATM   33  F   UNL     1      -8.198  19.353  67.272  1.00  0.00    -0.281 F  
HETATM   34  C   UNL     1     -11.153  16.555  68.408  1.00  0.00    -0.333 A  
HETATM   35  C   UNL     1     -10.312  17.664  68.389  1.00  0.00    -0.375 A  
HETATM   36  C   UNL     1      -8.064  18.695  68.458  1.00  0.00    -0.341 C  
HETATM   37  C   UNL     1      -8.943  17.467  68.530  1.00  0.00    -0.279 A  
HETATM   38  C   UNL     1      -8.439  16.127  68.711  1.00  0.00    -0.236 A  
HETATM   39  C   UNL     1     -11.732  14.170  68.531  1.00  0.00    -0.345 C  
ENDBRANCH  23  26
ENDBRANCH   1  22
TORSDOF 2
ENDMDL
MODEL       41
REMARK 921   NORMALIZED FREE ENERGY PREDICTED BY IDOCK:   -7.05 KCAL/MOL
REMARK 922        TOTAL FREE ENERGY PREDICTED BY IDOCK:   -8.51 KCAL/MOL
REMARK 923 INTER-LIGAND FREE ENERGY PREDICTED BY IDOCK:   -7.87 KCAL/MOL
REMARK 924 INTRA-LIGAND FREE ENERGY PREDICTED BY IDOCK:   -0.63 KCAL/MOL
REMARK 927      BINDING AFFINITY PREDICTED BY RF-SCORE:    0.00 PKD
ROOT
HETATM    1  C   UNL     1     -10.747   9.860  67.974  1.00  0.00    -0.296 C  
HETATM    2  H   UNL     1      -8.807   2.416  72.409  1.00  0.00     0.000 HD 
HETATM    3  C   UNL     1     -11.766   9.671  69.105  1.00  0.00     0.369 C  
HETATM    4  C   UNL     1     -10.929   8.874  70.082  1.00  0.00    -0.245 C  
HETATM    5  C   UNL     1      -6.983   2.858  71.498  1.00  0.00    -0.031 C  
HETATM    6  O   UNL     1      -6.280   2.160  72.214  1.00  0.00    -0.012 OA 
HETATM    7  C   UNL     1      -9.338   8.475  66.489  1.00  0.00    -0.260 C  
HETATM    8  C   UNL     1     -10.340   7.793  69.175  1.00  0.00    -0.219 C  
HETATM    9  N   UNL     1      -8.329   3.047  71.767  1.00  0.00    -0.061 N  
HETATM   10  C   UNL     1     -10.342   8.294  67.636  1.00  0.00    -0.313 C  
HETATM   11  C   UNL     1      -9.330   6.759  69.670  1.00  0.00    -0.144 C  
HETATM   12  C   UNL     1      -9.419   6.650  71.207  1.00  0.00    -0.166 C  
HETATM   13  C   UNL     1     -11.034   6.927  67.126  1.00  0.00    -0.427 C  
HETATM   14  C   UNL     1     -10.078   5.607  67.501  1.00  0.00    -0.208 C  
HETATM   15  C   UNL     1      -8.662   5.476  71.797  1.00  0.00    -0.136 C  
HETATM   16  C   UNL     1      -9.734   5.399  69.032  1.00  0.00    -0.208 C  
HETATM   17  C   UNL     1      -9.072   4.136  71.145  1.00  0.00    -0.124 C  
HETATM   18  C   UNL     1      -9.330   2.832  68.981  1.00  0.00    -0.211 C  
HETATM   19  C   UNL     1      -8.844   4.172  69.580  1.00  0.00    -0.135 C  
HETATM   20  C   UNL     1      -7.304   4.181  69.425  1.00  0.00    -0.054 C  
HETATM   21  C   UNL     1      -6.460   3.593  70.318  1.00  0.00    -0.032 C  
ENDROOT
BRANCH   1  22
HETATM   22  C   UNL     1     -10.571  11.491  67.701  1.00  0.00    -0.199 C  
HETATM   23  N   UNL     1     -10.238  12.421  68.674  1.00  0.00    -0.348 N  
HETATM   24  O   UNL     1     -10.936  11.911  66.581  1.00  0.00    -0.263 OA 
HETATM   25  H   UNL     1      -9.825  12.055  69.532  1.00  0.00     0.000 HD 
BRANCH  23  26
HETATM   26  C   UNL     1     -10.420  13.895  68.599  1.00  0.00    -0.246 A  
HETATM   27  C   UNL     1     -11.304  14.576  69.475  1.00  0.00    -0.313 A  
HETATM   28  F   UNL     1      -8.506  16.359  65.639  1.00  0.00    -0.269 F  
HETATM   29  F   UNL     1     -13.450  14.155  70.402  1.00  0.00    -0.221 F  
HETATM   30  F   UNL     1     -11.803  14.380  71.799  1.00  0.00    -0.370 F  
HETATM   31  F   UNL     1     -11.992  12.560  70.612  1.00  0.00    -0.422 F  
HETATM   32  F   UNL     1      -8.568  18.009  67.059  1.00  0.00    -0.226 F  
HETATM   33  F   UNL     1     -10.247  17.657  65.718  1.00  0.00    -0.312 F  
HETATM   34  C   UNL     1     -11.487  15.986  69.394  1.00  0.00    -0.336 A  
HETATM   35  C   UNL     1     -10.836  16.765  68.443  1.00  0.00    -0.355 A  
HETATM   36  C   UNL     1      -9.329  17.021  66.498  1.00  0.00    -0.269 C  
HETATM   37  C   UNL     1      -9.979  16.142  67.542  1.00  0.00    -0.243 A  
HETATM   38  C   UNL     1      -9.776  14.716  67.633  1.00  0.00    -0.214 A  
HETATM   39  C   UNL     1     -12.124  13.916  70.557  1.00  0.00    -0.356 C  
ENDBRANCH  23  26
ENDBRANCH   1  22
TORSDOF 2
ENDMDL
MODEL       42
REMARK 921   NORMALIZED FREE ENERGY PREDICTED BY IDOCK:   -7.04 KCAL/MOL
REMARK 922        TOTAL FREE ENERGY PREDICTED BY IDOCK:   -8.50 KCAL/MOL
REMARK 923 INTER-LIGAND FREE ENERGY PREDICTED BY IDOCK:   -7.90 KCAL/MOL
REMARK 924 INTRA-LIGAND FREE ENERGY PREDICTED BY IDOCK:   -0.60 KCAL/MOL
REMARK 927      BINDING AFFINITY PREDICTED BY RF-SCORE:    0.00 PKD
ROOT
HETATM    1  C   UNL     1      -9.861   9.733  67.329  1.00  0.00    -0.228 C  
HETATM    2  H   UNL     1      -9.680   2.364  72.281  1.00  0.00     0.000 HD 
HETATM    3  C   UNL     1     -11.079   9.727  68.262  1.00  0.00    -0.158 C  
HETATM    4  C   UNL     1     -10.533   8.891  69.401  1.00  0.00    -0.228 C  
HETATM    5  C   UNL     1      -7.684   2.539  71.701  1.00  0.00    -0.044 C  
HETATM    6  O   UNL     1      -7.210   1.803  72.555  1.00  0.00    -0.026 OA 
HETATM    7  C   UNL     1      -8.398   8.114  66.170  1.00  0.00    -0.126 C  
HETATM    8  C   UNL     1      -9.934   7.701  68.650  1.00  0.00    -0.181 C  
HETATM    9  N   UNL     1      -9.021   2.899  71.716  1.00  0.00    -0.079 N  
HETATM   10  C   UNL     1      -9.602   8.115  67.122  1.00  0.00    -0.227 C  
HETATM   11  C   UNL     1      -9.165   6.584  69.354  1.00  0.00    -0.144 C  
HETATM   12  C   UNL     1      -9.535   6.569  70.852  1.00  0.00    -0.179 C  
HETATM   13  C   UNL     1     -10.360   6.813  66.539  1.00  0.00    -0.116 C  
HETATM   14  C   UNL     1      -9.658   5.412  67.123  1.00  0.00    -0.144 C  
HETATM   15  C   UNL     1      -9.048   5.349  71.607  1.00  0.00    -0.154 C  
HETATM   16  C   UNL     1      -9.617   5.248  68.698  1.00  0.00    -0.183 C  
HETATM   17  C   UNL     1      -9.501   4.033  70.935  1.00  0.00    -0.166 C  
HETATM   18  C   UNL     1      -9.536   2.652  68.804  1.00  0.00    -0.183 C  
HETATM   19  C   UNL     1      -8.998   3.957  69.437  1.00  0.00    -0.171 C  
HETATM   20  C   UNL     1      -7.466   3.776  69.564  1.00  0.00    -0.052 C  
HETATM   21  C   UNL     1      -6.873   3.143  70.614  1.00  0.00    -0.033 C  
ENDROOT
BRANCH   1  22
HETATM   22  C   UNL     1      -9.436  11.315  67.041  1.00  0.00    -0.171 C  
HETATM   23  N   UNL     1     -10.240  12.410  67.321  1.00  0.00    -0.214 N  
HETATM   24  O   UNL     1      -8.397  11.499  66.370  1.00  0.00    -0.172 OA 
HETATM   25  H   UNL     1     -11.009  12.256  67.973  1.00  0.00     0.000 HD 
BRANCH  23  26
HETATM   26  C   UNL     1     -10.098  13.784  66.771  1.00  0.00    -0.265 A  
HETATM   27  C   UNL     1     -10.997  14.286  65.794  1.00  0.00    -0.305 A  
HETATM   28  F   UNL     1      -6.879  16.430  67.835  1.00  0.00    -0.120 F  
HETATM   29  F   UNL     1     -12.098  13.414  63.878  1.00  0.00    -0.437 F  
HETATM   30  F   UNL     1     -13.358  14.137  65.492  1.00  0.00    -0.531 F  
HETATM   31  F   UNL     1     -12.289  12.247  65.700  1.00  0.00    -0.474 F  
HETATM   32  F   UNL     1      -8.208  18.109  67.439  1.00  0.00    -0.226 F  
HETATM   33  F   UNL     1      -7.012  17.259  65.830  1.00  0.00    -0.281 F  
HETATM   34  C   UNL     1     -10.853  15.597  65.259  1.00  0.00    -0.420 A  
HETATM   35  C   UNL     1      -9.817  16.444  65.639  1.00  0.00    -0.222 A  
HETATM   36  C   UNL     1      -7.757  16.927  66.921  1.00  0.00    -0.217 C  
HETATM   37  C   UNL     1      -8.892  15.991  66.572  1.00  0.00    -0.340 A  
HETATM   38  C   UNL     1      -9.045  14.669  67.132  1.00  0.00    -0.236 A  
HETATM   39  C   UNL     1     -12.169  13.522  65.228  1.00  0.00    -0.441 C  
ENDBRANCH  23  26
ENDBRANCH   1  22
TORSDOF 2
ENDMDL
MODEL       43
REMARK 921   NORMALIZED FREE ENERGY PREDICTED BY IDOCK:   -7.01 KCAL/MOL
REMARK 922        TOTAL FREE ENERGY PREDICTED BY IDOCK:   -8.46 KCAL/MOL
REMARK 923 INTER-LIGAND FREE ENERGY PREDICTED BY IDOCK:   -7.90 KCAL/MOL
REMARK 924 INTRA-LIGAND FREE ENERGY PREDICTED BY IDOCK:   -0.56 KCAL/MOL
REMARK 927      BINDING AFFINITY PREDICTED BY RF-SCORE:    0.00 PKD
ROOT
HETATM    1  C   UNL     1      -9.331  13.820  67.770  1.00  0.00    -0.213 C  
HETATM    2  H   UNL     1      -8.819   5.096  69.348  1.00  0.00     0.000 HD 
HETATM    3  C   UNL     1      -8.249  13.565  68.828  1.00  0.00     0.044 C  
HETATM    4  C   UNL     1      -7.839  12.157  68.451  1.00  0.00    -0.149 C  
HETATM    5  C   UNL     1      -9.717   5.138  67.465  1.00  0.00    -0.151 C  
HETATM    6  O   UNL     1      -9.478   3.980  67.154  1.00  0.00    -0.171 OA 
HETATM    7  C   UNL     1     -11.454  12.816  67.002  1.00  0.00    -0.397 C  
HETATM    8  C   UNL     1      -9.196  11.464  68.326  1.00  0.00    -0.183 C  
HETATM    9  N   UNL     1      -9.196   5.701  68.618  1.00  0.00    -0.120 N  
HETATM   10  C   UNL     1     -10.357  12.555  68.043  1.00  0.00    -0.226 C  
HETATM   11  C   UNL     1      -9.343  10.013  67.868  1.00  0.00    -0.151 C  
HETATM   12  C   UNL     1      -8.004   9.273  68.068  1.00  0.00    -0.100 C  
HETATM   13  C   UNL     1     -11.290  11.959  69.219  1.00  0.00    -0.338 C  
HETATM   14  C   UNL     1     -11.658  10.355  68.925  1.00  0.00    -0.208 C  
HETATM   15  C   UNL     1      -8.087   7.768  67.903  1.00  0.00    -0.126 C  
HETATM   16  C   UNL     1     -10.430   9.367  68.774  1.00  0.00    -0.236 C  
HETATM   17  C   UNL     1      -9.178   7.147  68.805  1.00  0.00    -0.136 C  
HETATM   18  C   UNL     1     -11.626   7.170  69.482  1.00  0.00     0.101 C  
HETATM   19  C   UNL     1     -10.594   7.786  68.508  1.00  0.00    -0.153 C  
HETATM   20  C   UNL     1     -10.958   7.254  67.101  1.00  0.00    -0.285 C  
HETATM   21  C   UNL     1     -10.536   6.049  66.625  1.00  0.00    -0.291 C  
ENDROOT
BRANCH   1  22
HETATM   22  C   UNL     1      -8.907  15.181  66.913  1.00  0.00    -0.256 C  
HETATM   23  N   UNL     1      -8.145  16.223  67.416  1.00  0.00    -0.148 N  
HETATM   24  O   UNL     1      -9.466  15.337  65.805  1.00  0.00    -0.333 OA 
HETATM   25  H   UNL     1      -7.600  16.026  68.256  1.00  0.00     0.000 HD 
BRANCH  23  26
HETATM   26  C   UNL     1      -8.038  17.599  66.861  1.00  0.00    -0.224 A  
HETATM   27  C   UNL     1      -8.950  18.620  67.236  1.00  0.00    -0.283 A  
HETATM   28  F   UNL     1      -5.128  18.729  63.903  1.00  0.00    -0.195 F  
HETATM   29  F   UNL     1     -11.284  18.753  67.658  1.00  0.00    -0.410 F  
HETATM   30  F   UNL     1      -9.956  19.259  69.301  1.00  0.00    -0.447 F  
HETATM   31  F   UNL     1     -10.215  17.178  68.703  1.00  0.00    -0.257 F  
HETATM   32  F   UNL     1      -5.192  20.754  64.700  1.00  0.00    -0.197 F  
HETATM   33  F   UNL     1      -6.584  20.151  63.139  1.00  0.00     0.006 F  
HETATM   34  C   UNL     1      -8.854  19.933  66.695  1.00  0.00    -0.429 A  
HETATM   35  C   UNL     1      -7.887  20.280  65.757  1.00  0.00    -0.091 A  
HETATM   36  C   UNL     1      -5.981  19.720  64.282  1.00  0.00    -0.256 C  
HETATM   37  C   UNL     1      -6.986  19.310  65.336  1.00  0.00    -0.201 A  
HETATM   38  C   UNL     1      -7.067  17.982  65.896  1.00  0.00    -0.302 A  
HETATM   39  C   UNL     1     -10.086  18.445  68.214  1.00  0.00    -0.383 C  
ENDBRANCH  23  26
ENDBRANCH   1  22
TORSDOF 2
ENDMDL
MODEL       44
REMARK 921   NORMALIZED FREE ENERGY PREDICTED BY IDOCK:   -7.01 KCAL/MOL
REMARK 922        TOTAL FREE ENERGY PREDICTED BY IDOCK:   -8.46 KCAL/MOL
REMARK 923 INTER-LIGAND FREE ENERGY PREDICTED BY IDOCK:   -7.78 KCAL/MOL
REMARK 924 INTRA-LIGAND FREE ENERGY PREDICTED BY IDOCK:   -0.67 KCAL/MOL
REMARK 927      BINDING AFFINITY PREDICTED BY RF-SCORE:    0.00 PKD
ROOT
HETATM    1  C   UNL     1     -10.447   9.957  67.100  1.00  0.00    -0.305 C  
HETATM    2  H   UNL     1      -9.667  18.795  66.736  1.00  0.00     0.000 HD 
HETATM    3  C   UNL     1     -11.158  10.471  65.841  1.00  0.00     0.290 C  
HETATM    4  C   UNL     1     -10.366  11.737  65.591  1.00  0.00    -0.293 C  
HETATM    5  C   UNL     1      -8.084  18.278  67.994  1.00  0.00    -0.270 C  
HETATM    6  O   UNL     1      -7.453  19.319  67.884  1.00  0.00    -0.248 OA 
HETATM    7  C   UNL     1      -9.917  10.735  69.384  1.00  0.00    -0.137 C  
HETATM    8  C   UNL     1     -10.360  12.377  66.979  1.00  0.00    -0.235 C  
HETATM    9  N   UNL     1      -9.206  18.025  67.221  1.00  0.00    -0.253 N  
HETATM   10  C   UNL     1     -10.606  11.251  68.114  1.00  0.00    -0.225 C  
HETATM   11  C   UNL     1      -9.598  13.664  67.291  1.00  0.00    -0.238 C  
HETATM   12  C   UNL     1      -9.323  14.430  65.980  1.00  0.00    -0.167 C  
HETATM   13  C   UNL     1     -11.766  12.126  68.819  1.00  0.00    -0.374 C  
HETATM   14  C   UNL     1     -11.167  13.603  69.323  1.00  0.00    -0.284 C  
HETATM   15  C   UNL     1      -8.811  15.843  66.174  1.00  0.00    -0.363 C  
HETATM   16  C   UNL     1     -10.521  14.520  68.205  1.00  0.00    -0.239 C  
HETATM   17  C   UNL     1      -9.737  16.674  67.090  1.00  0.00    -0.250 C  
HETATM   18  C   UNL     1     -10.896  16.826  69.345  1.00  0.00    -0.250 C  
HETATM   19  C   UNL     1      -9.912  15.982  68.502  1.00  0.00    -0.222 C  
HETATM   20  C   UNL     1      -8.525  16.140  69.171  1.00  0.00    -0.239 C  
HETATM   21  C   UNL     1      -7.688  17.184  68.917  1.00  0.00    -0.230 C  
ENDROOT
BRANCH   1  22
HETATM   22  C   UNL     1      -9.886   8.423  66.789  1.00  0.00    -0.259 C  
HETATM   23  N   UNL     1     -10.662   7.275  66.838  1.00  0.00    -0.476 N  
HETATM   24  O   UNL     1      -8.647   8.296  66.676  1.00  0.00    -0.121 OA 
HETATM   25  H   UNL     1     -11.673   7.406  66.802  1.00  0.00     0.000 HD 
BRANCH  23  26
HETATM   26  C   UNL     1     -10.175   5.873  66.936  1.00  0.00    -0.214 A  
HETATM   27  C   UNL     1      -9.968   5.249  68.195  1.00  0.00    -0.209 A  
HETATM   28  F   UNL     1      -9.111   3.500  63.512  1.00  0.00    -0.093 F  
HETATM   29  F   UNL     1      -9.107   5.912  70.307  1.00  0.00    -0.138 F  
HETATM   30  F   UNL     1     -11.173   5.244  70.252  1.00  0.00    -0.245 F  
HETATM   31  F   UNL     1     -10.633   7.200  69.454  1.00  0.00    -0.207 F  
HETATM   32  F   UNL     1      -9.656   1.723  64.648  1.00  0.00    -0.134 F  
HETATM   33  F   UNL     1      -7.630   2.514  64.762  1.00  0.00    -0.066 F  
HETATM   34  C   UNL     1      -9.491   3.912  68.289  1.00  0.00    -0.212 A  
HETATM   35  C   UNL     1      -9.177   3.156  67.164  1.00  0.00    -0.209 A  
HETATM   36  C   UNL     1      -8.941   2.886  64.716  1.00  0.00    -0.127 C  
HETATM   37  C   UNL     1      -9.336   3.729  65.907  1.00  0.00    -0.167 A  
HETATM   38  C   UNL     1      -9.838   5.078  65.807  1.00  0.00    -0.150 A  
HETATM   39  C   UNL     1     -10.220   5.902  69.532  1.00  0.00    -0.225 C  
ENDBRANCH  23  26
ENDBRANCH   1  22
TORSDOF 2
ENDMDL
MODEL       45
REMARK 921   NORMALIZED FREE ENERGY PREDICTED BY IDOCK:   -6.96 KCAL/MOL
REMARK 922        TOTAL FREE ENERGY PREDICTED BY IDOCK:   -8.41 KCAL/MOL
REMARK 923 INTER-LIGAND FREE ENERGY PREDICTED BY IDOCK:   -8.37 KCAL/MOL
REMARK 924 INTRA-LIGAND FREE ENERGY PREDICTED BY IDOCK:   -0.04 KCAL/MOL
REMARK 927      BINDING AFFINITY PREDICTED BY RF-SCORE:    0.00 PKD
ROOT
HETATM    1  C   UNL     1     -11.326   9.032  70.383  1.00  0.00    -0.242 C  
HETATM    2  H   UNL     1      -7.743   1.427  73.242  1.00  0.00     0.000 HD 
HETATM    3  C   UNL     1     -12.448   8.018  70.644  1.00  0.00     0.224 C  
HETATM    4  C   UNL     1     -11.787   7.164  71.706  1.00  0.00    -0.338 C  
HETATM    5  C   UNL     1      -6.232   2.800  73.672  1.00  0.00    -0.012 C  
HETATM    6  O   UNL     1      -5.621   2.110  74.475  1.00  0.00     0.000 OA 
HETATM    7  C   UNL     1      -8.952   9.045  69.699  1.00  0.00    -0.153 C  
HETATM    8  C   UNL     1     -10.420   6.894  71.077  1.00  0.00    -0.235 C  
HETATM    9  N   UNL     1      -7.455   2.402  73.158  1.00  0.00    -0.040 N  
HETATM   10  C   UNL     1     -10.072   8.035  69.984  1.00  0.00    -0.196 C  
HETATM   11  C   UNL     1      -9.314   6.128  71.803  1.00  0.00    -0.159 C  
HETATM   12  C   UNL     1      -9.933   5.282  72.935  1.00  0.00    -0.192 C  
HETATM   13  C   UNL     1      -9.682   6.935  68.868  1.00  0.00    -0.142 C  
HETATM   14  C   UNL     1      -8.421   5.976  69.401  1.00  0.00    -0.115 C  
HETATM   15  C   UNL     1      -8.984   4.277  73.558  1.00  0.00    -0.092 C  
HETATM   16  C   UNL     1      -8.659   5.187  70.753  1.00  0.00    -0.131 C  
HETATM   17  C   UNL     1      -8.338   3.357  72.498  1.00  0.00    -0.084 C  
HETATM   18  C   UNL     1      -6.997   3.230  70.345  1.00  0.00    -0.034 C  
HETATM   19  C   UNL     1      -7.564   4.201  71.407  1.00  0.00    -0.064 C  
HETATM   20  C   UNL     1      -6.342   4.769  72.169  1.00  0.00    -0.030 C  
HETATM   21  C   UNL     1      -5.752   4.130  73.217  1.00  0.00    -0.007 C  
ENDROOT
BRANCH   1  22
HETATM   22  C   UNL     1     -11.934  10.557  70.651  1.00  0.00    -0.357 C  
HETATM   23  N   UNL     1     -11.776  11.631  69.789  1.00  0.00    -0.331 N  
HETATM   24  O   UNL     1     -12.411  10.775  71.787  1.00  0.00    -0.328 OA 
HETATM   25  H   UNL     1     -11.506  11.410  68.831  1.00  0.00     0.000 HD 
BRANCH  23  26
HETATM   26  C   UNL     1     -11.959  13.070  70.115  1.00  0.00    -0.303 A  
HETATM   27  C   UNL     1     -11.807  14.077  69.125  1.00  0.00    -0.391 A  
HETATM   28  F   UNL     1     -12.772  14.506  74.086  1.00  0.00    -0.465 F  
HETATM   29  F   UNL     1     -10.339  14.468  67.299  1.00  0.00    -0.252 F  
HETATM   30  F   UNL     1     -12.451  14.253  66.836  1.00  0.00    -0.455 F  
HETATM   31  F   UNL     1     -11.264  12.504  67.375  1.00  0.00    -0.263 F  
HETATM   32  F   UNL     1     -13.816  16.198  73.196  1.00  0.00    -0.659 F  
HETATM   33  F   UNL     1     -11.673  16.308  73.568  1.00  0.00    -0.471 F  
HETATM   34  C   UNL     1     -11.969  15.456  69.440  1.00  0.00    -0.351 A  
HETATM   35  C   UNL     1     -12.258  15.893  70.729  1.00  0.00    -0.373 A  
HETATM   36  C   UNL     1     -12.659  15.473  73.134  1.00  0.00    -0.468 C  
HETATM   37  C   UNL     1     -12.390  14.949  71.741  1.00  0.00    -0.410 A  
HETATM   38  C   UNL     1     -12.245  13.549  71.423  1.00  0.00    -0.128 A  
HETATM   39  C   UNL     1     -11.469  13.819  67.677  1.00  0.00    -0.323 C  
ENDBRANCH  23  26
ENDBRANCH   1  22
TORSDOF 2
ENDMDL
MODEL       46
REMARK 921   NORMALIZED FREE ENERGY PREDICTED BY IDOCK:   -6.94 KCAL/MOL
REMARK 922        TOTAL FREE ENERGY PREDICTED BY IDOCK:   -8.38 KCAL/MOL
REMARK 923 INTER-LIGAND FREE ENERGY PREDICTED BY IDOCK:   -7.74 KCAL/MOL
REMARK 924 INTRA-LIGAND FREE ENERGY PREDICTED BY IDOCK:   -0.64 KCAL/MOL
REMARK 927      BINDING AFFINITY PREDICTED BY RF-SCORE:    0.00 PKD
ROOT
HETATM    1  C   UNL     1     -10.374   8.598  68.948  1.00  0.00    -0.228 C  
HETATM    2  H   UNL     1      -9.383  16.959  66.128  1.00  0.00     0.000 HD 
HETATM    3  C   UNL     1     -10.459   8.622  67.416  1.00  0.00    -0.351 C  
HETATM    4  C   UNL     1      -9.618   9.848  67.127  1.00  0.00    -0.201 C  
HETATM    5  C   UNL     1      -8.514  17.041  68.022  1.00  0.00    -0.216 C  
HETATM    6  O   UNL     1      -7.882  18.075  67.858  1.00  0.00    -0.226 OA 
HETATM    7  C   UNL     1     -10.879  10.075  70.863  1.00  0.00    -0.276 C  
HETATM    8  C   UNL     1     -10.208  10.864  68.105  1.00  0.00    -0.197 C  
HETATM    9  N   UNL     1      -9.191  16.431  66.979  1.00  0.00    -0.215 N  
HETATM   10  C   UNL     1     -10.940  10.102  69.330  1.00  0.00    -0.279 C  
HETATM   11  C   UNL     1      -9.638  12.272  68.275  1.00  0.00    -0.212 C  
HETATM   12  C   UNL     1      -8.809  12.645  67.028  1.00  0.00    -0.212 C  
HETATM   13  C   UNL     1     -12.278  10.991  69.165  1.00  0.00    -0.229 C  
HETATM   14  C   UNL     1     -11.935  12.615  69.370  1.00  0.00    -0.318 C  
HETATM   15  C   UNL     1      -8.412  14.106  66.953  1.00  0.00    -0.117 C  
HETATM   16  C   UNL     1     -10.854  13.235  68.393  1.00  0.00    -0.279 C  
HETATM   17  C   UNL     1      -9.632  15.046  67.080  1.00  0.00    -0.225 C  
HETATM   18  C   UNL     1     -11.654  15.707  68.467  1.00  0.00    -0.378 C  
HETATM   19  C   UNL     1     -10.413  14.784  68.430  1.00  0.00    -0.243 C  
HETATM   20  C   UNL     1      -9.453  15.307  69.526  1.00  0.00    -0.204 C  
HETATM   21  C   UNL     1      -8.574  16.328  69.324  1.00  0.00    -0.148 C  
ENDROOT
BRANCH   1  22
HETATM   22  C   UNL     1      -9.756   7.124  69.409  1.00  0.00    -0.160 C  
HETATM   23  N   UNL     1     -10.504   5.965  69.551  1.00  0.00    -0.248 N  
HETATM   24  O   UNL     1      -8.574   7.119  69.817  1.00  0.00    -0.139 OA 
HETATM   25  H   UNL     1     -11.418   5.955  69.099  1.00  0.00     0.000 HD 
BRANCH  23  26
HETATM   26  C   UNL     1     -10.114   4.737  70.293  1.00  0.00    -0.234 A  
HETATM   27  C   UNL     1      -9.540   3.622  69.628  1.00  0.00    -0.211 A  
HETATM   28  F   UNL     1     -10.803   4.208  74.505  1.00  0.00    -0.268 F  
HETATM   29  F   UNL     1      -9.883   2.508  67.559  1.00  0.00    -0.148 F  
HETATM   30  F   UNL     1      -7.926   3.389  67.889  1.00  0.00    -0.075 F  
HETATM   31  F   UNL     1      -9.641   4.663  67.451  1.00  0.00    -0.142 F  
HETATM   32  F   UNL     1      -9.070   2.890  74.563  1.00  0.00    -0.080 F  
HETATM   33  F   UNL     1     -11.041   2.083  74.112  1.00  0.00    -0.198 F  
HETATM   34  C   UNL     1      -9.178   2.442  70.337  1.00  0.00    -0.192 A  
HETATM   35  C   UNL     1      -9.389   2.305  71.706  1.00  0.00    -0.178 A  
HETATM   36  C   UNL     1     -10.223   3.148  73.877  1.00  0.00    -0.141 C  
HETATM   37  C   UNL     1      -9.973   3.358  72.401  1.00  0.00    -0.235 A  
HETATM   38  C   UNL     1     -10.324   4.564  71.689  1.00  0.00    -0.160 A  
HETATM   39  C   UNL     1      -9.255   3.555  68.148  1.00  0.00    -0.176 C  
ENDBRANCH  23  26
ENDBRANCH   1  22
TORSDOF 2
ENDMDL
MODEL       47
REMARK 921   NORMALIZED FREE ENERGY PREDICTED BY IDOCK:   -6.86 KCAL/MOL
REMARK 922        TOTAL FREE ENERGY PREDICTED BY IDOCK:   -8.29 KCAL/MOL
REMARK 923 INTER-LIGAND FREE ENERGY PREDICTED BY IDOCK:   -7.69 KCAL/MOL
REMARK 924 INTRA-LIGAND FREE ENERGY PREDICTED BY IDOCK:   -0.60 KCAL/MOL
REMARK 927      BINDING AFFINITY PREDICTED BY RF-SCORE:    0.00 PKD
ROOT
HETATM    1  C   UNL     1      -9.392   9.306  67.449  1.00  0.00    -0.153 C  
HETATM    2  H   UNL     1      -8.932   1.671  71.959  1.00  0.00     0.000 HD 
HETATM    3  C   UNL     1     -10.335   8.284  66.801  1.00  0.00    -0.361 C  
HETATM    4  C   UNL     1     -10.648   7.417  68.001  1.00  0.00    -0.235 C  
HETATM    5  C   UNL     1      -8.233   3.042  73.368  1.00  0.00    -0.073 C  
HETATM    6  O   UNL     1      -8.392   2.342  74.357  1.00  0.00    -0.064 OA 
HETATM    7  C   UNL     1      -7.271   9.337  68.716  1.00  0.00    -0.074 C  
HETATM    8  C   UNL     1      -9.251   7.161  68.569  1.00  0.00    -0.134 C  
HETATM    9  N   UNL     1      -8.687   2.648  72.120  1.00  0.00    -0.069 N  
HETATM   10  C   UNL     1      -8.230   8.319  68.085  1.00  0.00    -0.128 C  
HETATM   11  C   UNL     1      -9.016   6.388  69.867  1.00  0.00    -0.142 C  
HETATM   12  C   UNL     1     -10.254   5.523  70.181  1.00  0.00    -0.333 C  
HETATM   13  C   UNL     1      -7.134   7.237  67.600  1.00  0.00    -0.085 C  
HETATM   14  C   UNL     1      -6.649   6.274  68.877  1.00  0.00    -0.048 C  
HETATM   15  C   UNL     1     -10.048   4.512  71.291  1.00  0.00    -0.225 C  
HETATM   16  C   UNL     1      -7.789   5.465  69.621  1.00  0.00    -0.078 C  
HETATM   17  C   UNL     1      -8.821   3.609  71.032  1.00  0.00    -0.082 C  
HETATM   18  C   UNL     1      -6.330   3.519  70.541  1.00  0.00    -0.027 C  
HETATM   19  C   UNL     1      -7.506   4.473  70.859  1.00  0.00    -0.052 C  
HETATM   20  C   UNL     1      -7.236   5.033  72.276  1.00  0.00    -0.089 C  
HETATM   21  C   UNL     1      -7.589   4.380  73.418  1.00  0.00    -0.078 C  
ENDROOT
BRANCH   1  22
HETATM   22  C   UNL     1     -10.023  10.825  67.200  1.00  0.00    -0.194 C  
HETATM   23  N   UNL     1      -9.861  11.565  66.039  1.00  0.00    -0.217 N  
HETATM   24  O   UNL     1     -10.523  11.390  68.197  1.00  0.00    -0.176 OA 
HETATM   25  H   UNL     1      -9.569  11.050  65.208  1.00  0.00     0.000 HD 
BRANCH  23  26
HETATM   26  C   UNL     1     -10.066  13.029  65.878  1.00  0.00    -0.288 A  
HETATM   27  C   UNL     1     -11.112  13.544  65.067  1.00  0.00    -0.338 A  
HETATM   28  F   UNL     1      -7.476  15.981  67.628  1.00  0.00    -0.128 F  
HETATM   29  F   UNL     1     -12.095  12.970  62.982  1.00  0.00    -0.613 F  
HETATM   30  F   UNL     1     -13.390  12.930  64.725  1.00  0.00    -0.317 F  
HETATM   31  F   UNL     1     -11.910  11.357  64.424  1.00  0.00    -0.277 F  
HETATM   32  F   UNL     1      -9.172  17.346  67.691  1.00  0.00    -0.227 F  
HETATM   33  F   UNL     1      -7.910  17.252  65.919  1.00  0.00    -0.323 F  
HETATM   34  C   UNL     1     -11.301  14.945  64.903  1.00  0.00    -0.415 A  
HETATM   35  C   UNL     1     -10.463  15.881  65.502  1.00  0.00    -0.425 A  
HETATM   36  C   UNL     1      -8.496  16.480  66.877  1.00  0.00    -0.212 C  
HETATM   37  C   UNL     1      -9.407  15.429  66.284  1.00  0.00    -0.351 A  
HETATM   38  C   UNL     1      -9.223  14.010  66.468  1.00  0.00    -0.240 A  
HETATM   39  C   UNL     1     -12.111  12.701  64.312  1.00  0.00    -0.426 C  
ENDBRANCH  23  26
ENDBRANCH   1  22
TORSDOF 2
ENDMDL
MODEL       48
REMARK 921   NORMALIZED FREE ENERGY PREDICTED BY IDOCK:   -6.85 KCAL/MOL
REMARK 922        TOTAL FREE ENERGY PREDICTED BY IDOCK:   -8.28 KCAL/MOL
REMARK 923 INTER-LIGAND FREE ENERGY PREDICTED BY IDOCK:   -7.79 KCAL/MOL
REMARK 924 INTRA-LIGAND FREE ENERGY PREDICTED BY IDOCK:   -0.49 KCAL/MOL
REMARK 927      BINDING AFFINITY PREDICTED BY RF-SCORE:    0.00 PKD
ROOT
HETATM    1  C   UNL     1      -7.428  12.477  68.418  1.00  0.00    -0.127 C  
HETATM    2  H   UNL     1     -11.076   4.779  70.926  1.00  0.00     0.000 HD 
HETATM    3  C   UNL     1      -8.167  11.861  67.223  1.00  0.00    -0.170 C  
HETATM    4  C   UNL     1      -9.218  11.051  67.954  1.00  0.00    -0.155 C  
HETATM    5  C   UNL     1     -10.817   5.746  72.756  1.00  0.00    -0.255 C  
HETATM    6  O   UNL     1     -11.596   5.061  73.403  1.00  0.00    -0.291 OA 
HETATM    7  C   UNL     1      -6.234  11.735  70.450  1.00  0.00     0.041 C  
HETATM    8  C   UNL     1      -8.373  10.321  68.998  1.00  0.00    -0.148 C  
HETATM    9  N   UNL     1     -10.704   5.612  71.382  1.00  0.00    -0.253 N  
HETATM   10  C   UNL     1      -6.995  11.126  69.264  1.00  0.00    -0.118 C  
HETATM   11  C   UNL     1      -8.984   9.419  70.070  1.00  0.00    -0.234 C  
HETATM   12  C   UNL     1     -10.392   8.973  69.625  1.00  0.00    -0.217 C  
HETATM   13  C   UNL     1      -6.106   9.790  69.079  1.00  0.00    -0.041 C  
HETATM   14  C   UNL     1      -6.544   8.630  70.200  1.00  0.00    -0.038 C  
HETATM   15  C   UNL     1     -10.997   7.869  70.470  1.00  0.00    -0.250 C  
HETATM   16  C   UNL     1      -8.060   8.173  70.186  1.00  0.00    -0.113 C  
HETATM   17  C   UNL     1     -10.061   6.644  70.578  1.00  0.00    -0.187 C  
HETATM   18  C   UNL     1      -7.748   5.801  71.203  1.00  0.00    -0.109 C  
HETATM   19  C   UNL     1      -8.656   7.053  71.179  1.00  0.00    -0.133 C  
HETATM   20  C   UNL     1      -8.964   7.391  72.658  1.00  0.00    -0.173 C  
HETATM   21  C   UNL     1      -9.968   6.801  73.365  1.00  0.00    -0.247 C  
ENDROOT
BRANCH   1  22
HETATM   22  C   UNL     1      -7.466  14.131  68.254  1.00  0.00    -0.125 C  
HETATM   23  N   UNL     1      -8.100  14.996  69.133  1.00  0.00    -0.188 N  
HETATM   24  O   UNL     1      -7.040  14.594  67.173  1.00  0.00    -0.180 OA 
HETATM   25  H   UNL     1      -8.324  14.624  70.056  1.00  0.00     0.000 HD 
BRANCH  23  26
HETATM   26  C   UNL     1      -8.488  16.407  68.871  1.00  0.00    -0.247 A  
HETATM   27  C   UNL     1      -9.831  16.844  69.020  1.00  0.00    -0.247 A  
HETATM   28  F   UNL     1      -5.736  19.384  67.436  1.00  0.00    -0.173 F  
HETATM   29  F   UNL     1     -11.980  15.951  68.543  1.00  0.00    -0.381 F  
HETATM   30  F   UNL     1     -11.542  16.405  70.622  1.00  0.00    -0.375 F  
HETATM   31  F   UNL     1     -10.641  14.663  69.668  1.00  0.00    -0.240 F  
HETATM   32  F   UNL     1      -6.939  20.895  68.443  1.00  0.00    -0.257 F  
HETATM   33  F   UNL     1      -7.408  20.307  66.399  1.00  0.00    -0.267 F  
HETATM   34  C   UNL     1     -10.204  18.193  68.757  1.00  0.00    -0.353 A  
HETATM   35  C   UNL     1      -9.289  19.144  68.318  1.00  0.00    -0.397 A  
HETATM   36  C   UNL     1      -7.016  19.816  67.608  1.00  0.00    -0.245 C  
HETATM   37  C   UNL     1      -7.966  18.761  68.130  1.00  0.00    -0.317 A  
HETATM   38  C   UNL     1      -7.579  17.400  68.413  1.00  0.00    -0.255 A  
HETATM   39  C   UNL     1     -10.979  15.968  69.459  1.00  0.00    -0.326 C  
ENDBRANCH  23  26
ENDBRANCH   1  22
TORSDOF 2
ENDMDL
MODEL       49
REMARK 921   NORMALIZED FREE ENERGY PREDICTED BY IDOCK:   -6.83 KCAL/MOL
REMARK 922        TOTAL FREE ENERGY PREDICTED BY IDOCK:   -8.26 KCAL/MOL
REMARK 923 INTER-LIGAND FREE ENERGY PREDICTED BY IDOCK:   -7.65 KCAL/MOL
REMARK 924 INTRA-LIGAND FREE ENERGY PREDICTED BY IDOCK:   -0.61 KCAL/MOL
REMARK 927      BINDING AFFINITY PREDICTED BY RF-SCORE:    0.00 PKD
ROOT
HETATM    1  C   UNL     1      -8.415  11.534  68.680  1.00  0.00    -0.115 C  
HETATM    2  H   UNL     1      -7.586   2.938  66.610  1.00  0.00     0.000 HD 
HETATM    3  C   UNL     1      -6.956  11.107  68.890  1.00  0.00    -0.095 C  
HETATM    4  C   UNL     1      -6.869   9.972  67.892  1.00  0.00    -0.075 C  
HETATM    5  C   UNL     1      -9.324   3.460  65.580  1.00  0.00    -0.147 C  
HETATM    6  O   UNL     1      -9.336   2.513  64.808  1.00  0.00    -0.139 OA 
HETATM    7  C   UNL     1     -10.675  10.541  68.778  1.00  0.00    -0.249 C  
HETATM    8  C   UNL     1      -8.127   9.170  68.226  1.00  0.00    -0.104 C  
HETATM    9  N   UNL     1      -8.255   3.687  66.432  1.00  0.00    -0.099 N  
HETATM   10  C   UNL     1      -9.213  10.115  68.963  1.00  0.00    -0.188 C  
HETATM   11  C   UNL     1      -8.559   7.941  67.427  1.00  0.00    -0.125 C  
HETATM   12  C   UNL     1      -7.347   7.376  66.657  1.00  0.00    -0.084 C  
HETATM   13  C   UNL     1      -9.432   9.043  70.151  1.00  0.00    -0.217 C  
HETATM   14  C   UNL     1      -9.977   7.587  69.538  1.00  0.00    -0.180 C  
HETATM   15  C   UNL     1      -7.577   6.010  66.040  1.00  0.00    -0.087 C  
HETATM   16  C   UNL     1      -9.052   6.887  68.459  1.00  0.00    -0.127 C  
HETATM   17  C   UNL     1      -8.074   4.981  67.079  1.00  0.00    -0.107 C  
HETATM   18  C   UNL     1      -9.816   4.432  68.844  1.00  0.00    -0.163 C  
HETATM   19  C   UNL     1      -9.407   5.472  67.774  1.00  0.00    -0.119 C  
HETATM   20  C   UNL     1     -10.470   5.379  66.654  1.00  0.00    -0.356 C  
HETATM   21  C   UNL     1     -10.413   4.468  65.643  1.00  0.00    -0.261 C  
ENDROOT
BRANCH   1  22
HETATM   22  C   UNL     1      -8.429  13.145  68.268  1.00  0.00    -0.161 C  
HETATM   23  N   UNL     1      -8.624  14.185  69.163  1.00  0.00    -0.361 N  
HETATM   24  O   UNL     1      -8.438  13.407  67.045  1.00  0.00    -0.194 OA 
HETATM   25  H   UNL     1      -8.486  13.969  70.151  1.00  0.00     0.000 HD 
BRANCH  23  26
HETATM   26  C   UNL     1      -9.010  15.583  68.836  1.00  0.00    -0.220 A  
HETATM   27  C   UNL     1     -10.369  15.950  68.651  1.00  0.00    -0.229 A  
HETATM   28  F   UNL     1      -6.153  18.731  68.187  1.00  0.00    -0.199 F  
HETATM   29  F   UNL     1     -12.279  14.968  67.635  1.00  0.00    -0.304 F  
HETATM   30  F   UNL     1     -12.400  15.381  69.764  1.00  0.00    -0.342 F  
HETATM   31  F   UNL     1     -11.195  13.714  69.038  1.00  0.00    -0.251 F  
HETATM   32  F   UNL     1      -7.650  20.152  68.884  1.00  0.00    -0.282 F  
HETATM   33  F   UNL     1      -7.561  19.603  66.779  1.00  0.00    -0.235 F  
HETATM   34  C   UNL     1     -10.738  17.286  68.325  1.00  0.00    -0.349 A  
HETATM   35  C   UNL     1      -9.795  18.293  68.145  1.00  0.00    -0.356 A  
HETATM   36  C   UNL     1      -7.457  19.095  68.039  1.00  0.00    -0.263 C  
HETATM   37  C   UNL     1      -8.448  17.980  68.288  1.00  0.00    -0.293 A  
HETATM   38  C   UNL     1      -8.071  16.632  68.637  1.00  0.00    -0.237 A  
HETATM   39  C   UNL     1     -11.541  15.007  68.772  1.00  0.00    -0.335 C  
ENDBRANCH  23  26
ENDBRANCH   1  22
TORSDOF 2
ENDMDL
MODEL       50
REMARK 921   NORMALIZED FREE ENERGY PREDICTED BY IDOCK:   -6.73 KCAL/MOL
REMARK 922        TOTAL FREE ENERGY PREDICTED BY IDOCK:   -8.15 KCAL/MOL
REMARK 923 INTER-LIGAND FREE ENERGY PREDICTED BY IDOCK:   -7.45 KCAL/MOL
REMARK 924 INTRA-LIGAND FREE ENERGY PREDICTED BY IDOCK:   -0.69 KCAL/MOL
REMARK 927      BINDING AFFINITY PREDICTED BY RF-SCORE:    0.00 PKD
ROOT
HETATM    1  C   UNL     1      -9.275  10.335  68.515  1.00  0.00    -0.144 C  
HETATM    2  H   UNL     1      -5.799   2.170  68.204  1.00  0.00     0.000 HD 
HETATM    3  C   UNL     1      -8.311  10.156  69.695  1.00  0.00    -0.174 C  
HETATM    4  C   UNL     1      -7.372   9.122  69.112  1.00  0.00    -0.071 C  
HETATM    5  C   UNL     1      -6.418   2.446  66.231  1.00  0.00    -0.028 C  
HETATM    6  O   UNL     1      -5.737   1.563  65.730  1.00  0.00    -0.012 OA 
HETATM    7  C   UNL     1     -10.776   8.959  67.115  1.00  0.00    -0.203 C  
HETATM    8  C   UNL     1      -8.355   8.092  68.554  1.00  0.00    -0.126 C  
HETATM    9  N   UNL     1      -6.281   2.800  67.563  1.00  0.00    -0.028 N  
HETATM   10  C   UNL     1      -9.792   8.784  68.280  1.00  0.00    -0.185 C  
HETATM   11  C   UNL     1      -7.905   6.861  67.768  1.00  0.00    -0.113 C  
HETATM   12  C   UNL     1      -6.422   6.568  68.077  1.00  0.00    -0.053 C  
HETATM   13  C   UNL     1     -10.576   7.615  69.072  1.00  0.00    -0.186 C  
HETATM   14  C   UNL     1     -10.294   6.129  68.361  1.00  0.00    -0.240 C  
HETATM   15  C   UNL     1      -5.929   5.227  67.571  1.00  0.00    -0.026 C  
HETATM   16  C   UNL     1      -8.780   5.673  68.258  1.00  0.00    -0.106 C  
HETATM   17  C   UNL     1      -6.816   4.061  68.063  1.00  0.00    -0.047 C  
HETATM   18  C   UNL     1      -9.164   3.103  68.196  1.00  0.00    -0.248 C  
HETATM   19  C   UNL     1      -8.321   4.265  67.622  1.00  0.00    -0.098 C  
HETATM   20  C   UNL     1      -8.294   4.062  66.088  1.00  0.00    -0.108 C  
HETATM   21  C   UNL     1      -7.406   3.242  65.459  1.00  0.00    -0.075 C  
ENDROOT
BRANCH   1  22
HETATM   22  C   UNL     1      -9.280  11.942  68.088  1.00  0.00    -0.187 C  
HETATM   23  N   UNL     1     -10.417  12.672  67.778  1.00  0.00    -0.218 N  
HETATM   24  O   UNL     1      -8.164  12.463  67.868  1.00  0.00    -0.141 OA 
HETATM   25  H   UNL     1     -11.308  12.279  68.082  1.00  0.00     0.000 HD 
BRANCH  23  26
HETATM   26  C   UNL     1     -10.475  13.967  67.050  1.00  0.00    -0.278 A  
HETATM   27  C   UNL     1     -10.683  14.017  65.646  1.00  0.00    -0.306 A  
HETATM   28  F   UNL     1      -9.837  17.772  68.948  1.00  0.00    -0.296 F  
HETATM   29  F   UNL     1      -9.956  12.760  63.767  1.00  0.00    -0.398 F  
HETATM   30  F   UNL     1     -12.094  12.819  64.143  1.00  0.00    -0.396 F  
HETATM   31  F   UNL     1     -10.792  11.615  65.413  1.00  0.00    -0.313 F  
HETATM   32  F   UNL     1     -11.129  18.673  67.444  1.00  0.00    -0.460 F  
HETATM   33  F   UNL     1      -8.993  18.471  67.071  1.00  0.00    -0.255 F  
HETATM   34  C   UNL     1     -10.726  15.256  64.947  1.00  0.00    -0.423 A  
HETATM   35  C   UNL     1     -10.542  16.477  65.590  1.00  0.00    -0.317 A  
HETATM   36  C   UNL     1     -10.067  17.827  67.608  1.00  0.00    -0.342 C  
HETATM   37  C   UNL     1     -10.307  16.482  66.960  1.00  0.00    -0.301 A  
HETATM   38  C   UNL     1     -10.282  15.229  67.676  1.00  0.00    -0.242 A  
HETATM   39  C   UNL     1     -10.878  12.811  64.760  1.00  0.00    -0.308 C  
ENDBRANCH  23  26
ENDBRANCH   1  22
TORSDOF 2
ENDMDL
MODEL       51
REMARK 921   NORMALIZED FREE ENERGY PREDICTED BY IDOCK:   -6.66 KCAL/MOL
REMARK 922        TOTAL FREE ENERGY PREDICTED BY IDOCK:   -8.07 KCAL/MOL
REMARK 923 INTER-LIGAND FREE ENERGY PREDICTED BY IDOCK:   -7.93 KCAL/MOL
REMARK 924 INTRA-LIGAND FREE ENERGY PREDICTED BY IDOCK:   -0.13 KCAL/MOL
REMARK 927      BINDING AFFINITY PREDICTED BY RF-SCORE:    0.00 PKD
ROOT
HETATM    1  C   UNL     1     -10.375  10.573  68.915  1.00  0.00    -0.226 C  
HETATM    2  H   UNL     1      -7.306  18.065  65.268  1.00  0.00     0.000 HD 
HETATM    3  C   UNL     1      -9.356  10.218  67.824  1.00  0.00    -0.156 C  
HETATM    4  C   UNL     1      -8.500  11.466  67.847  1.00  0.00    -0.139 C  
HETATM    5  C   UNL     1      -8.017  18.746  67.107  1.00  0.00    -0.245 C  
HETATM    6  O   UNL     1      -7.406  19.804  67.127  1.00  0.00    -0.220 OA 
HETATM    7  C   UNL     1     -12.011  12.352  69.423  1.00  0.00    -0.319 C  
HETATM    8  C   UNL     1      -9.560  12.568  67.804  1.00  0.00    -0.203 C  
HETATM    9  N   UNL     1      -7.792  17.797  66.123  1.00  0.00    -0.254 N  
HETATM   10  C   UNL     1     -10.975  12.003  68.347  1.00  0.00    -0.276 C  
HETATM   11  C   UNL     1      -9.211  14.053  67.897  1.00  0.00    -0.195 C  
HETATM   12  C   UNL     1      -7.729  14.257  67.519  1.00  0.00    -0.208 C  
HETATM   13  C   UNL     1     -11.768  12.581  67.064  1.00  0.00    -0.437 C  
HETATM   14  C   UNL     1     -11.595  14.240  66.962  1.00  0.00    -0.406 C  
HETATM   15  C   UNL     1      -7.327  15.705  67.315  1.00  0.00    -0.255 C  
HETATM   16  C   UNL     1     -10.112  14.789  66.865  1.00  0.00    -0.246 C  
HETATM   17  C   UNL     1      -8.239  16.420  66.293  1.00  0.00    -0.308 C  
HETATM   18  C   UNL     1     -10.619  17.030  65.649  1.00  0.00    -0.206 C  
HETATM   19  C   UNL     1      -9.755  16.355  66.741  1.00  0.00    -0.263 C  
HETATM   20  C   UNL     1      -9.821  17.283  67.978  1.00  0.00    -0.284 C  
HETATM   21  C   UNL     1      -9.008  18.363  68.146  1.00  0.00    -0.325 C  
ENDROOT
BRANCH   1  22
HETATM   22  C   UNL     1     -10.328   9.382  70.075  1.00  0.00    -0.233 C  
HETATM   23  N   UNL     1      -9.180   8.968  70.733  1.00  0.00    -0.224 N  
HETATM   24  O   UNL     1     -11.371   8.710  70.225  1.00  0.00    -0.235 OA 
HETATM   25  H   UNL     1      -8.380   9.600  70.696  1.00  0.00     0.000 HD 
BRANCH  23  26
HETATM   26  C   UNL     1      -8.992   7.700  71.486  1.00  0.00    -0.131 A  
HETATM   27  C   UNL     1      -7.699   7.162  71.719  1.00  0.00    -0.092 A  
HETATM   28  F   UNL     1     -12.261   5.306  72.928  1.00  0.00    -0.340 F  
HETATM   29  F   UNL     1      -5.686   6.959  70.475  1.00  0.00    -0.022 F  
HETATM   30  F   UNL     1      -5.596   8.119  72.309  1.00  0.00    -0.035 F  
HETATM   31  F   UNL     1      -6.570   8.942  70.539  1.00  0.00    -0.036 F  
HETATM   32  F   UNL     1     -10.965   4.609  74.533  1.00  0.00    -0.293 F  
HETATM   33  F   UNL     1     -11.004   3.559  72.625  1.00  0.00    -0.190 F  
HETATM   34  C   UNL     1      -7.520   5.942  72.429  1.00  0.00    -0.099 A  
HETATM   35  C   UNL     1      -8.595   5.198  72.908  1.00  0.00    -0.115 A  
HETATM   36  C   UNL     1     -11.022   4.803  73.181  1.00  0.00    -0.300 C  
HETATM   37  C   UNL     1      -9.884   5.666  72.683  1.00  0.00    -0.182 A  
HETATM   38  C   UNL     1     -10.069   6.913  71.980  1.00  0.00    -0.201 A  
HETATM   39  C   UNL     1      -6.407   7.796  71.262  1.00  0.00    -0.034 C  
ENDBRANCH  23  26
ENDBRANCH   1  22
TORSDOF 2
ENDMDL
MODEL       52
REMARK 921   NORMALIZED FREE ENERGY PREDICTED BY IDOCK:   -6.59 KCAL/MOL
REMARK 922        TOTAL FREE ENERGY PREDICTED BY IDOCK:   -7.99 KCAL/MOL
REMARK 923 INTER-LIGAND FREE ENERGY PREDICTED BY IDOCK:   -7.54 KCAL/MOL
REMARK 924 INTRA-LIGAND FREE ENERGY PREDICTED BY IDOCK:   -0.45 KCAL/MOL
REMARK 927      BINDING AFFINITY PREDICTED BY RF-SCORE:    0.00 PKD
ROOT
HETATM    1  C   UNL     1     -10.880  12.218  67.714  1.00  0.00    -0.256 C  
HETATM    2  H   UNL     1      -7.957  20.360  65.712  1.00  0.00     0.000 HD 
HETATM    3  C   UNL     1     -10.993  12.432  66.199  1.00  0.00    -0.321 C  
HETATM    4  C   UNL     1      -9.887  13.445  65.993  1.00  0.00    -0.273 C  
HETATM    5  C   UNL     1      -7.048  20.022  67.559  1.00  0.00    -0.265 C  
HETATM    6  O   UNL     1      -6.189  20.887  67.468  1.00  0.00    -0.249 OA 
HETATM    7  C   UNL     1     -10.963  13.552  69.792  1.00  0.00     0.150 C  
HETATM    8  C   UNL     1     -10.188  14.458  67.098  1.00  0.00    -0.257 C  
HETATM    9  N   UNL     1      -7.878  19.711  66.494  1.00  0.00    -0.278 N  
HETATM   10  C   UNL     1     -11.053  13.762  68.274  1.00  0.00    -0.279 C  
HETATM   11  C   UNL     1      -9.290  15.662  67.381  1.00  0.00    -0.214 C  
HETATM   12  C   UNL     1      -8.426  15.962  66.139  1.00  0.00    -0.196 C  
HETATM   13  C   UNL     1     -12.139  14.958  68.269  1.00  0.00    -0.146 C  
HETATM   14  C   UNL     1     -11.408  16.419  68.620  1.00  0.00    -0.289 C  
HETATM   15  C   UNL     1      -7.687  17.285  66.192  1.00  0.00    -0.317 C  
HETATM   16  C   UNL     1     -10.233  16.868  67.658  1.00  0.00    -0.306 C  
HETATM   17  C   UNL     1      -8.640  18.469  66.475  1.00  0.00    -0.276 C  
HETATM   18  C   UNL     1     -10.406  19.436  68.023  1.00  0.00    -0.536 C  
HETATM   19  C   UNL     1      -9.428  18.253  67.830  1.00  0.00    -0.288 C  
HETATM   20  C   UNL     1      -8.344  18.407  68.924  1.00  0.00    -0.177 C  
HETATM   21  C   UNL     1      -7.248  19.204  68.782  1.00  0.00    -0.368 C  
ENDROOT
BRANCH   1  22
HETATM   22  C   UNL     1     -10.627  10.597  67.991  1.00  0.00    -0.211 C  
HETATM   23  N   UNL     1      -9.648  10.085  68.828  1.00  0.00    -0.162 N  
HETATM   24  O   UNL     1     -11.253   9.803  67.256  1.00  0.00    -0.080 OA 
HETATM   25  H   UNL     1      -9.241  10.731  69.504  1.00  0.00     0.000 HD 
BRANCH  23  26
HETATM   26  C   UNL     1      -9.128   8.692  68.843  1.00  0.00    -0.145 A  
HETATM   27  C   UNL     1      -8.988   7.968  70.057  1.00  0.00    -0.144 A  
HETATM   28  F   UNL     1      -7.762   6.644  65.316  1.00  0.00    -0.076 F  
HETATM   29  F   UNL     1      -8.292   8.468  72.272  1.00  0.00    -0.187 F  
HETATM   30  F   UNL     1     -10.329   7.758  72.017  1.00  0.00    -0.215 F  
HETATM   31  F   UNL     1      -9.795   9.788  71.424  1.00  0.00    -0.244 F  
HETATM   32  F   UNL     1      -8.330   4.765  66.260  1.00  0.00    -0.109 F  
HETATM   33  F   UNL     1      -6.342   5.592  66.581  1.00  0.00    -0.033 F  
HETATM   34  C   UNL     1      -8.478   6.639  70.072  1.00  0.00    -0.139 A  
HETATM   35  C   UNL     1      -8.067   5.989  68.913  1.00  0.00    -0.104 A  
HETATM   36  C   UNL     1      -7.656   5.935  66.474  1.00  0.00    -0.095 C  
HETATM   37  C   UNL     1      -8.157   6.663  67.700  1.00  0.00    -0.119 A  
HETATM   38  C   UNL     1      -8.691   8.004  67.678  1.00  0.00    -0.126 A  
HETATM   39  C   UNL     1      -9.350   8.498  71.423  1.00  0.00    -0.211 C  
ENDBRANCH  23  26
ENDBRANCH   1  22
TORSDOF 2
ENDMDL
MODEL       53
REMARK 921   NORMALIZED FREE ENERGY PREDICTED BY IDOCK:   -6.49 KCAL/MOL
REMARK 922        TOTAL FREE ENERGY PREDICTED BY IDOCK:   -7.88 KCAL/MOL
REMARK 923 INTER-LIGAND FREE ENERGY PREDICTED BY IDOCK:   -7.17 KCAL/MOL
REMARK 924 INTRA-LIGAND FREE ENERGY PREDICTED BY IDOCK:   -0.71 KCAL/MOL
REMARK 927      BINDING AFFINITY PREDICTED BY RF-SCORE:    0.00 PKD
ROOT
HETATM    1  C   UNL     1      -8.609  11.336  66.857  1.00  0.00    -0.150 C  
HETATM    2  H   UNL     1     -10.092   2.954  69.386  1.00  0.00     0.000 HD 
HETATM    3  C   UNL     1      -9.683  10.722  65.950  1.00  0.00    -0.272 C  
HETATM    4  C   UNL     1     -10.265   9.691  66.893  1.00  0.00    -0.304 C  
HETATM    5  C   UNL     1      -9.247   3.777  71.107  1.00  0.00    -0.131 C  
HETATM    6  O   UNL     1      -9.628   2.919  71.890  1.00  0.00    -0.122 OA 
HETATM    7  C   UNL     1      -6.639  10.610  68.160  1.00  0.00    -0.063 C  
HETATM    8  C   UNL     1      -9.002   9.012  67.425  1.00  0.00    -0.135 C  
HETATM    9  N   UNL     1      -9.668   3.790  69.787  1.00  0.00    -0.181 N  
HETATM   10  C   UNL     1      -7.730  10.000  67.270  1.00  0.00    -0.095 C  
HETATM   11  C   UNL     1      -9.038   7.929  68.502  1.00  0.00    -0.132 C  
HETATM   12  C   UNL     1     -10.449   7.305  68.557  1.00  0.00    -0.215 C  
HETATM   13  C   UNL     1      -6.841   8.847  66.570  1.00  0.00    -0.079 C  
HETATM   14  C   UNL     1      -6.671   7.533  67.590  1.00  0.00    -0.067 C  
HETATM   15  C   UNL     1     -10.546   6.045  69.394  1.00  0.00    -0.365 C  
HETATM   16  C   UNL     1      -8.010   6.842  68.078  1.00  0.00    -0.115 C  
HETATM   17  C   UNL     1      -9.512   4.982  68.962  1.00  0.00    -0.137 C  
HETATM   18  C   UNL     1      -7.060   4.467  68.542  1.00  0.00    -0.053 C  
HETATM   19  C   UNL     1      -8.039   5.554  69.046  1.00  0.00    -0.095 C  
HETATM   20  C   UNL     1      -7.778   5.699  70.564  1.00  0.00    -0.094 C  
HETATM   21  C   UNL     1      -8.351   4.893  71.501  1.00  0.00    -0.113 C  
ENDROOT
BRANCH   1  22
HETATM   22  C   UNL     1      -8.893  12.971  66.965  1.00  0.00    -0.212 C  
HETATM   23  N   UNL     1      -8.767  13.718  68.126  1.00  0.00    -0.177 N  
HETATM   24  O   UNL     1      -9.422  13.511  65.969  1.00  0.00    -0.208 OA 
HETATM   25  H   UNL     1      -8.222  13.300  68.880  1.00  0.00     0.000 HD 
BRANCH  23  26
HETATM   26  C   UNL     1      -9.342  15.064  68.388  1.00  0.00    -0.193 A  
HETATM   27  C   UNL     1     -10.646  15.219  68.928  1.00  0.00    -0.242 A  
HETATM   28  F   UNL     1      -7.317  18.727  67.401  1.00  0.00    -0.216 F  
HETATM   29  F   UNL     1     -12.749  14.151  68.644  1.00  0.00    -0.148 F  
HETATM   30  F   UNL     1     -11.872  14.085  70.630  1.00  0.00    -0.346 F  
HETATM   31  F   UNL     1     -11.061  12.841  69.033  1.00  0.00    -0.259 F  
HETATM   32  F   UNL     1      -8.384  19.689  69.038  1.00  0.00    -0.383 F  
HETATM   33  F   UNL     1      -9.270  19.613  67.050  1.00  0.00    -0.334 F  
HETATM   34  C   UNL     1     -11.200  16.508  69.167  1.00  0.00    -0.221 A  
HETATM   35  C   UNL     1     -10.514  17.679  68.862  1.00  0.00    -0.256 A  
HETATM   36  C   UNL     1      -8.554  18.880  67.949  1.00  0.00    -0.294 C  
HETATM   37  C   UNL     1      -9.244  17.583  68.305  1.00  0.00    -0.277 A  
HETATM   38  C   UNL     1      -8.670  16.278  68.079  1.00  0.00    -0.178 A  
HETATM   39  C   UNL     1     -11.564  14.081  69.302  1.00  0.00    -0.309 C  
ENDBRANCH  23  26
ENDBRANCH   1  22
TORSDOF 2
ENDMDL
MODEL       54
REMARK 921   NORMALIZED FREE ENERGY PREDICTED BY IDOCK:   -6.47 KCAL/MOL
REMARK 922        TOTAL FREE ENERGY PREDICTED BY IDOCK:   -7.86 KCAL/MOL
REMARK 923 INTER-LIGAND FREE ENERGY PREDICTED BY IDOCK:   -7.24 KCAL/MOL
REMARK 924 INTRA-LIGAND FREE ENERGY PREDICTED BY IDOCK:   -0.62 KCAL/MOL
REMARK 927      BINDING AFFINITY PREDICTED BY RF-SCORE:    0.00 PKD
ROOT
HETATM    1  C   UNL     1      -9.384  10.340  67.264  1.00  0.00    -0.169 C  
HETATM    2  H   UNL     1      -8.845   1.778  69.556  1.00  0.00     0.000 HD 
HETATM    3  C   UNL     1     -10.114   9.493  66.212  1.00  0.00    -0.327 C  
HETATM    4  C   UNL     1     -10.514   8.306  67.062  1.00  0.00    -0.384 C  
HETATM    5  C   UNL     1      -8.504   2.731  71.380  1.00  0.00    -0.063 C  
HETATM    6  O   UNL     1      -8.739   1.772  72.101  1.00  0.00    -0.065 OA 
HETATM    7  C   UNL     1      -7.490  10.126  68.836  1.00  0.00    -0.086 C  
HETATM    8  C   UNL     1      -9.199   7.976  67.770  1.00  0.00    -0.142 C  
HETATM    9  N   UNL     1      -8.726   2.681  70.013  1.00  0.00    -0.063 N  
HETATM   10  C   UNL     1      -8.239   9.277  67.799  1.00  0.00    -0.115 C  
HETATM   11  C   UNL     1      -9.085   6.882  68.831  1.00  0.00    -0.134 C  
HETATM   12  C   UNL     1     -10.264   5.898  68.683  1.00  0.00    -0.243 C  
HETATM   13  C   UNL     1      -6.980   8.437  67.234  1.00  0.00    -0.075 C  
HETATM   14  C   UNL     1      -6.598   7.180  68.267  1.00  0.00    -0.049 C  
HETATM   15  C   UNL     1     -10.126   4.627  69.498  1.00  0.00    -0.212 C  
HETATM   16  C   UNL     1      -7.750   6.133  68.559  1.00  0.00    -0.100 C  
HETATM   17  C   UNL     1      -8.791   3.902  69.219  1.00  0.00    -0.093 C  
HETATM   18  C   UNL     1      -6.258   4.089  69.155  1.00  0.00    -0.028 C  
HETATM   19  C   UNL     1      -7.557   4.849  69.513  1.00  0.00    -0.056 C  
HETATM   20  C   UNL     1      -7.558   5.000  71.053  1.00  0.00    -0.082 C  
HETATM   21  C   UNL     1      -8.012   4.032  71.898  1.00  0.00    -0.079 C  
ENDROOT
BRANCH   1  22
HETATM   22  C   UNL     1     -10.119  11.830  67.330  1.00  0.00    -0.192 C  
HETATM   23  N   UNL     1      -9.709  12.876  68.143  1.00  0.00    -0.224 N  
HETATM   24  O   UNL     1     -11.212  11.939  66.731  1.00  0.00    -0.294 OA 
HETATM   25  H   UNL     1      -8.762  12.817  68.517  1.00  0.00     0.000 HD 
BRANCH  23  26
HETATM   26  C   UNL     1     -10.504  14.072  68.526  1.00  0.00    -0.249 A  
HETATM   27  C   UNL     1     -10.408  15.288  67.801  1.00  0.00    -0.244 A  
HETATM   28  F   UNL     1     -13.076  14.189  71.972  1.00  0.00    -0.376 F  
HETATM   29  F   UNL     1      -8.662  16.527  66.772  1.00  0.00    -0.189 F  
HETATM   30  F   UNL     1     -10.258  15.818  65.481  1.00  0.00    -0.313 F  
HETATM   31  F   UNL     1      -8.770  14.421  66.251  1.00  0.00    -0.192 F  
HETATM   32  F   UNL     1     -14.300  15.661  70.934  1.00  0.00    -0.420 F  
HETATM   33  F   UNL     1     -12.607  16.305  72.143  1.00  0.00    -0.493 F  
HETATM   34  C   UNL     1     -11.160  16.437  68.176  1.00  0.00    -0.320 A  
HETATM   35  C   UNL     1     -12.005  16.441  69.281  1.00  0.00     0.239 A  
HETATM   36  C   UNL     1     -13.010  15.348  71.260  1.00  0.00    -0.473 C  
HETATM   37  C   UNL     1     -12.116  15.283  70.043  1.00  0.00    -0.386 A  
HETATM   38  C   UNL     1     -11.369  14.111  69.655  1.00  0.00    -0.289 A  
HETATM   39  C   UNL     1      -9.531  15.502  66.590  1.00  0.00    -0.259 C  
ENDBRANCH  23  26
ENDBRANCH   1  22
TORSDOF 2
ENDMDL
MODEL       55
REMARK 921   NORMALIZED FREE ENERGY PREDICTED BY IDOCK:   -6.43 KCAL/MOL
REMARK 922        TOTAL FREE ENERGY PREDICTED BY IDOCK:   -7.81 KCAL/MOL
REMARK 923 INTER-LIGAND FREE ENERGY PREDICTED BY IDOCK:   -7.16 KCAL/MOL
REMARK 924 INTRA-LIGAND FREE ENERGY PREDICTED BY IDOCK:   -0.65 KCAL/MOL
REMARK 927      BINDING AFFINITY PREDICTED BY RF-SCORE:    0.00 PKD
ROOT
HETATM    1  C   UNL     1     -10.541  10.933  68.321  1.00  0.00    -0.223 C  
HETATM    2  H   UNL     1     -10.518   3.536  73.233  1.00  0.00     0.000 HD 
HETATM    3  C   UNL     1     -11.910  10.777  68.997  1.00  0.00    -0.325 C  
HETATM    4  C   UNL     1     -11.508   9.984  70.223  1.00  0.00    -0.372 C  
HETATM    5  C   UNL     1      -8.478   3.938  73.056  1.00  0.00    -0.095 C  
HETATM    6  O   UNL     1      -8.103   3.242  73.988  1.00  0.00    -0.069 OA 
HETATM    7  C   UNL     1      -8.711   9.505  67.476  1.00  0.00    -0.126 C  
HETATM    8  C   UNL     1     -10.646   8.881  69.608  1.00  0.00    -0.230 C  
HETATM    9  N   UNL     1      -9.825   4.150  72.807  1.00  0.00    -0.139 N  
HETATM   10  C   UNL     1     -10.070   9.357  68.173  1.00  0.00    -0.215 C  
HETATM   11  C   UNL     1      -9.911   7.841  70.452  1.00  0.00    -0.183 C  
HETATM   12  C   UNL     1     -10.562   7.758  71.848  1.00  0.00    -0.270 C  
HETATM   13  C   UNL     1     -10.551   7.992  67.457  1.00  0.00    -0.302 C  
HETATM   14  C   UNL     1      -9.826   6.665  68.171  1.00  0.00    -0.135 C  
HETATM   15  C   UNL     1     -10.100   6.584  72.688  1.00  0.00    -0.190 C  
HETATM   16  C   UNL     1     -10.076   6.477  69.723  1.00  0.00    -0.207 C  
HETATM   17  C   UNL     1     -10.265   5.240  71.944  1.00  0.00    -0.207 C  
HETATM   18  C   UNL     1      -9.730   3.903  69.851  1.00  0.00    -0.235 C  
HETATM   19  C   UNL     1      -9.474   5.247  70.573  1.00  0.00    -0.222 C  
HETATM   20  C   UNL     1      -7.986   5.232  70.998  1.00  0.00    -0.103 C  
HETATM   21  C   UNL     1      -7.543   4.647  72.146  1.00  0.00    -0.083 C  
ENDROOT
BRANCH   1  22
HETATM   22  C   UNL     1     -10.246  12.557  68.117  1.00  0.00    -0.231 C  
HETATM   23  N   UNL     1      -9.276  13.083  67.277  1.00  0.00    -0.205 N  
HETATM   24  O   UNL     1     -10.826  13.332  68.909  1.00  0.00    -0.243 OA 
HETATM   25  H   UNL     1      -8.910  12.459  66.558  1.00  0.00     0.000 HD 
BRANCH  23  26
HETATM   26  C   UNL     1      -8.714  14.459  67.315  1.00  0.00    -0.215 A  
HETATM   27  C   UNL     1      -7.354  14.693  67.649  1.00  0.00    -0.204 A  
HETATM   28  F   UNL     1     -11.072  17.990  66.636  1.00  0.00    -0.173 F  
HETATM   29  F   UNL     1      -5.800  13.796  69.205  1.00  0.00    -0.077 F  
HETATM   30  F   UNL     1      -5.308  13.599  67.099  1.00  0.00     0.092 F  
HETATM   31  F   UNL     1      -6.864  12.351  67.982  1.00  0.00    -0.066 F  
HETATM   32  F   UNL     1      -9.276  18.975  65.895  1.00  0.00    -0.300 F  
HETATM   33  F   UNL     1      -9.757  19.031  68.018  1.00  0.00    -0.321 F  
HETATM   34  C   UNL     1      -6.819  16.011  67.697  1.00  0.00    -0.184 A  
HETATM   35  C   UNL     1      -7.598  17.137  67.448  1.00  0.00    -0.188 A  
HETATM   36  C   UNL     1      -9.761  18.218  66.925  1.00  0.00    -0.315 C  
HETATM   37  C   UNL     1      -8.943  16.965  67.143  1.00  0.00    -0.219 A  
HETATM   38  C   UNL     1      -9.485  15.629  67.074  1.00  0.00    -0.236 A  
HETATM   39  C   UNL     1      -6.350  13.615  67.979  1.00  0.00    -0.139 C  
ENDBRANCH  23  26
ENDBRANCH   1  22
TORSDOF 2
ENDMDL
MODEL       56
REMARK 921   NORMALIZED FREE ENERGY PREDICTED BY IDOCK:   -6.37 KCAL/MOL
REMARK 922        TOTAL FREE ENERGY PREDICTED BY IDOCK:   -7.75 KCAL/MOL
REMARK 923 INTER-LIGAND FREE ENERGY PREDICTED BY IDOCK:   -7.53 KCAL/MOL
REMARK 924 INTRA-LIGAND FREE ENERGY PREDICTED BY IDOCK:   -0.22 KCAL/MOL
REMARK 927      BINDING AFFINITY PREDICTED BY RF-SCORE:    0.00 PKD
ROOT
HETATM    1  C   UNL     1      -8.761  12.456  68.492  1.00  0.00    -0.060 C  
HETATM    2  H   UNL     1      -7.938  20.979  66.139  1.00  0.00     0.000 HD 
HETATM    3  C   UNL     1     -10.042  13.208  68.878  1.00  0.00     0.023 C  
HETATM    4  C   UNL     1     -10.016  14.316  67.847  1.00  0.00    -0.230 C  
HETATM    5  C   UNL     1      -6.527  20.057  64.908  1.00  0.00    -0.281 C  
HETATM    6  O   UNL     1      -6.415  20.965  64.097  1.00  0.00    -0.327 OA 
HETATM    7  C   UNL     1      -6.346  12.909  68.232  1.00  0.00    -0.085 C  
HETATM    8  C   UNL     1      -8.576  14.816  67.967  1.00  0.00    -0.166 C  
HETATM    9  N   UNL     1      -7.486  20.094  65.908  1.00  0.00    -0.292 N  
HETATM   10  C   UNL     1      -7.634  13.660  68.595  1.00  0.00    -0.115 C  
HETATM   11  C   UNL     1      -8.000  15.900  67.057  1.00  0.00    -0.270 C  
HETATM   12  C   UNL     1      -9.153  16.714  66.434  1.00  0.00    -0.325 C  
HETATM   13  C   UNL     1      -7.013  14.673  69.688  1.00  0.00    -0.149 C  
HETATM   14  C   UNL     1      -6.250  15.957  68.936  1.00  0.00    -0.120 C  
HETATM   15  C   UNL     1      -8.715  17.981  65.725  1.00  0.00     0.369 C  
HETATM   16  C   UNL     1      -7.140  16.830  67.960  1.00  0.00    -0.159 C  
HETATM   17  C   UNL     1      -7.857  18.887  66.636  1.00  0.00    -0.259 C  
HETATM   18  C   UNL     1      -5.801  19.053  68.118  1.00  0.00    -0.215 C  
HETATM   19  C   UNL     1      -6.581  18.116  67.166  1.00  0.00    -0.200 C  
HETATM   20  C   UNL     1      -5.696  17.946  65.908  1.00  0.00    -0.233 C  
HETATM   21  C   UNL     1      -5.693  18.829  64.871  1.00  0.00    -0.290 C  
ENDROOT
BRANCH   1  22
HETATM   22  C   UNL     1      -9.166  10.877  68.161  1.00  0.00    -0.158 C  
HETATM   23  N   UNL     1     -10.258  10.215  68.699  1.00  0.00    -0.168 N  
HETATM   24  O   UNL     1      -8.324  10.209  67.522  1.00  0.00    -0.118 OA 
HETATM   25  H   UNL     1     -10.990  10.798  69.105  1.00  0.00     0.000 HD 
BRANCH  23  26
HETATM   26  C   UNL     1     -10.474   8.744  68.748  1.00  0.00    -0.191 A  
HETATM   27  C   UNL     1     -11.022   8.115  69.896  1.00  0.00    -0.168 A  
HETATM   28  F   UNL     1      -9.326   6.086  65.569  1.00  0.00    -0.119 F  
HETATM   29  F   UNL     1     -10.802   8.365  72.248  1.00  0.00    -0.324 F  
HETATM   30  F   UNL     1     -12.779   8.678  71.406  1.00  0.00    -0.309 F  
HETATM   31  F   UNL     1     -11.223  10.180  71.133  1.00  0.00    -0.395 F  
HETATM   32  F   UNL     1     -10.936   4.753  66.182  1.00  0.00    -0.333 F  
HETATM   33  F   UNL     1      -8.962   4.569  67.083  1.00  0.00    -0.110 F  
HETATM   34  C   UNL     1     -11.217   6.706  69.947  1.00  0.00    -0.421 A  
HETATM   35  C   UNL     1     -10.860   5.869  68.893  1.00  0.00    -0.373 A  
HETATM   36  C   UNL     1      -9.880   5.481  66.655  1.00  0.00    -0.170 C  
HETATM   37  C   UNL     1     -10.294   6.432  67.755  1.00  0.00    -0.238 A  
HETATM   38  C   UNL     1     -10.112   7.862  67.692  1.00  0.00    -0.262 A  
HETATM   39  C   UNL     1     -11.449   8.835  71.152  1.00  0.00    -0.286 C  
ENDBRANCH  23  26
ENDBRANCH   1  22
TORSDOF 2
ENDMDL
MODEL       57
REMARK 921   NORMALIZED FREE ENERGY PREDICTED BY IDOCK:   -6.37 KCAL/MOL
REMARK 922        TOTAL FREE ENERGY PREDICTED BY IDOCK:   -7.75 KCAL/MOL
REMARK 923 INTER-LIGAND FREE ENERGY PREDICTED BY IDOCK:   -7.11 KCAL/MOL
REMARK 924 INTRA-LIGAND FREE ENERGY PREDICTED BY IDOCK:   -0.63 KCAL/MOL
REMARK 927      BINDING AFFINITY PREDICTED BY RF-SCORE:    0.00 PKD
ROOT
HETATM    1  C   UNL     1      -9.835   9.823  66.796  1.00  0.00    -0.265 C  
HETATM    2  H   UNL     1     -10.458  18.671  66.391  1.00  0.00     0.000 HD 
HETATM    3  C   UNL     1     -10.494  10.218  65.467  1.00  0.00    -0.139 C  
HETATM    4  C   UNL     1      -9.895  11.595  65.277  1.00  0.00    -0.279 C  
HETATM    5  C   UNL     1      -8.943  18.413  67.802  1.00  0.00    -0.281 C  
HETATM    6  O   UNL     1      -8.480  19.543  67.740  1.00  0.00    -0.299 OA 
HETATM    7  C   UNL     1      -9.662  10.670  69.110  1.00  0.00    -0.205 C  
HETATM    8  C   UNL     1     -10.128  12.225  66.651  1.00  0.00    -0.231 C  
HETATM    9  N   UNL     1      -9.929  17.985  66.928  1.00  0.00    -0.323 N  
HETATM   10  C   UNL     1     -10.299  11.071  67.772  1.00  0.00    -0.218 C  
HETATM   11  C   UNL     1      -9.617  13.618  67.018  1.00  0.00    -0.251 C  
HETATM   12  C   UNL     1      -9.343  14.421  65.730  1.00  0.00    -0.004 C  
HETATM   13  C   UNL     1     -11.648  11.746  68.350  1.00  0.00    -0.380 C  
HETATM   14  C   UNL     1     -11.346  13.299  68.890  1.00  0.00    -0.333 C  
HETATM   15  C   UNL     1      -9.087  15.898  65.953  1.00  0.00    -0.304 C  
HETATM   16  C   UNL     1     -10.751  14.310  67.827  1.00  0.00    -0.253 C  
HETATM   17  C   UNL     1     -10.220  16.566  66.764  1.00  0.00    -0.295 C  
HETATM   18  C   UNL     1     -11.602  16.522  68.895  1.00  0.00    -0.037 C  
HETATM   19  C   UNL     1     -10.417  15.851  68.162  1.00  0.00    -0.270 C  
HETATM   20  C   UNL     1      -9.146  16.229  68.959  1.00  0.00    -0.255 C  
HETATM   21  C   UNL     1      -8.467  17.396  68.774  1.00  0.00    -0.225 C  
ENDROOT
BRANCH   1  22
HETATM   22  C   UNL     1      -9.006   8.400  66.560  1.00  0.00    -0.157 C  
HETATM   23  N   UNL     1      -9.522   7.284  65.920  1.00  0.00    -0.396 N  
HETATM   24  O   UNL     1      -7.914   8.287  67.158  1.00  0.00    -0.103 OA 
HETATM   25  H   UNL     1     -10.346   7.433  65.337  1.00  0.00     0.000 HD 
BRANCH  23  26
HETATM   26  C   UNL     1      -9.002   5.893  65.993  1.00  0.00    -0.151 A  
HETATM   27  C   UNL     1      -8.300   5.308  64.907  1.00  0.00    -0.144 A  
HETATM   28  F   UNL     1      -9.661   3.303  69.362  1.00  0.00    -0.229 F  
HETATM   29  F   UNL     1      -8.499   5.325  62.540  1.00  0.00    -0.095 F  
HETATM   30  F   UNL     1      -6.656   6.112  63.378  1.00  0.00    -0.030 F  
HETATM   31  F   UNL     1      -8.501   7.268  63.510  1.00  0.00    -0.026 F  
HETATM   32  F   UNL     1      -7.790   2.298  68.880  1.00  0.00    -0.049 F  
HETATM   33  F   UNL     1      -9.654   1.633  67.971  1.00  0.00    -0.208 F  
HETATM   34  C   UNL     1      -7.813   3.972  64.973  1.00  0.00    -0.089 A  
HETATM   35  C   UNL     1      -8.018   3.162  66.086  1.00  0.00    -0.085 A  
HETATM   36  C   UNL     1      -8.960   2.748  68.335  1.00  0.00    -0.145 C  
HETATM   37  C   UNL     1      -8.723   3.678  67.167  1.00  0.00    -0.126 A  
HETATM   38  C   UNL     1      -9.202   5.038  67.112  1.00  0.00    -0.124 A  
HETATM   39  C   UNL     1      -7.997   6.003  63.602  1.00  0.00    -0.108 C  
ENDBRANCH  23  26
ENDBRANCH   1  22
TORSDOF 2
ENDMDL
MODEL       58
REMARK 921   NORMALIZED FREE ENERGY PREDICTED BY IDOCK:   -6.37 KCAL/MOL
REMARK 922        TOTAL FREE ENERGY PREDICTED BY IDOCK:   -7.75 KCAL/MOL
REMARK 923 INTER-LIGAND FREE ENERGY PREDICTED BY IDOCK:   -7.15 KCAL/MOL
REMARK 924 INTRA-LIGAND FREE ENERGY PREDICTED BY IDOCK:   -0.60 KCAL/MOL
REMARK 927      BINDING AFFINITY PREDICTED BY RF-SCORE:    0.00 PKD
ROOT
HETATM    1  C   UNL     1      -9.224   8.989  67.281  1.00  0.00    -0.159 C  
HETATM    2  H   UNL     1     -11.326  17.516  68.589  1.00  0.00     0.000 HD 
HETATM    3  C   UNL     1     -10.451   9.067  68.199  1.00  0.00    -0.257 C  
HETATM    4  C   UNL     1     -11.036  10.387  67.744  1.00  0.00    -0.369 C  
HETATM    5  C   UNL     1     -10.215  17.616  66.826  1.00  0.00    -0.335 C  
HETATM    6  O   UNL     1     -10.599  18.718  66.463  1.00  0.00    -0.404 OA 
HETATM    7  C   UNL     1      -7.215  10.323  66.744  1.00  0.00    -0.105 C  
HETATM    8  C   UNL     1      -9.804  11.293  67.764  1.00  0.00    -0.186 C  
HETATM    9  N   UNL     1     -10.772  16.978  67.923  1.00  0.00    -0.362 N  
HETATM   10  C   UNL     1      -8.456  10.405  67.643  1.00  0.00    -0.114 C  
HETATM   11  C   UNL     1      -9.840  12.747  67.293  1.00  0.00    -0.207 C  
HETATM   12  C   UNL     1     -11.296  13.258  67.318  1.00  0.00    -0.347 C  
HETATM   13  C   UNL     1      -7.779  11.150  68.907  1.00  0.00    -0.137 C  
HETATM   14  C   UNL     1      -7.643  12.791  68.621  1.00  0.00    -0.085 C  
HETATM   15  C   UNL     1     -11.438  14.756  67.130  1.00  0.00    -0.375 C  
HETATM   16  C   UNL     1      -8.988  13.565  68.305  1.00  0.00    -0.180 C  
HETATM   17  C   UNL     1     -10.578  15.550  68.139  1.00  0.00    -0.266 C  
HETATM   18  C   UNL     1      -8.257  15.930  69.098  1.00  0.00    -0.240 C  
HETATM   19  C   UNL     1      -9.051  15.150  68.024  1.00  0.00    -0.180 C  
HETATM   20  C   UNL     1      -8.613  15.730  66.658  1.00  0.00    -0.322 C  
HETATM   21  C   UNL     1      -9.165  16.848  66.109  1.00  0.00    -0.270 C  
ENDROOT
BRANCH   1  22
HETATM   22  C   UNL     1      -9.316   7.574  66.411  1.00  0.00    -0.157 C  
HETATM   23  N   UNL     1     -10.045   6.459  66.795  1.00  0.00    -0.218 N  
HETATM   24  O   UNL     1      -8.533   7.464  65.442  1.00  0.00    -0.142 OA 
HETATM   25  H   UNL     1     -10.765   6.607  67.502  1.00  0.00     0.000 HD 
BRANCH  23  26
HETATM   26  C   UNL     1      -9.888   5.072  66.284  1.00  0.00    -0.200 A  
HETATM   27  C   UNL     1      -9.252   4.066  67.059  1.00  0.00    -0.186 A  
HETATM   28  F   UNL     1     -11.117   3.854  62.347  1.00  0.00    -0.179 F  
HETATM   29  F   UNL     1      -7.372   3.963  68.508  1.00  0.00    -0.053 F  
HETATM   30  F   UNL     1      -9.306   3.480  69.369  1.00  0.00    -0.178 F  
HETATM   31  F   UNL     1      -8.798   5.550  68.910  1.00  0.00    -0.106 F  
HETATM   32  F   UNL     1     -11.431   1.846  63.131  1.00  0.00    -0.258 F  
HETATM   33  F   UNL     1      -9.476   2.429  62.369  1.00  0.00    -0.089 F  
HETATM   34  C   UNL     1      -9.090   2.741  66.564  1.00  0.00    -0.144 A  
HETATM   35  C   UNL     1      -9.520   2.366  65.295  1.00  0.00     0.029 A  
HETATM   36  C   UNL     1     -10.536   2.878  63.098  1.00  0.00    -0.186 C  
HETATM   37  C   UNL     1     -10.126   3.319  64.485  1.00  0.00    -0.082 A  
HETATM   38  C   UNL     1     -10.308   4.659  64.990  1.00  0.00     0.003 A  
HETATM   39  C   UNL     1      -8.691   4.272  68.445  1.00  0.00    -0.098 C  
ENDBRANCH  23  26
ENDBRANCH   1  22
TORSDOF 2
ENDMDL
MODEL       59
REMARK 921   NORMALIZED FREE ENERGY PREDICTED BY IDOCK:   -6.27 KCAL/MOL
REMARK 922        TOTAL FREE ENERGY PREDICTED BY IDOCK:   -7.64 KCAL/MOL
REMARK 923 INTER-LIGAND FREE ENERGY PREDICTED BY IDOCK:   -7.04 KCAL/MOL
REMARK 924 INTRA-LIGAND FREE ENERGY PREDICTED BY IDOCK:   -0.60 KCAL/MOL
REMARK 927      BINDING AFFINITY PREDICTED BY RF-SCORE:    0.00 PKD
ROOT
HETATM    1  C   UNL     1      -9.333   9.924  67.996  1.00  0.00    -0.140 C  
HETATM    2  H   UNL     1      -5.796   2.755  64.131  1.00  0.00     0.000 HD 
HETATM    3  C   UNL     1      -7.894  10.244  67.570  1.00  0.00    -0.102 C  
HETATM    4  C   UNL     1      -7.745   9.285  66.408  1.00  0.00    -0.093 C  
HETATM    5  C   UNL     1      -7.840   2.383  63.932  1.00  0.00    -0.072 C  
HETATM    6  O   UNL     1      -7.758   1.542  63.049  1.00  0.00    -0.051 OA 
HETATM    7  C   UNL     1     -10.669   7.976  68.718  1.00  0.00    -0.078 C  
HETATM    8  C   UNL     1      -8.264   7.981  67.016  1.00  0.00    -0.116 C  
HETATM    9  N   UNL     1      -6.730   3.094  64.361  1.00  0.00    -0.035 N  
HETATM   10  C   UNL     1      -9.237   8.298  68.269  1.00  0.00    -0.135 C  
HETATM   11  C   UNL     1      -8.408   6.693  66.207  1.00  0.00    -0.125 C  
HETATM   12  C   UNL     1      -7.512   6.771  64.953  1.00  0.00    -0.094 C  
HETATM   13  C   UNL     1      -8.454   7.254  69.221  1.00  0.00    -0.133 C  
HETATM   14  C   UNL     1      -8.512   5.712  68.578  1.00  0.00    -0.105 C  
HETATM   15  C   UNL     1      -7.359   5.459  64.208  1.00  0.00    -0.057 C  
HETATM   16  C   UNL     1      -7.917   5.534  67.121  1.00  0.00    -0.102 C  
HETATM   17  C   UNL     1      -6.878   4.320  65.135  1.00  0.00    -0.053 C  
HETATM   18  C   UNL     1      -7.302   3.013  67.272  1.00  0.00    -0.062 C  
HETATM   19  C   UNL     1      -7.870   4.119  66.352  1.00  0.00    -0.094 C  
HETATM   20  C   UNL     1      -9.145   3.528  65.703  1.00  0.00    -0.149 C  
HETATM   21  C   UNL     1      -9.122   2.751  64.584  1.00  0.00    -0.132 C  
ENDROOT
BRANCH   1  22
HETATM   22  C   UNL     1     -10.215  11.333  67.941  1.00  0.00    -0.181 C  
HETATM   23  N   UNL     1      -9.759  12.566  68.382  1.00  0.00    -0.298 N  
HETATM   24  O   UNL     1     -11.424  11.222  67.642  1.00  0.00    -0.404 OA 
HETATM   25  H   UNL     1      -8.750  12.664  68.498  1.00  0.00     0.000 HD 
BRANCH  23  26
HETATM   26  C   UNL     1     -10.585  13.759  68.704  1.00  0.00    -0.253 A  
HETATM   27  C   UNL     1     -10.541  14.928  67.899  1.00  0.00    -0.254 A  
HETATM   28  F   UNL     1     -13.095  14.021  72.186  1.00  0.00    -0.389 F  
HETATM   29  F   UNL     1      -8.855  16.151  66.757  1.00  0.00    -0.199 F  
HETATM   30  F   UNL     1     -10.451  15.311  65.548  1.00  0.00    -0.285 F  
HETATM   31  F   UNL     1      -8.905  14.014  66.375  1.00  0.00    -0.214 F  
HETATM   32  F   UNL     1     -14.385  15.384  71.080  1.00  0.00    -0.544 F  
HETATM   33  F   UNL     1     -12.692  16.157  72.211  1.00  0.00    -0.479 F  
HETATM   34  C   UNL     1     -11.323  16.075  68.215  1.00  0.00    -0.326 A  
HETATM   35  C   UNL     1     -12.147  16.125  69.335  1.00  0.00     0.040 A  
HETATM   36  C   UNL     1     -13.080  15.133  71.400  1.00  0.00    -0.423 C  
HETATM   37  C   UNL     1     -12.207  15.017  70.171  1.00  0.00    -0.392 A  
HETATM   38  C   UNL     1     -11.430  13.845  69.845  1.00  0.00    -0.252 A  
HETATM   39  C   UNL     1      -9.694  15.090  66.660  1.00  0.00    -0.258 C  
ENDBRANCH  23  26
ENDBRANCH   1  22
TORSDOF 2
ENDMDL
MODEL       60
REMARK 921   NORMALIZED FREE ENERGY PREDICTED BY IDOCK:   -6.26 KCAL/MOL
REMARK 922        TOTAL FREE ENERGY PREDICTED BY IDOCK:   -7.63 KCAL/MOL
REMARK 923 INTER-LIGAND FREE ENERGY PREDICTED BY IDOCK:   -6.98 KCAL/MOL
REMARK 924 INTRA-LIGAND FREE ENERGY PREDICTED BY IDOCK:   -0.64 KCAL/MOL
REMARK 927      BINDING AFFINITY PREDICTED BY RF-SCORE:    0.00 PKD
ROOT
HETATM    1  C   UNL     1      -8.365  10.741  66.908  1.00  0.00    -0.132 C  
HETATM    2  H   UNL     1      -7.123   3.002  62.735  1.00  0.00     0.000 HD 
HETATM    3  C   UNL     1      -7.115  10.844  66.023  1.00  0.00    -0.067 C  
HETATM    4  C   UNL     1      -7.463   9.826  64.958  1.00  0.00    -0.127 C  
HETATM    5  C   UNL     1      -9.149   2.903  63.224  1.00  0.00    -0.094 C  
HETATM    6  O   UNL     1      -9.455   2.022  62.434  1.00  0.00    -0.089 OA 
HETATM    7  C   UNL     1      -9.609   9.024  68.175  1.00  0.00    -0.164 C  
HETATM    8  C   UNL     1      -7.903   8.631  65.806  1.00  0.00    -0.100 C  
HETATM    9  N   UNL     1      -7.886   3.474  63.219  1.00  0.00    -0.067 N  
HETATM   10  C   UNL     1      -8.374   9.130  67.271  1.00  0.00    -0.121 C  
HETATM   11  C   UNL     1      -8.448   7.341  65.194  1.00  0.00    -0.029 C  
HETATM   12  C   UNL     1      -8.005   7.244  63.719  1.00  0.00    -0.078 C  
HETATM   13  C   UNL     1      -7.450   8.030  68.010  1.00  0.00    -0.097 C  
HETATM   14  C   UNL     1      -7.890   6.484  67.549  1.00  0.00    -0.113 C  
HETATM   15  C   UNL     1      -8.254   5.894  63.077  1.00  0.00    -0.069 C  
HETATM   16  C   UNL     1      -7.824   6.166  65.999  1.00  0.00    -0.106 C  
HETATM   17  C   UNL     1      -7.633   4.740  63.895  1.00  0.00    -0.068 C  
HETATM   18  C   UNL     1      -7.488   3.593  66.157  1.00  0.00    -0.080 C  
HETATM   19  C   UNL     1      -8.192   4.727  65.375  1.00  0.00    -0.118 C  
HETATM   20  C   UNL     1      -9.667   4.288  65.215  1.00  0.00    -0.201 C  
HETATM   21  C   UNL     1     -10.099   3.468  64.215  1.00  0.00    -0.196 C  
ENDROOT
BRANCH   1  22
HETATM   22  C   UNL     1      -9.049  12.253  67.017  1.00  0.00    -0.201 C  
HETATM   23  N   UNL     1      -9.267  13.099  65.941  1.00  0.00    -0.456 N  
HETATM   24  O   UNL     1      -9.209  12.709  68.171  1.00  0.00    -0.201 OA 
HETATM   25  H   UNL     1      -9.254  12.671  65.015  1.00  0.00     0.000 HD 
BRANCH  23  26
HETATM   26  C   UNL     1      -9.520  14.563  65.994  1.00  0.00    -0.229 A  
HETATM   27  C   UNL     1     -10.783  15.109  65.644  1.00  0.00    -0.374 A  
HETATM   28  F   UNL     1      -6.491  17.444  67.003  1.00  0.00    -0.148 F  
HETATM   29  F   UNL     1     -12.427  14.680  63.984  1.00  0.00    -0.510 F  
HETATM   30  F   UNL     1     -13.037  14.449  66.055  1.00  0.00    -0.430 F  
HETATM   31  F   UNL     1     -11.749  12.958  65.121  1.00  0.00    -0.330 F  
HETATM   32  F   UNL     1      -8.063  18.741  67.770  1.00  0.00    -0.251 F  
HETATM   33  F   UNL     1      -7.494  18.838  65.671  1.00  0.00    -0.279 F  
HETATM   34  C   UNL     1     -11.021  16.512  65.683  1.00  0.00    -0.053 A  
HETATM   35  C   UNL     1     -10.030  17.422  66.038  1.00  0.00    -0.230 A  
HETATM   36  C   UNL     1      -7.709  17.970  66.698  1.00  0.00    -0.238 C  
HETATM   37  C   UNL     1      -8.767  16.942  66.364  1.00  0.00    -0.321 A  
HETATM   38  C   UNL     1      -8.527  15.519  66.344  1.00  0.00    -0.226 A  
HETATM   39  C   UNL     1     -11.980  14.300  65.207  1.00  0.00    -0.389 C  
ENDBRANCH  23  26
ENDBRANCH   1  22
TORSDOF 2
ENDMDL
MODEL       61
REMARK 921   NORMALIZED FREE ENERGY PREDICTED BY IDOCK:   -6.23 KCAL/MOL
REMARK 922        TOTAL FREE ENERGY PREDICTED BY IDOCK:   -7.59 KCAL/MOL
REMARK 923 INTER-LIGAND FREE ENERGY PREDICTED BY IDOCK:   -7.07 KCAL/MOL
REMARK 924 INTRA-LIGAND FREE ENERGY PREDICTED BY IDOCK:   -0.52 KCAL/MOL
REMARK 927      BINDING AFFINITY PREDICTED BY RF-SCORE:    0.00 PKD
ROOT
HETATM    1  C   UNL     1      -8.401  10.102  68.000  1.00  0.00    -0.117 C  
HETATM    2  H   UNL     1     -10.923  18.535  69.173  1.00  0.00     0.000 HD 
HETATM    3  C   UNL     1      -9.313  10.185  69.231  1.00  0.00    -0.227 C  
HETATM    4  C   UNL     1     -10.139  11.399  68.864  1.00  0.00    -0.166 C  
HETATM    5  C   UNL     1     -10.384  18.526  67.157  1.00  0.00    -0.399 C  
HETATM    6  O   UNL     1     -10.970  19.550  66.836  1.00  0.00    -0.462 OA 
HETATM    7  C   UNL     1      -6.784  11.519  66.784  1.00  0.00    -0.121 C  
HETATM    8  C   UNL     1      -9.057  12.393  68.443  1.00  0.00    -0.141 C  
HETATM    9  N   UNL     1     -10.531  17.971  68.418  1.00  0.00    -0.350 N  
HETATM   10  C   UNL     1      -7.715  11.604  68.001  1.00  0.00    -0.121 C  
HETATM   11  C   UNL     1      -9.380  13.780  67.888  1.00  0.00    -0.211 C  
HETATM   12  C   UNL     1     -10.812  14.178  68.302  1.00  0.00    -0.259 C  
HETATM   13  C   UNL     1      -6.785  12.531  68.941  1.00  0.00    -0.098 C  
HETATM   14  C   UNL     1      -6.910  14.137  68.495  1.00  0.00    -0.102 C  
HETATM   15  C   UNL     1     -11.159  15.631  68.043  1.00  0.00    -0.335 C  
HETATM   16  C   UNL     1      -8.363  14.766  68.530  1.00  0.00    -0.160 C  
HETATM   17  C   UNL     1     -10.133  16.594  68.682  1.00  0.00    -0.270 C  
HETATM   18  C   UNL     1      -7.688  17.253  68.875  1.00  0.00    -0.221 C  
HETATM   19  C   UNL     1      -8.671  16.303  68.153  1.00  0.00    -0.182 C  
HETATM   20  C   UNL     1      -8.709  16.762  66.675  1.00  0.00    -0.281 C  
HETATM   21  C   UNL     1      -9.510  17.768  66.226  1.00  0.00    -0.232 C  
ENDROOT
BRANCH   1  22
HETATM   22  C   UNL     1      -8.591   8.597  67.315  1.00  0.00    -0.125 C  
HETATM   23  N   UNL     1      -9.529   7.660  67.719  1.00  0.00    -0.141 N  
HETATM   24  O   UNL     1      -7.709   8.240  66.504  1.00  0.00    -0.090 OA 
HETATM   25  H   UNL     1     -10.308   8.007  68.279  1.00  0.00     0.000 HD 
BRANCH  23  26
HETATM   26  C   UNL     1      -9.520   6.204  67.422  1.00  0.00    -0.114 A  
HETATM   27  C   UNL     1      -9.450   5.238  68.460  1.00  0.00    -0.166 A  
HETATM   28  F   UNL     1      -9.495   4.612  63.427  1.00  0.00    -0.141 F  
HETATM   29  F   UNL     1      -8.294   5.030  70.524  1.00  0.00    -0.092 F  
HETATM   30  F   UNL     1     -10.464   5.049  70.610  1.00  0.00    -0.309 F  
HETATM   31  F   UNL     1      -9.367   6.893  70.216  1.00  0.00    -0.159 F  
HETATM   32  F   UNL     1     -10.517   2.846  64.188  1.00  0.00    -0.165 F  
HETATM   33  F   UNL     1      -8.342   2.936  64.193  1.00  0.00    -0.084 F  
HETATM   34  C   UNL     1      -9.429   3.843  68.174  1.00  0.00    -0.219 A  
HETATM   35  C   UNL     1      -9.447   3.353  66.872  1.00  0.00    -0.174 A  
HETATM   36  C   UNL     1      -9.460   3.681  64.420  1.00  0.00    -0.154 C  
HETATM   37  C   UNL     1      -9.487   4.257  65.817  1.00  0.00    -0.176 A  
HETATM   38  C   UNL     1      -9.528   5.671  66.103  1.00  0.00    -0.157 A  
HETATM   39  C   UNL     1      -9.395   5.559  69.933  1.00  0.00    -0.147 C  
ENDBRANCH  23  26
ENDBRANCH   1  22
TORSDOF 2
ENDMDL
MODEL       62
REMARK 921   NORMALIZED FREE ENERGY PREDICTED BY IDOCK:   -6.21 KCAL/MOL
REMARK 922        TOTAL FREE ENERGY PREDICTED BY IDOCK:   -7.56 KCAL/MOL
REMARK 923 INTER-LIGAND FREE ENERGY PREDICTED BY IDOCK:   -7.26 KCAL/MOL
REMARK 924 INTRA-LIGAND FREE ENERGY PREDICTED BY IDOCK:   -0.31 KCAL/MOL
REMARK 927      BINDING AFFINITY PREDICTED BY RF-SCORE:    0.00 PKD
ROOT
HETATM    1  C   UNL     1      -8.523  11.625  66.693  1.00  0.00    -0.165 C  
HETATM    2  H   UNL     1      -9.769   2.842  67.086  1.00  0.00     0.000 HD 
HETATM    3  C   UNL     1      -9.225  11.161  65.410  1.00  0.00    -0.225 C  
HETATM    4  C   UNL     1      -9.938   9.932  65.931  1.00  0.00    -0.347 C  
HETATM    5  C   UNL     1      -9.538   3.331  69.101  1.00  0.00    -0.030 C  
HETATM    6  O   UNL     1     -10.032   2.314  69.564  1.00  0.00     0.220 OA 
HETATM    7  C   UNL     1      -6.938  10.740  68.369  1.00  0.00    -0.070 C  
HETATM    8  C   UNL     1      -8.813   9.218  66.682  1.00  0.00    -0.146 C  
HETATM    9  N   UNL     1      -9.566   3.597  67.741  1.00  0.00    -0.174 N  
HETATM   10  C   UNL     1      -7.661  10.275  67.098  1.00  0.00    -0.092 C  
HETATM   11  C   UNL     1      -9.039   7.936  67.483  1.00  0.00    -0.141 C  
HETATM   12  C   UNL     1     -10.333   7.249  66.999  1.00  0.00    -0.376 C  
HETATM   13  C   UNL     1      -6.494   9.334  66.497  1.00  0.00    -0.067 C  
HETATM   14  C   UNL     1      -6.482   7.848  67.263  1.00  0.00    -0.056 C  
HETATM   15  C   UNL     1     -10.530   5.840  67.524  1.00  0.00    -0.310 C  
HETATM   16  C   UNL     1      -7.824   7.010  67.194  1.00  0.00    -0.109 C  
HETATM   17  C   UNL     1      -9.309   4.938  67.234  1.00  0.00    -0.131 C  
HETATM   18  C   UNL     1      -6.799   4.637  67.478  1.00  0.00    -0.059 C  
HETATM   19  C   UNL     1      -7.989   5.550  67.856  1.00  0.00    -0.097 C  
HETATM   20  C   UNL     1      -8.187   5.392  69.383  1.00  0.00    -0.096 C  
HETATM   21  C   UNL     1      -8.913   4.384  69.942  1.00  0.00    -0.147 C  
ENDROOT
BRANCH   1  22
HETATM   22  C   UNL     1      -8.997  13.188  67.008  1.00  0.00    -0.228 C  
HETATM   23  N   UNL     1      -8.445  14.314  66.417  1.00  0.00    -0.330 N  
HETATM   24  O   UNL     1      -9.782  13.348  67.969  1.00  0.00    -0.209 OA 
HETATM   25  H   UNL     1      -7.911  14.163  65.561  1.00  0.00     0.000 HD 
BRANCH  23  26
HETATM   26  C   UNL     1      -8.549  15.716  66.900  1.00  0.00    -0.248 A  
HETATM   27  C   UNL     1      -7.844  16.156  68.051  1.00  0.00    -0.150 A  
HETATM   28  F   UNL     1     -11.110  18.653  65.082  1.00  0.00    -0.365 F  
HETATM   29  F   UNL     1      -7.319  15.246  70.182  1.00  0.00    -0.158 F  
HETATM   30  F   UNL     1      -5.648  15.761  68.893  1.00  0.00    -0.100 F  
HETATM   31  F   UNL     1      -6.853  13.993  68.470  1.00  0.00    -0.082 F  
HETATM   32  F   UNL     1      -9.721  20.192  65.751  1.00  0.00    -0.476 F  
HETATM   33  F   UNL     1     -11.343  19.544  67.051  1.00  0.00    -0.515 F  
HETATM   34  C   UNL     1      -7.953  17.495  68.520  1.00  0.00    -0.271 A  
HETATM   35  C   UNL     1      -8.770  18.434  67.899  1.00  0.00    -0.296 A  
HETATM   36  C   UNL     1     -10.412  19.088  66.167  1.00  0.00    -0.467 C  
HETATM   37  C   UNL     1      -9.503  18.048  66.783  1.00  0.00    -0.293 A  
HETATM   38  C   UNL     1      -9.381  16.696  66.292  1.00  0.00    -0.323 A  
HETATM   39  C   UNL     1      -6.929  15.291  68.884  1.00  0.00    -0.125 C  
ENDBRANCH  23  26
ENDBRANCH   1  22
TORSDOF 2
ENDMDL
MODEL       63
REMARK 921   NORMALIZED FREE ENERGY PREDICTED BY IDOCK:   -6.20 KCAL/MOL
REMARK 922        TOTAL FREE ENERGY PREDICTED BY IDOCK:   -7.56 KCAL/MOL
REMARK 923 INTER-LIGAND FREE ENERGY PREDICTED BY IDOCK:   -6.99 KCAL/MOL
REMARK 924 INTRA-LIGAND FREE ENERGY PREDICTED BY IDOCK:   -0.57 KCAL/MOL
REMARK 927      BINDING AFFINITY PREDICTED BY RF-SCORE:    0.00 PKD
ROOT
HETATM    1  C   UNL     1     -10.054  10.192  65.982  1.00  0.00    -0.317 C  
HETATM    2  H   UNL     1     -10.742  18.948  67.285  1.00  0.00     0.000 HD 
HETATM    3  C   UNL     1     -10.908  10.799  64.861  1.00  0.00    -0.055 C  
HETATM    4  C   UNL     1     -10.347  12.205  64.836  1.00  0.00    -0.321 C  
HETATM    5  C   UNL     1      -9.029  18.486  68.383  1.00  0.00    -0.322 C  
HETATM    6  O   UNL     1      -8.583  19.621  68.458  1.00  0.00    -0.345 OA 
HETATM    7  C   UNL     1      -9.531  10.616  68.359  1.00  0.00    -0.165 C  
HETATM    8  C   UNL     1     -10.368  12.571  66.320  1.00  0.00    -0.269 C  
HETATM    9  N   UNL     1     -10.136  18.192  67.603  1.00  0.00    -0.341 N  
HETATM   10  C   UNL     1     -10.365  11.231  67.227  1.00  0.00    -0.236 C  
HETATM   11  C   UNL     1      -9.809  13.890  66.853  1.00  0.00    -0.268 C  
HETATM   12  C   UNL     1      -9.735  14.918  65.705  1.00  0.00    -0.359 C  
HETATM   13  C   UNL     1     -11.611  11.752  68.113  1.00  0.00    -0.391 C  
HETATM   14  C   UNL     1     -11.232  13.192  68.873  1.00  0.00    -0.324 C  
HETATM   15  C   UNL     1      -9.450  16.339  66.152  1.00  0.00    -0.373 C  
HETATM   16  C   UNL     1     -10.807  14.394  67.934  1.00  0.00    -0.256 C  
HETATM   17  C   UNL     1     -10.447  16.818  67.231  1.00  0.00    -0.310 C  
HETATM   18  C   UNL     1     -11.488  16.354  69.501  1.00  0.00    -0.124 C  
HETATM   19  C   UNL     1     -10.428  15.859  68.489  1.00  0.00    -0.241 C  
HETATM   20  C   UNL     1      -9.050  16.125  69.142  1.00  0.00    -0.243 C  
HETATM   21  C   UNL     1      -8.409  17.325  69.072  1.00  0.00    -0.090 C  
ENDROOT
BRANCH   1  22
HETATM   22  C   UNL     1      -9.269   8.858  65.371  1.00  0.00    -0.136 C  
HETATM   23  N   UNL     1      -9.293   7.597  65.946  1.00  0.00    -0.398 N  
HETATM   24  O   UNL     1      -8.470   9.065  64.431  1.00  0.00    -0.173 OA 
HETATM   25  H   UNL     1     -10.037   7.419  66.621  1.00  0.00     0.000 HD 
BRANCH  23  26
HETATM   26  C   UNL     1      -8.350   6.479  65.683  1.00  0.00    -0.144 A  
HETATM   27  C   UNL     1      -7.094   6.400  66.340  1.00  0.00    -0.068 A  
HETATM   28  F   UNL     1      -9.100   3.395  62.780  1.00  0.00    -0.091 F  
HETATM   29  F   UNL     1      -5.406   7.941  66.985  1.00  0.00    -0.027 F  
HETATM   30  F   UNL     1      -6.371   6.818  68.574  1.00  0.00    -0.026 F  
HETATM   31  F   UNL     1      -7.432   8.444  67.581  1.00  0.00    -0.087 F  
HETATM   32  F   UNL     1      -7.884   2.048  63.985  1.00  0.00    -0.060 F  
HETATM   33  F   UNL     1      -6.952   3.293  62.460  1.00  0.00    -0.028 F  
HETATM   34  C   UNL     1      -6.187   5.335  66.079  1.00  0.00    -0.034 A  
HETATM   35  C   UNL     1      -6.464   4.335  65.152  1.00  0.00    -0.036 A  
HETATM   36  C   UNL     1      -7.908   3.298  63.431  1.00  0.00    -0.069 C  
HETATM   37  C   UNL     1      -7.669   4.380  64.460  1.00  0.00    -0.081 A  
HETATM   38  C   UNL     1      -8.600   5.447  64.736  1.00  0.00    -0.117 A  
HETATM   39  C   UNL     1      -6.590   7.395  67.357  1.00  0.00    -0.061 C  
ENDBRANCH  23  26
ENDBRANCH   1  22
TORSDOF 2
ENDMDL
MODEL       64
REMARK 921   NORMALIZED FREE ENERGY PREDICTED BY IDOCK:   -6.07 KCAL/MOL
REMARK 922        TOTAL FREE ENERGY PREDICTED BY IDOCK:   -7.41 KCAL/MOL
REMARK 923 INTER-LIGAND FREE ENERGY PREDICTED BY IDOCK:   -6.84 KCAL/MOL
REMARK 924 INTRA-LIGAND FREE ENERGY PREDICTED BY IDOCK:   -0.57 KCAL/MOL
REMARK 927      BINDING AFFINITY PREDICTED BY RF-SCORE:    0.00 PKD
ROOT
HETATM    1  C   UNL     1      -9.301  11.678  66.175  1.00  0.00    -0.237 C  
HETATM    2  H   UNL     1      -8.864   2.825  65.645  1.00  0.00     0.000 HD 
HETATM    3  C   UNL     1     -10.527  11.161  65.410  1.00  0.00    -0.321 C  
HETATM    4  C   UNL     1     -10.645   9.776  66.009  1.00  0.00     0.048 C  
HETATM    5  C   UNL     1      -7.619   3.217  67.272  1.00  0.00    -0.074 C  
HETATM    6  O   UNL     1      -7.621   2.090  67.743  1.00  0.00    -0.054 OA 
HETATM    7  C   UNL     1      -6.945  11.042  66.559  1.00  0.00    -0.138 C  
HETATM    8  C   UNL     1      -9.206   9.271  65.905  1.00  0.00    -0.277 C  
HETATM    9  N   UNL     1      -8.438   3.560  66.208  1.00  0.00    -0.109 N  
HETATM   10  C   UNL     1      -8.181  10.519  65.815  1.00  0.00    -0.160 C  
HETATM   11  C   UNL     1      -8.763   7.919  66.465  1.00  0.00    -0.162 C  
HETATM   12  C   UNL     1      -9.994   7.006  66.638  1.00  0.00    -0.224 C  
HETATM   13  C   UNL     1      -7.430   9.890  64.531  1.00  0.00    -0.140 C  
HETATM   14  C   UNL     1      -6.783   8.394  64.900  1.00  0.00    -0.067 C  
HETATM   15  C   UNL     1      -9.664   5.556  66.934  1.00  0.00    -0.163 C  
HETATM   16  C   UNL     1      -7.801   7.295  65.415  1.00  0.00    -0.118 C  
HETATM   17  C   UNL     1      -8.701   4.956  65.884  1.00  0.00    -0.127 C  
HETATM   18  C   UNL     1      -6.470   5.182  64.691  1.00  0.00    -0.035 C  
HETATM   19  C   UNL     1      -7.360   5.792  65.798  1.00  0.00    -0.076 C  
HETATM   20  C   UNL     1      -6.647   5.495  67.139  1.00  0.00    -0.057 C  
HETATM   21  C   UNL     1      -6.786   4.321  67.815  1.00  0.00    -0.052 C  
ENDROOT
BRANCH   1  22
HETATM   22  C   UNL     1      -9.733  13.079  66.961  1.00  0.00    -0.235 C  
HETATM   23  N   UNL     1      -9.555  13.310  68.316  1.00  0.00    -0.225 N  
HETATM   24  O   UNL     1     -10.419  13.895  66.306  1.00  0.00    -0.278 OA 
HETATM   25  H   UNL     1      -8.891  12.703  68.798  1.00  0.00     0.000 HD 
BRANCH  23  26
HETATM   26  C   UNL     1     -10.228  14.348  69.140  1.00  0.00    -0.127 A  
HETATM   27  C   UNL     1      -9.696  15.659  69.257  1.00  0.00    -0.271 A  
HETATM   28  F   UNL     1     -13.756  13.583  71.477  1.00  0.00    -0.393 F  
HETATM   29  F   UNL     1      -7.529  16.610  69.464  1.00  0.00    -0.232 F  
HETATM   30  F   UNL     1      -8.689  17.175  67.716  1.00  0.00    -0.208 F  
HETATM   31  F   UNL     1      -7.795  15.189  67.843  1.00  0.00    -0.113 F  
HETATM   32  F   UNL     1     -14.303  15.676  71.228  1.00  0.00    -0.535 F  
HETATM   33  F   UNL     1     -13.037  15.067  72.892  1.00  0.00    -0.394 F  
HETATM   34  C   UNL     1     -10.335  16.649  70.056  1.00  0.00     0.100 A  
HETATM   35  C   UNL     1     -11.491  16.383  70.783  1.00  0.00    -0.198 A  
HETATM   36  C   UNL     1     -13.268  14.850  71.567  1.00  0.00    -0.368 C  
HETATM   37  C   UNL     1     -12.038  15.106  70.725  1.00  0.00    -0.387 A  
HETATM   38  C   UNL     1     -11.404  14.105  69.901  1.00  0.00    -0.232 A  
HETATM   39  C   UNL     1      -8.440  16.144  68.574  1.00  0.00    -0.197 C  
ENDBRANCH  23  26
ENDBRANCH   1  22
TORSDOF 2
ENDMDL
MODEL       65
REMARK 921   NORMALIZED FREE ENERGY PREDICTED BY IDOCK:   -6.04 KCAL/MOL
REMARK 922        TOTAL FREE ENERGY PREDICTED BY IDOCK:   -7.37 KCAL/MOL
REMARK 923 INTER-LIGAND FREE ENERGY PREDICTED BY IDOCK:   -6.66 KCAL/MOL
REMARK 924 INTRA-LIGAND FREE ENERGY PREDICTED BY IDOCK:   -0.72 KCAL/MOL
REMARK 927      BINDING AFFINITY PREDICTED BY RF-SCORE:    0.00 PKD
ROOT
HETATM    1  C   UNL     1      -8.852   9.998  67.566  1.00  0.00    -0.130 C  
HETATM    2  H   UNL     1     -11.036  18.484  69.005  1.00  0.00     0.000 HD 
HETATM    3  C   UNL     1      -9.824  10.070  68.752  1.00  0.00    -0.173 C  
HETATM    4  C   UNL     1     -10.572  11.339  68.401  1.00  0.00    -0.226 C  
HETATM    5  C   UNL     1     -10.390  18.539  67.022  1.00  0.00    -0.399 C  
HETATM    6  O   UNL     1     -10.910  19.603  66.721  1.00  0.00    -0.474 OA 
HETATM    7  C   UNL     1      -7.108  11.387  66.504  1.00  0.00    -0.058 C  
HETATM    8  C   UNL     1      -9.423  12.297  68.084  1.00  0.00    -0.213 C  
HETATM    9  N   UNL     1     -10.631  17.936  68.246  1.00  0.00    -0.346 N  
HETATM   10  C   UNL     1      -8.098  11.463  67.674  1.00  0.00    -0.124 C  
HETATM   11  C   UNL     1      -9.650  13.721  67.579  1.00  0.00    -0.219 C  
HETATM   12  C   UNL     1     -11.082  14.170  67.937  1.00  0.00    -0.285 C  
HETATM   13  C   UNL     1      -7.177  12.300  68.704  1.00  0.00    -0.105 C  
HETATM   14  C   UNL     1      -7.203  13.929  68.328  1.00  0.00    -0.112 C  
HETATM   15  C   UNL     1     -11.347  15.649  67.729  1.00  0.00    -0.261 C  
HETATM   16  C   UNL     1      -8.625  14.626  68.318  1.00  0.00    -0.167 C  
HETATM   17  C   UNL     1     -10.313  16.531  68.465  1.00  0.00    -0.289 C  
HETATM   18  C   UNL     1      -7.853  17.059  68.815  1.00  0.00    -0.253 C  
HETATM   19  C   UNL     1      -8.840  16.191  67.998  1.00  0.00    -0.181 C  
HETATM   20  C   UNL     1      -8.777  16.717  66.545  1.00  0.00    -0.310 C  
HETATM   21  C   UNL     1      -9.505  17.781  66.102  1.00  0.00    -0.177 C  
ENDROOT
BRANCH   1  22
HETATM   22  C   UNL     1      -9.075   8.537  66.803  1.00  0.00    -0.151 C  
HETATM   23  N   UNL     1      -8.058   7.774  66.250  1.00  0.00    -0.109 N  
HETATM   24  O   UNL     1     -10.258   8.206  66.568  1.00  0.00    -0.279 OA 
HETATM   25  H   UNL     1      -7.109   7.988  66.557  1.00  0.00     0.000 HD 
BRANCH  23  26
HETATM   26  C   UNL     1      -8.205   6.678  65.256  1.00  0.00    -0.133 A  
HETATM   27  C   UNL     1      -8.019   6.909  63.867  1.00  0.00    -0.064 A  
HETATM   28  F   UNL     1      -9.402   2.684  66.309  1.00  0.00    -0.147 F  
HETATM   29  F   UNL     1      -8.562   8.643  62.338  1.00  0.00    -0.189 F  
HETATM   30  F   UNL     1      -6.455   8.188  62.602  1.00  0.00    -0.082 F  
HETATM   31  F   UNL     1      -7.547   9.260  64.156  1.00  0.00    -0.103 F  
HETATM   32  F   UNL     1      -8.276   1.957  64.593  1.00  0.00    -0.074 F  
HETATM   33  F   UNL     1     -10.359   2.549  64.362  1.00  0.00    -0.074 F  
HETATM   34  C   UNL     1      -8.172   5.861  62.915  1.00  0.00    -0.076 A  
HETATM   35  C   UNL     1      -8.536   4.570  63.285  1.00  0.00    -0.109 A  
HETATM   36  C   UNL     1      -9.194   2.893  64.980  1.00  0.00    -0.148 C  
HETATM   37  C   UNL     1      -8.757   4.297  64.630  1.00  0.00    -0.137 A  
HETATM   38  C   UNL     1      -8.584   5.351  65.601  1.00  0.00    -0.146 A  
HETATM   39  C   UNL     1      -7.650   8.239  63.257  1.00  0.00    -0.130 C  
ENDBRANCH  23  26
ENDBRANCH   1  22
TORSDOF 2
ENDMDL
MODEL       66
REMARK 921   NORMALIZED FREE ENERGY PREDICTED BY IDOCK:   -6.01 KCAL/MOL
REMARK 922        TOTAL FREE ENERGY PREDICTED BY IDOCK:   -7.35 KCAL/MOL
REMARK 923 INTER-LIGAND FREE ENERGY PREDICTED BY IDOCK:   -6.82 KCAL/MOL
REMARK 924 INTRA-LIGAND FREE ENERGY PREDICTED BY IDOCK:   -0.53 KCAL/MOL
REMARK 927      BINDING AFFINITY PREDICTED BY RF-SCORE:    0.00 PKD
ROOT
HETATM    1  C   UNL     1      -8.389  10.802  68.067  1.00  0.00    -0.120 C  
HETATM    2  H   UNL     1     -10.703  19.334  68.903  1.00  0.00     0.000 HD 
HETATM    3  C   UNL     1      -9.498  10.919  69.121  1.00  0.00    -0.107 C  
HETATM    4  C   UNL     1     -10.193  12.172  68.634  1.00  0.00    -0.186 C  
HETATM    5  C   UNL     1      -9.820  19.314  67.012  1.00  0.00    -0.340 C  
HETATM    6  O   UNL     1     -10.296  20.365  66.609  1.00  0.00    -0.360 OA 
HETATM    7  C   UNL     1      -6.523  12.152  67.173  1.00  0.00    -0.135 C  
HETATM    8  C   UNL     1      -9.010  13.118  68.422  1.00  0.00    -0.128 C  
HETATM    9  N   UNL     1     -10.210  18.759  68.220  1.00  0.00    -0.377 N  
HETATM   10  C   UNL     1      -7.649  12.271  68.210  1.00  0.00    -0.133 C  
HETATM   11  C   UNL     1      -9.170  14.522  67.839  1.00  0.00    -0.196 C  
HETATM   12  C   UNL     1     -10.633  14.983  68.002  1.00  0.00    -0.250 C  
HETATM   13  C   UNL     1      -6.858  13.149  69.311  1.00  0.00    -0.024 C  
HETATM   14  C   UNL     1      -6.832  14.762  68.873  1.00  0.00    -0.105 C  
HETATM   15  C   UNL     1     -10.866  16.452  67.708  1.00  0.00    -0.306 C  
HETATM   16  C   UNL     1      -8.240  15.457  68.663  1.00  0.00    -0.158 C  
HETATM   17  C   UNL     1      -9.927  17.363  68.530  1.00  0.00    -0.331 C  
HETATM   18  C   UNL     1      -7.526  17.908  69.156  1.00  0.00    -0.087 C  
HETATM   19  C   UNL     1      -8.409  17.008  68.260  1.00  0.00    -0.228 C  
HETATM   20  C   UNL     1      -8.167  17.478  66.805  1.00  0.00    -0.273 C  
HETATM   21  C   UNL     1      -8.832  18.522  66.237  1.00  0.00    -0.221 C  
ENDROOT
BRANCH   1  22
HETATM   22  C   UNL     1      -8.522   9.313  67.339  1.00  0.00    -0.122 C  
HETATM   23  N   UNL     1      -9.639   8.496  67.413  1.00  0.00    -0.153 N  
HETATM   24  O   UNL     1      -7.475   8.840  66.843  1.00  0.00    -0.088 OA 
HETATM   25  H   UNL     1     -10.511   8.941  67.702  1.00  0.00     0.000 HD 
BRANCH  23  26
HETATM   26  C   UNL     1      -9.702   7.041  67.115  1.00  0.00    -0.161 A  
HETATM   27  C   UNL     1     -10.097   6.100  68.102  1.00  0.00    -0.181 A  
HETATM   28  F   UNL     1      -8.530   5.354  63.337  1.00  0.00    -0.124 F  
HETATM   29  F   UNL     1      -9.730   5.815  70.431  1.00  0.00    -0.179 F  
HETATM   30  F   UNL     1     -11.785   6.085  69.786  1.00  0.00    -0.473 F  
HETATM   31  F   UNL     1     -10.413   7.780  69.809  1.00  0.00    -0.210 F  
HETATM   32  F   UNL     1      -9.947   3.737  63.686  1.00  0.00    -0.140 F  
HETATM   33  F   UNL     1      -7.904   3.577  64.421  1.00  0.00    -0.080 F  
HETATM   34  C   UNL     1     -10.144   4.706  67.820  1.00  0.00    -0.097 A  
HETATM   35  C   UNL     1      -9.784   4.187  66.580  1.00  0.00    -0.233 A  
HETATM   36  C   UNL     1      -8.938   4.451  64.270  1.00  0.00    -0.151 C  
HETATM   37  C   UNL     1      -9.363   5.063  65.586  1.00  0.00    -0.163 A  
HETATM   38  C   UNL     1      -9.332   6.479  65.862  1.00  0.00     0.032 A  
HETATM   39  C   UNL     1     -10.500   6.451  69.514  1.00  0.00    -0.230 C  
ENDBRANCH  23  26
ENDBRANCH   1  22
TORSDOF 2
ENDMDL
MODEL       67
REMARK 921   NORMALIZED FREE ENERGY PREDICTED BY IDOCK:   -5.90 KCAL/MOL
REMARK 922        TOTAL FREE ENERGY PREDICTED BY IDOCK:   -7.22 KCAL/MOL
REMARK 923 INTER-LIGAND FREE ENERGY PREDICTED BY IDOCK:   -6.57 KCAL/MOL
REMARK 924 INTRA-LIGAND FREE ENERGY PREDICTED BY IDOCK:   -0.65 KCAL/MOL
REMARK 927      BINDING AFFINITY PREDICTED BY RF-SCORE:    0.00 PKD
ROOT
HETATM    1  C   UNL     1      -9.810  10.877  66.959  1.00  0.00    -0.214 C  
HETATM    2  H   UNL     1      -8.538   2.139  66.022  1.00  0.00     0.000 HD 
HETATM    3  C   UNL     1     -11.154  10.155  67.126  1.00  0.00    -0.122 C  
HETATM    4  C   UNL     1     -10.669   8.811  67.626  1.00  0.00    -0.206 C  
HETATM    5  C   UNL     1      -6.620   2.801  66.507  1.00  0.00    -0.036 C  
HETATM    6  O   UNL     1      -6.163   1.717  66.842  1.00  0.00    -0.020 OA 
HETATM    7  C   UNL     1      -7.676  10.579  65.751  1.00  0.00    -0.145 C  
HETATM    8  C   UNL     1      -9.562   8.489  66.622  1.00  0.00    -0.292 C  
HETATM    9  N   UNL     1      -7.964   2.960  66.211  1.00  0.00    -0.081 N  
HETATM   10  C   UNL     1      -9.014   9.850  65.940  1.00  0.00    -0.183 C  
HETATM   11  C   UNL     1      -8.677   7.248  66.738  1.00  0.00    -0.132 C  
HETATM   12  C   UNL     1      -9.378   6.198  67.624  1.00  0.00    -0.112 C  
HETATM   13  C   UNL     1      -9.157   9.236  64.453  1.00  0.00    -0.111 C  
HETATM   14  C   UNL     1      -8.215   7.865  64.288  1.00  0.00    -0.042 C  
HETATM   15  C   UNL     1      -8.732   4.827  67.603  1.00  0.00    -0.106 C  
HETATM   16  C   UNL     1      -8.511   6.682  65.299  1.00  0.00    -0.078 C  
HETATM   17  C   UNL     1      -8.569   4.285  66.165  1.00  0.00    -0.113 C  
HETATM   18  C   UNL     1      -7.646   4.714  63.838  1.00  0.00    -0.071 C  
HETATM   19  C   UNL     1      -7.718   5.279  65.275  1.00  0.00    -0.084 C  
HETATM   20  C   UNL     1      -6.287   5.170  65.855  1.00  0.00    -0.035 C  
HETATM   21  C   UNL     1      -5.800   4.037  66.434  1.00  0.00    -0.023 C  
ENDROOT
BRANCH   1  22
HETATM   22  C   UNL     1      -9.848  12.262  67.880  1.00  0.00    -0.201 C  
HETATM   23  N   UNL     1     -10.734  13.311  67.689  1.00  0.00    -0.237 N  
HETATM   24  O   UNL     1      -8.899  12.425  68.678  1.00  0.00    -0.096 OA 
HETATM   25  H   UNL     1     -11.565  13.110  67.134  1.00  0.00     0.000 HD 
BRANCH  23  26
HETATM   26  C   UNL     1     -10.598  14.698  68.208  1.00  0.00    -0.235 A  
HETATM   27  C   UNL     1     -11.323  15.134  69.349  1.00  0.00    -0.307 A  
HETATM   28  F   UNL     1      -8.190  17.706  66.300  1.00  0.00    -0.262 F  
HETATM   29  F   UNL     1     -13.514  14.810  70.205  1.00  0.00    -0.239 F  
HETATM   30  F   UNL     1     -11.864  14.133  71.444  1.00  0.00    -0.385 F  
HETATM   31  F   UNL     1     -12.428  13.010  69.661  1.00  0.00    -0.260 F  
HETATM   32  F   UNL     1      -7.909  18.634  68.250  1.00  0.00    -0.276 F  
HETATM   33  F   UNL     1      -9.617  19.181  67.016  1.00  0.00    -0.310 F  
HETATM   34  C   UNL     1     -11.202  16.466  69.837  1.00  0.00    -0.253 A  
HETATM   35  C   UNL     1     -10.396  17.414  69.216  1.00  0.00    -0.212 A  
HETATM   36  C   UNL     1      -8.858  18.121  67.411  1.00  0.00    -0.256 C  
HETATM   37  C   UNL     1      -9.686  17.046  68.079  1.00  0.00    -0.260 A  
HETATM   38  C   UNL     1      -9.790  15.692  67.591  1.00  0.00    -0.227 A  
HETATM   39  C   UNL     1     -12.270  14.274  70.149  1.00  0.00    -0.345 C  
ENDBRANCH  23  26
ENDBRANCH   1  22
TORSDOF 2
ENDMDL
MODEL       68
REMARK 921   NORMALIZED FREE ENERGY PREDICTED BY IDOCK:   -5.75 KCAL/MOL
REMARK 922        TOTAL FREE ENERGY PREDICTED BY IDOCK:   -7.05 KCAL/MOL
REMARK 923 INTER-LIGAND FREE ENERGY PREDICTED BY IDOCK:   -6.38 KCAL/MOL
REMARK 924 INTRA-LIGAND FREE ENERGY PREDICTED BY IDOCK:   -0.67 KCAL/MOL
REMARK 927      BINDING AFFINITY PREDICTED BY RF-SCORE:    0.00 PKD
ROOT
HETATM    1  C   UNL     1     -10.356   8.926  68.171  1.00  0.00    -0.261 C  
HETATM    2  H   UNL     1     -10.387  17.606  66.299  1.00  0.00     0.000 HD 
HETATM    3  C   UNL     1     -10.882   9.128  66.744  1.00  0.00     0.041 C  
HETATM    4  C   UNL     1     -10.185  10.424  66.388  1.00  0.00    -0.292 C  
HETATM    5  C   UNL     1      -9.007  17.510  67.861  1.00  0.00    -0.251 C  
HETATM    6  O   UNL     1      -8.471  18.590  67.659  1.00  0.00    -0.259 OA 
HETATM    7  C   UNL     1     -10.312  10.134  70.325  1.00  0.00    -0.234 C  
HETATM    8  C   UNL     1     -10.485  11.283  67.618  1.00  0.00    -0.225 C  
HETATM    9  N   UNL     1      -9.946  16.992  66.984  1.00  0.00    -0.278 N  
HETATM   10  C   UNL     1     -10.815  10.340  68.890  1.00  0.00    -0.263 C  
HETATM   11  C   UNL     1      -9.918  12.690  67.800  1.00  0.00    -0.218 C  
HETATM   12  C   UNL     1      -9.494  13.255  66.429  1.00  0.00    -0.225 C  
HETATM   13  C   UNL     1     -12.160  11.166  69.232  1.00  0.00    -0.377 C  
HETATM   14  C   UNL     1     -11.805  12.770  69.540  1.00  0.00    -0.379 C  
HETATM   15  C   UNL     1      -9.163  14.734  66.434  1.00  0.00    -0.301 C  
HETATM   16  C   UNL     1     -11.066  13.562  68.385  1.00  0.00    -0.298 C  
HETATM   17  C   UNL     1     -10.312  15.582  67.025  1.00  0.00    -0.279 C  
HETATM   18  C   UNL     1     -11.857  15.959  69.006  1.00  0.00    -0.328 C  
HETATM   19  C   UNL     1     -10.663  15.118  68.496  1.00  0.00    -0.240 C  
HETATM   20  C   UNL     1      -9.437  15.560  69.331  1.00  0.00    -0.278 C  
HETATM   21  C   UNL     1      -8.673  16.645  69.021  1.00  0.00    -0.193 C  
ENDROOT
BRANCH   1  22
HETATM   22  C   UNL     1      -9.602   7.445  68.240  1.00  0.00    -0.150 C  
HETATM   23  N   UNL     1      -8.345   7.175  67.722  1.00  0.00    -0.117 N  
HETATM   24  O   UNL     1     -10.300   6.483  68.632  1.00  0.00    -0.162 OA 
HETATM   25  H   UNL     1      -7.750   7.981  67.528  1.00  0.00     0.000 HD 
BRANCH  23  26
HETATM   26  C   UNL     1      -7.773   5.837  67.419  1.00  0.00    -0.097 A  
HETATM   27  C   UNL     1      -6.906   5.179  68.332  1.00  0.00    -0.056 A  
HETATM   28  F   UNL     1      -8.432   3.775  63.703  1.00  0.00    -0.088 F  
HETATM   29  F   UNL     1      -5.139   5.832  69.779  1.00  0.00    -0.004 F  
HETATM   30  F   UNL     1      -6.886   4.932  70.703  1.00  0.00    -0.035 F  
HETATM   31  F   UNL     1      -6.979   6.975  69.946  1.00  0.00    -0.054 F  
HETATM   32  F   UNL     1      -8.185   1.893  64.772  1.00  0.00    -0.074 F  
HETATM   33  F   UNL     1      -6.452   2.908  63.932  1.00  0.00    -0.026 F  
HETATM   34  C   UNL     1      -6.349   3.904  68.036  1.00  0.00    -0.037 A  
HETATM   35  C   UNL     1      -6.598   3.245  66.836  1.00  0.00    -0.037 A  
HETATM   36  C   UNL     1      -7.626   3.127  64.588  1.00  0.00    -0.077 C  
HETATM   37  C   UNL     1      -7.419   3.858  65.896  1.00  0.00    -0.081 A  
HETATM   38  C   UNL     1      -8.001   5.143  66.199  1.00  0.00    -0.104 A  
HETATM   39  C   UNL     1      -6.488   5.732  69.673  1.00  0.00    -0.042 C  
ENDBRANCH  23  26
ENDBRANCH   1  22
TORSDOF 2
ENDMDL
MODEL       69
REMARK 921   NORMALIZED FREE ENERGY PREDICTED BY IDOCK:   -5.67 KCAL/MOL
REMARK 922        TOTAL FREE ENERGY PREDICTED BY IDOCK:   -6.97 KCAL/MOL
REMARK 923 INTER-LIGAND FREE ENERGY PREDICTED BY IDOCK:   -6.25 KCAL/MOL
REMARK 924 INTRA-LIGAND FREE ENERGY PREDICTED BY IDOCK:   -0.72 KCAL/MOL
REMARK 927      BINDING AFFINITY PREDICTED BY RF-SCORE:    0.00 PKD
ROOT
HETATM    1  C   UNL     1      -7.565   9.665  68.236  1.00  0.00    -0.078 C  
HETATM    2  H   UNL     1      -7.498   1.582  71.912  1.00  0.00     0.000 HD 
HETATM    3  C   UNL     1      -7.629   8.609  67.124  1.00  0.00    -0.092 C  
HETATM    4  C   UNL     1      -8.290   7.475  67.878  1.00  0.00    -0.123 C  
HETATM    5  C   UNL     1      -8.151   2.768  73.499  1.00  0.00    -0.067 C  
HETATM    6  O   UNL     1      -8.625   1.869  74.178  1.00  0.00    -0.057 OA 
HETATM    7  C   UNL     1      -6.646   9.911  70.516  1.00  0.00    -0.120 C  
HETATM    8  C   UNL     1      -7.454   7.425  69.157  1.00  0.00    -0.099 C  
HETATM    9  N   UNL     1      -7.686   2.537  72.214  1.00  0.00    -0.052 N  
HETATM   10  C   UNL     1      -6.734   8.852  69.409  1.00  0.00    -0.048 C  
HETATM   11  C   UNL     1      -7.774   6.483  70.317  1.00  0.00    -0.098 C  
HETATM   12  C   UNL     1      -8.654   5.321  69.808  1.00  0.00    -0.102 C  
HETATM   13  C   UNL     1      -5.295   8.155  69.639  1.00  0.00    -0.026 C  
HETATM   14  C   UNL     1      -5.355   7.089  70.926  1.00  0.00    -0.023 C  
HETATM   15  C   UNL     1      -8.821   4.182  70.793  1.00  0.00    -0.134 C  
HETATM   16  C   UNL     1      -6.416   5.919  70.822  1.00  0.00    -0.040 C  
HETATM   17  C   UNL     1      -7.461   3.641  71.289  1.00  0.00    -0.044 C  
HETATM   18  C   UNL     1      -5.233   4.200  72.373  1.00  0.00     0.000 C  
HETATM   19  C   UNL     1      -6.601   4.789  71.957  1.00  0.00    -0.038 C  
HETATM   20  C   UNL     1      -7.353   5.104  73.272  1.00  0.00    -0.091 C  
HETATM   21  C   UNL     1      -8.076   4.177  73.960  1.00  0.00    -0.088 C  
ENDROOT
BRANCH   1  22
HETATM   22  C   UNL     1      -8.359  11.026  67.704  1.00  0.00    -0.117 C  
HETATM   23  N   UNL     1      -8.715  12.096  68.510  1.00  0.00    -0.323 N  
HETATM   24  O   UNL     1      -8.810  10.988  66.538  1.00  0.00    -0.158 OA 
HETATM   25  H   UNL     1      -8.236  12.169  69.408  1.00  0.00     0.000 HD 
BRANCH  23  26
HETATM   26  C   UNL     1      -9.721  13.147  68.204  1.00  0.00    -0.228 A  
HETATM   27  C   UNL     1     -11.064  13.039  68.652  1.00  0.00    -0.305 A  
HETATM   28  F   UNL     1      -8.869  16.589  65.771  1.00  0.00    -0.335 F  
HETATM   29  F   UNL     1     -12.657  11.289  68.862  1.00  0.00    -0.258 F  
HETATM   30  F   UNL     1     -12.072  12.310  70.687  1.00  0.00    -0.423 F  
HETATM   31  F   UNL     1     -10.703  10.907  69.730  1.00  0.00    -0.264 F  
HETATM   32  F   UNL     1     -10.392  17.679  66.884  1.00  0.00    -0.305 F  
HETATM   33  F   UNL     1     -10.941  16.532  65.116  1.00  0.00    -0.372 F  
HETATM   34  C   UNL     1     -12.029  14.039  68.348  1.00  0.00    -0.378 A  
HETATM   35  C   UNL     1     -11.722  15.158  67.579  1.00  0.00    -0.214 A  
HETATM   36  C   UNL     1     -10.150  16.506  66.225  1.00  0.00    -0.333 C  
HETATM   37  C   UNL     1     -10.427  15.299  67.093  1.00  0.00    -0.280 A  
HETATM   38  C   UNL     1      -9.440  14.296  67.415  1.00  0.00    -0.211 A  
HETATM   39  C   UNL     1     -11.609  11.895  69.473  1.00  0.00    -0.327 C  
ENDBRANCH  23  26
ENDBRANCH   1  22
TORSDOF 2
ENDMDL
MODEL       70
REMARK 921   NORMALIZED FREE ENERGY PREDICTED BY IDOCK:   -5.53 KCAL/MOL
REMARK 922        TOTAL FREE ENERGY PREDICTED BY IDOCK:   -6.81 KCAL/MOL
REMARK 923 INTER-LIGAND FREE ENERGY PREDICTED BY IDOCK:   -6.20 KCAL/MOL
REMARK 924 INTRA-LIGAND FREE ENERGY PREDICTED BY IDOCK:   -0.61 KCAL/MOL
REMARK 927      BINDING AFFINITY PREDICTED BY RF-SCORE:    0.00 PKD
ROOT
HETATM    1  C   UNL     1      -8.312   9.345  68.953  1.00  0.00    -0.120 C  
HETATM    2  H   UNL     1     -11.293  17.649  67.952  1.00  0.00     0.000 HD 
HETATM    3  C   UNL     1      -9.400   9.615  70.000  1.00  0.00    -0.276 C  
HETATM    4  C   UNL     1     -10.207  10.671  69.273  1.00  0.00    -0.235 C  
HETATM    5  C   UNL     1     -10.458  17.266  66.079  1.00  0.00    -0.282 C  
HETATM    6  O   UNL     1     -11.027  18.161  65.471  1.00  0.00    -0.338 OA 
HETATM    7  C   UNL     1      -6.584  10.591  67.701  1.00  0.00    -0.065 C  
HETATM    8  C   UNL     1      -9.111  11.629  68.806  1.00  0.00    -0.029 C  
HETATM    9  N   UNL     1     -10.772  16.972  67.396  1.00  0.00    -0.288 N  
HETATM   10  C   UNL     1      -7.690  10.859  68.731  1.00  0.00    -0.129 C  
HETATM   11  C   UNL     1      -9.399  12.848  67.930  1.00  0.00    -0.208 C  
HETATM   12  C   UNL     1     -10.890  13.224  68.048  1.00  0.00    -0.261 C  
HETATM   13  C   UNL     1      -6.947  12.019  69.574  1.00  0.00     0.085 C  
HETATM   14  C   UNL     1      -7.064  13.488  68.785  1.00  0.00    -0.103 C  
HETATM   15  C   UNL     1     -11.249  14.567  67.441  1.00  0.00    -0.337 C  
HETATM   16  C   UNL     1      -8.528  14.011  68.484  1.00  0.00    -0.143 C  
HETATM   17  C   UNL     1     -10.368  15.708  67.998  1.00  0.00    -0.246 C  
HETATM   18  C   UNL     1      -8.005  16.556  68.385  1.00  0.00    -0.194 C  
HETATM   19  C   UNL     1      -8.833  15.414  67.751  1.00  0.00    -0.170 C  
HETATM   20  C   UNL     1      -8.665  15.558  66.219  1.00  0.00    -0.283 C  
HETATM   21  C   UNL     1      -9.427  16.395  65.460  1.00  0.00     0.136 C  
ENDROOT
BRANCH   1  22
HETATM   22  C   UNL     1      -8.340   7.723  68.583  1.00  0.00    -0.129 C  
HETATM   23  N   UNL     1      -9.432   6.891  68.771  1.00  0.00    -0.136 N  
HETATM   24  O   UNL     1      -7.244   7.203  68.280  1.00  0.00    -0.085 OA 
HETATM   25  H   UNL     1     -10.337   7.347  68.892  1.00  0.00     0.000 HD 
BRANCH  23  26
HETATM   26  C   UNL     1      -9.424   5.405  68.816  1.00  0.00    -0.130 A  
HETATM   27  C   UNL     1      -9.603   4.629  67.640  1.00  0.00    -0.200 A  
HETATM   28  F   UNL     1      -9.066   3.157  72.464  1.00  0.00    -0.095 F  
HETATM   29  F   UNL     1     -10.960   4.766  65.695  1.00  0.00    -0.337 F  
HETATM   30  F   UNL     1      -8.809   4.818  65.400  1.00  0.00    -0.125 F  
HETATM   31  F   UNL     1      -9.846   6.558  66.208  1.00  0.00    -0.202 F  
HETATM   32  F   UNL     1      -8.138   1.555  71.316  1.00  0.00    -0.041 F  
HETATM   33  F   UNL     1     -10.303   1.625  71.541  1.00  0.00    -0.217 F  
HETATM   34  C   UNL     1      -9.608   3.206  67.686  1.00  0.00    -0.105 A  
HETATM   35  C   UNL     1      -9.465   2.502  68.877  1.00  0.00    -0.165 A  
HETATM   36  C   UNL     1      -9.206   2.408  71.336  1.00  0.00    -0.113 C  
HETATM   37  C   UNL     1      -9.313   3.214  70.061  1.00  0.00    -0.226 A  
HETATM   38  C   UNL     1      -9.289   4.656  70.017  1.00  0.00    -0.215 A  
HETATM   39  C   UNL     1      -9.802   5.196  66.256  1.00  0.00    -0.192 C  
ENDBRANCH  23  26
ENDBRANCH   1  22
TORSDOF 2
ENDMDL
MODEL       71
REMARK 921   NORMALIZED FREE ENERGY PREDICTED BY IDOCK:   -5.50 KCAL/MOL
REMARK 922        TOTAL FREE ENERGY PREDICTED BY IDOCK:   -6.77 KCAL/MOL
REMARK 923 INTER-LIGAND FREE ENERGY PREDICTED BY IDOCK:   -6.12 KCAL/MOL
REMARK 924 INTRA-LIGAND FREE ENERGY PREDICTED BY IDOCK:   -0.65 KCAL/MOL
REMARK 927      BINDING AFFINITY PREDICTED BY RF-SCORE:    0.00 PKD
ROOT
HETATM    1  C   UNL     1      -9.879   9.475  67.542  1.00  0.00    -0.213 C  
HETATM    2  H   UNL     1     -10.768  18.265  66.651  1.00  0.00     0.000 HD 
HETATM    3  C   UNL     1     -10.409   9.785  66.136  1.00  0.00    -0.215 C  
HETATM    4  C   UNL     1      -9.843  11.176  65.942  1.00  0.00    -0.275 C  
HETATM    5  C   UNL     1      -9.401  18.131  68.221  1.00  0.00    -0.303 C  
HETATM    6  O   UNL     1      -8.975  19.275  68.152  1.00  0.00    -0.303 OA 
HETATM    7  C   UNL     1      -9.978  10.430  69.818  1.00  0.00    -0.167 C  
HETATM    8  C   UNL     1     -10.240  11.855  67.253  1.00  0.00    -0.220 C  
HETATM    9  N   UNL     1     -10.274  17.625  67.272  1.00  0.00    -0.331 N  
HETATM   10  C   UNL     1     -10.485  10.746  68.405  1.00  0.00    -0.207 C  
HETATM   11  C   UNL     1      -9.820  13.282  67.603  1.00  0.00    -0.230 C  
HETATM   12  C   UNL     1      -9.441  14.038  66.313  1.00  0.00    -0.249 C  
HETATM   13  C   UNL     1     -11.910  11.391  68.808  1.00  0.00    -0.388 C  
HETATM   14  C   UNL     1     -11.722  12.977  69.301  1.00  0.00    -0.375 C  
HETATM   15  C   UNL     1      -9.262  15.533  66.490  1.00  0.00    -0.324 C  
HETATM   16  C   UNL     1     -11.055  13.964  68.257  1.00  0.00    -0.280 C  
HETATM   17  C   UNL     1     -10.496  16.190  67.147  1.00  0.00    -0.305 C  
HETATM   18  C   UNL     1     -12.091  16.185  69.125  1.00  0.00     0.050 C  
HETATM   19  C   UNL     1     -10.813  15.530  68.550  1.00  0.00    -0.272 C  
HETATM   20  C   UNL     1      -9.646  15.994  69.454  1.00  0.00    -0.236 C  
HETATM   21  C   UNL     1      -8.993  17.178  69.284  1.00  0.00     0.129 C  
ENDROOT
BRANCH   1  22
HETATM   22  C   UNL     1      -8.980   8.078  67.462  1.00  0.00    -0.138 C  
HETATM   23  N   UNL     1      -9.427   6.829  67.864  1.00  0.00    -0.119 N  
HETATM   24  O   UNL     1      -7.768   8.211  67.182  1.00  0.00    -0.095 OA 
HETATM   25  H   UNL     1     -10.436   6.717  67.964  1.00  0.00     0.000 HD 
BRANCH  23  26
HETATM   26  C   UNL     1      -8.591   5.637  68.165  1.00  0.00    -0.104 A  
HETATM   27  C   UNL     1      -8.399   4.607  67.206  1.00  0.00    -0.105 A  
HETATM   28  F   UNL     1      -6.765   4.943  71.996  1.00  0.00    -0.039 F  
HETATM   29  F   UNL     1      -9.748   3.506  65.591  1.00  0.00    -0.171 F  
HETATM   30  F   UNL     1      -8.019   4.594  64.853  1.00  0.00    -0.090 F  
HETATM   31  F   UNL     1      -9.783   5.677  65.540  1.00  0.00    -0.095 F  
HETATM   32  F   UNL     1      -5.196   3.827  70.979  1.00  0.00    -0.003 F  
HETATM   33  F   UNL     1      -7.010   2.814  71.632  1.00  0.00    -0.028 F  
HETATM   34  C   UNL     1      -7.609   3.460  67.500  1.00  0.00    -0.069 A  
HETATM   35  C   UNL     1      -7.008   3.271  68.740  1.00  0.00    -0.049 A  
HETATM   36  C   UNL     1      -6.552   3.968  71.070  1.00  0.00    -0.030 C  
HETATM   37  C   UNL     1      -7.186   4.237  69.724  1.00  0.00    -0.049 A  
HETATM   38  C   UNL     1      -7.971   5.411  69.425  1.00  0.00    -0.089 A  
HETATM   39  C   UNL     1      -8.985   4.605  65.815  1.00  0.00    -0.134 C  
ENDBRANCH  23  26
ENDBRANCH   1  22
TORSDOF 2
ENDMDL
MODEL       72
REMARK 921   NORMALIZED FREE ENERGY PREDICTED BY IDOCK:   -5.48 KCAL/MOL
REMARK 922        TOTAL FREE ENERGY PREDICTED BY IDOCK:   -6.75 KCAL/MOL
REMARK 923 INTER-LIGAND FREE ENERGY PREDICTED BY IDOCK:   -6.44 KCAL/MOL
REMARK 924 INTRA-LIGAND FREE ENERGY PREDICTED BY IDOCK:   -0.31 KCAL/MOL
REMARK 927      BINDING AFFINITY PREDICTED BY RF-SCORE:    0.00 PKD
ROOT
HETATM    1  C   UNL     1      -8.672   9.977  68.737  1.00  0.00    -0.136 C  
HETATM    2  H   UNL     1     -10.457   1.852  71.842  1.00  0.00     0.000 HD 
HETATM    3  C   UNL     1      -9.553   9.236  67.723  1.00  0.00    -0.167 C  
HETATM    4  C   UNL     1     -10.280   8.287  68.651  1.00  0.00    -0.223 C  
HETATM    5  C   UNL     1      -9.954   2.876  73.589  1.00  0.00    -0.105 C  
HETATM    6  O   UNL     1     -10.457   2.090  74.379  1.00  0.00    -0.123 OA 
HETATM    7  C   UNL     1      -6.962   9.459  70.443  1.00  0.00    -0.100 C  
HETATM    8  C   UNL     1      -9.125   7.711  69.470  1.00  0.00    -0.146 C  
HETATM    9  N   UNL     1     -10.126   2.739  72.221  1.00  0.00    -0.168 N  
HETATM   10  C   UNL     1      -7.862   8.722  69.442  1.00  0.00    -0.095 C  
HETATM   11  C   UNL     1      -9.340   6.743  70.634  1.00  0.00    -0.162 C  
HETATM   12  C   UNL     1     -10.726   6.080  70.501  1.00  0.00    -0.349 C  
HETATM   13  C   UNL     1      -6.842   7.535  69.041  1.00  0.00    -0.064 C  
HETATM   14  C   UNL     1      -6.840   6.340  70.210  1.00  0.00    -0.054 C  
HETATM   15  C   UNL     1     -10.955   4.910  71.438  1.00  0.00     0.191 C  
HETATM   16  C   UNL     1      -8.234   5.656  70.520  1.00  0.00    -0.116 C  
HETATM   17  C   UNL     1      -9.842   3.844  71.315  1.00  0.00    -0.157 C  
HETATM   18  C   UNL     1      -7.347   3.376  71.400  1.00  0.00    -0.036 C  
HETATM   19  C   UNL     1      -8.418   4.474  71.600  1.00  0.00    -0.113 C  
HETATM   20  C   UNL     1      -8.441   4.783  73.116  1.00  0.00    -0.103 C  
HETATM   21  C   UNL     1      -9.163   4.058  74.016  1.00  0.00    -0.099 C  
ENDROOT
BRANCH   1  22
HETATM   22  C   UNL     1      -8.998  11.603  68.616  1.00  0.00    -0.084 C  
HETATM   23  N   UNL     1     -10.231  12.181  68.872  1.00  0.00    -0.413 N  
HETATM   24  O   UNL     1      -8.110  12.311  68.091  1.00  0.00    -0.142 OA 
HETATM   25  H   UNL     1     -10.893  11.623  69.413  1.00  0.00     0.000 HD 
BRANCH  23  26
HETATM   26  C   UNL     1     -10.692  13.528  68.443  1.00  0.00    -0.259 A  
HETATM   27  C   UNL     1     -11.546  14.313  69.261  1.00  0.00    -0.350 A  
HETATM   28  F   UNL     1      -9.733  15.240  64.617  1.00  0.00    -0.110 F  
HETATM   29  F   UNL     1     -13.414  13.899  70.669  1.00  0.00    -0.237 F  
HETATM   30  F   UNL     1     -11.646  14.747  71.604  1.00  0.00    -0.371 F  
HETATM   31  F   UNL     1     -11.671  12.649  71.008  1.00  0.00    -0.158 F  
HETATM   32  F   UNL     1      -9.887  17.213  65.527  1.00  0.00    -0.179 F  
HETATM   33  F   UNL     1     -11.653  16.256  64.685  1.00  0.00    -0.348 F  
HETATM   34  C   UNL     1     -11.997  15.597  68.844  1.00  0.00    -0.298 A  
HETATM   35  C   UNL     1     -11.652  16.140  67.610  1.00  0.00     0.149 A  
HETATM   36  C   UNL     1     -10.526  16.010  65.411  1.00  0.00    -0.392 C  
HETATM   37  C   UNL     1     -10.839  15.400  66.759  1.00  0.00    -0.306 A  
HETATM   38  C   UNL     1     -10.364  14.106  67.186  1.00  0.00    -0.265 A  
HETATM   39  C   UNL     1     -12.059  13.898  70.619  1.00  0.00    -0.347 C  
ENDBRANCH  23  26
ENDBRANCH   1  22
TORSDOF 2
ENDMDL
MODEL       73
REMARK 921   NORMALIZED FREE ENERGY PREDICTED BY IDOCK:   -5.40 KCAL/MOL
REMARK 922        TOTAL FREE ENERGY PREDICTED BY IDOCK:   -6.67 KCAL/MOL
REMARK 923 INTER-LIGAND FREE ENERGY PREDICTED BY IDOCK:   -6.46 KCAL/MOL
REMARK 924 INTRA-LIGAND FREE ENERGY PREDICTED BY IDOCK:   -0.20 KCAL/MOL
REMARK 927      BINDING AFFINITY PREDICTED BY RF-SCORE:    0.00 PKD
ROOT
HETATM    1  C   UNL     1      -8.169  10.122  67.212  1.00  0.00    -0.117 C  
HETATM    2  H   UNL     1      -8.498  18.908  65.973  1.00  0.00     0.000 HD 
HETATM    3  C   UNL     1      -6.874  10.579  66.528  1.00  0.00    -0.113 C  
HETATM    4  C   UNL     1      -6.803  12.006  67.029  1.00  0.00    -0.097 C  
HETATM    5  C   UNL     1      -9.893  18.640  67.502  1.00  0.00    -0.320 C  
HETATM    6  O   UNL     1      -9.927  19.800  67.884  1.00  0.00    -0.368 OA 
HETATM    7  C   UNL     1     -10.547  10.783  67.325  1.00  0.00    -0.304 C  
HETATM    8  C   UNL     1      -8.223  12.501  66.752  1.00  0.00     0.003 C  
HETATM    9  N   UNL     1      -8.979  18.218  66.549  1.00  0.00    -0.281 N  
HETATM   10  C   UNL     1      -9.243  11.249  66.662  1.00  0.00    -0.191 C  
HETATM   11  C   UNL     1      -8.708  13.891  67.164  1.00  0.00    -0.233 C  
HETATM   12  C   UNL     1      -7.492  14.816  67.383  1.00  0.00    -0.221 C  
HETATM   13  C   UNL     1      -9.867  11.777  65.269  1.00  0.00    -0.267 C  
HETATM   14  C   UNL     1     -10.536  13.297  65.461  1.00  0.00    -0.295 C  
HETATM   15  C   UNL     1      -7.840  16.283  67.535  1.00  0.00    -0.168 C  
HETATM   16  C   UNL     1      -9.564  14.433  65.985  1.00  0.00    -0.292 C  
HETATM   17  C   UNL     1      -8.696  16.801  66.357  1.00  0.00    -0.302 C  
HETATM   18  C   UNL     1     -10.808  16.484  64.981  1.00  0.00    -0.245 C  
HETATM   19  C   UNL     1     -10.029  15.960  66.210  1.00  0.00    -0.318 C  
HETATM   20  C   UNL     1     -10.862  16.358  67.452  1.00  0.00    -0.219 C  
HETATM   21  C   UNL     1     -10.779  17.580  68.047  1.00  0.00    -0.342 C  
ENDROOT
BRANCH   1  22
HETATM   22  C   UNL     1      -7.821   8.785  68.139  1.00  0.00    -0.102 C  
HETATM   23  N   UNL     1      -8.770   7.992  68.766  1.00  0.00    -0.131 N  
HETATM   24  O   UNL     1      -6.616   8.600  68.419  1.00  0.00    -0.058 OA 
HETATM   25  H   UNL     1      -9.729   8.075  68.428  1.00  0.00     0.000 HD 
BRANCH  23  26
HETATM   26  C   UNL     1      -8.537   7.034  69.879  1.00  0.00    -0.141 A  
HETATM   27  C   UNL     1      -9.393   5.920  70.087  1.00  0.00    -0.180 A  
HETATM   28  F   UNL     1      -5.405   7.513  72.787  1.00  0.00    -0.037 F  
HETATM   29  F   UNL     1     -11.730   5.517  69.958  1.00  0.00     0.017 F  
HETATM   30  F   UNL     1     -10.457   4.361  68.631  1.00  0.00    -0.048 F  
HETATM   31  F   UNL     1     -10.831   6.471  68.227  1.00  0.00    -0.215 F  
HETATM   32  F   UNL     1      -5.366   5.347  73.014  1.00  0.00    -0.015 F  
HETATM   33  F   UNL     1      -6.715   6.549  74.230  1.00  0.00    -0.078 F  
HETATM   34  C   UNL     1      -9.177   5.011  71.160  1.00  0.00    -0.187 A  
HETATM   35  C   UNL     1      -8.140   5.174  72.074  1.00  0.00    -0.113 A  
HETATM   36  C   UNL     1      -6.204   6.426  72.972  1.00  0.00    -0.055 C  
HETATM   37  C   UNL     1      -7.288   6.264  71.931  1.00  0.00    -0.093 A  
HETATM   38  C   UNL     1      -7.493   7.178  70.833  1.00  0.00    -0.080 A  
HETATM   39  C   UNL     1     -10.587   5.579  69.230  1.00  0.00    -0.255 C  
ENDBRANCH  23  26
ENDBRANCH   1  22
TORSDOF 2
ENDMDL
MODEL       74
REMARK 921   NORMALIZED FREE ENERGY PREDICTED BY IDOCK:   -5.39 KCAL/MOL
REMARK 922        TOTAL FREE ENERGY PREDICTED BY IDOCK:   -6.66 KCAL/MOL
REMARK 923 INTER-LIGAND FREE ENERGY PREDICTED BY IDOCK:   -6.12 KCAL/MOL
REMARK 924 INTRA-LIGAND FREE ENERGY PREDICTED BY IDOCK:   -0.53 KCAL/MOL
REMARK 927      BINDING AFFINITY PREDICTED BY RF-SCORE:    0.00 PKD
ROOT
HETATM    1  C   UNL     1      -9.413   9.120  69.644  1.00  0.00    -0.178 C  
HETATM    2  H   UNL     1     -11.528  17.295  66.898  1.00  0.00     0.000 HD 
HETATM    3  C   UNL     1     -10.254   9.810  70.726  1.00  0.00    -0.251 C  
HETATM    4  C   UNL     1     -11.049  10.771  69.868  1.00  0.00    -0.339 C  
HETATM    5  C   UNL     1     -11.097  16.337  65.095  1.00  0.00    -0.212 C  
HETATM    6  O   UNL     1     -11.658  17.135  64.358  1.00  0.00    -0.849 OA 
HETATM    7  C   UNL     1      -7.807   9.728  67.868  1.00  0.00    -0.090 C  
HETATM    8  C   UNL     1      -9.951  11.397  69.008  1.00  0.00    -0.087 C  
HETATM    9  N   UNL     1     -11.199  16.428  66.474  1.00  0.00     0.194 N  
HETATM   10  C   UNL     1      -8.668  10.414  68.938  1.00  0.00    -0.157 C  
HETATM   11  C   UNL     1     -10.247  12.395  67.889  1.00  0.00    -0.213 C  
HETATM   12  C   UNL     1     -11.638  13.023  68.116  1.00  0.00    -0.379 C  
HETATM   13  C   UNL     1      -7.653  11.610  69.322  1.00  0.00     0.121 C  
HETATM   14  C   UNL     1      -7.737  12.840  68.194  1.00  0.00    -0.137 C  
HETATM   15  C   UNL     1     -11.940  14.216  67.230  1.00  0.00    -0.449 C  
HETATM   16  C   UNL     1      -9.160  13.502  67.979  1.00  0.00    -0.201 C  
HETATM   17  C   UNL     1     -10.844  15.301  67.328  1.00  0.00    -0.318 C  
HETATM   18  C   UNL     1      -8.368  15.827  67.127  1.00  0.00    -0.231 C  
HETATM   19  C   UNL     1      -9.425  14.713  66.949  1.00  0.00    -0.259 C  
HETATM   20  C   UNL     1      -9.523  14.450  65.427  1.00  0.00     0.194 C  
HETATM   21  C   UNL     1     -10.306  15.186  64.590  1.00  0.00     0.023 C  
ENDROOT
BRANCH   1  22
HETATM   22  C   UNL     1      -9.699   7.484  69.730  1.00  0.00    -0.171 C  
HETATM   23  N   UNL     1      -8.710   6.513  69.787  1.00  0.00    -0.141 N  
HETATM   24  O   UNL     1     -10.881   7.115  69.556  1.00  0.00    -0.239 OA 
HETATM   25  H   UNL     1      -7.778   6.828  70.054  1.00  0.00     0.000 HD 
BRANCH  23  26
HETATM   26  C   UNL     1      -8.867   5.063  69.498  1.00  0.00    -0.095 A  
HETATM   27  C   UNL     1      -9.323   4.157  70.491  1.00  0.00    -0.211 A  
HETATM   28  F   UNL     1      -7.804   3.279  65.732  1.00  0.00    -0.081 F  
HETATM   29  F   UNL     1      -8.977   3.863  72.823  1.00  0.00    -0.100 F  
HETATM   30  F   UNL     1     -11.010   4.263  72.173  1.00  0.00    -0.129 F  
HETATM   31  F   UNL     1      -9.530   5.865  72.186  1.00  0.00    -0.149 F  
HETATM   32  F   UNL     1      -9.324   1.761  66.091  1.00  0.00    -0.104 F  
HETATM   33  F   UNL     1      -7.296   1.473  66.829  1.00  0.00    -0.050 F  
HETATM   34  C   UNL     1      -9.461   2.767  70.218  1.00  0.00    -0.183 A  
HETATM   35  C   UNL     1      -9.134   2.218  68.982  1.00  0.00    -0.186 A  
HETATM   36  C   UNL     1      -8.271   2.411  66.671  1.00  0.00    -0.086 C  
HETATM   37  C   UNL     1      -8.656   3.058  67.983  1.00  0.00    -0.117 A  
HETATM   38  C   UNL     1      -8.533   4.471  68.249  1.00  0.00    -0.099 A  
HETATM   39  C   UNL     1      -9.703   4.542  71.900  1.00  0.00    -0.168 C  
ENDBRANCH  23  26
ENDBRANCH   1  22
TORSDOF 2
ENDMDL
MODEL       75
REMARK 921   NORMALIZED FREE ENERGY PREDICTED BY IDOCK:   -5.19 KCAL/MOL
REMARK 922        TOTAL FREE ENERGY PREDICTED BY IDOCK:   -6.43 KCAL/MOL
REMARK 923 INTER-LIGAND FREE ENERGY PREDICTED BY IDOCK:   -5.82 KCAL/MOL
REMARK 924 INTRA-LIGAND FREE ENERGY PREDICTED BY IDOCK:   -0.61 KCAL/MOL
REMARK 927      BINDING AFFINITY PREDICTED BY RF-SCORE:    0.00 PKD
ROOT
HETATM    1  C   UNL     1      -8.657  10.766  67.705  1.00  0.00    -0.127 C  
HETATM    2  H   UNL     1      -7.475   2.922  63.716  1.00  0.00     0.000 HD 
HETATM    3  C   UNL     1      -7.178  10.616  67.325  1.00  0.00    -0.091 C  
HETATM    4  C   UNL     1      -7.305   9.684  66.139  1.00  0.00    -0.098 C  
HETATM    5  C   UNL     1      -9.522   3.230  63.454  1.00  0.00    -0.098 C  
HETATM    6  O   UNL     1      -9.684   2.426  62.548  1.00  0.00    -0.089 OA 
HETATM    7  C   UNL     1     -10.571   9.336  68.333  1.00  0.00    -0.234 C  
HETATM    8  C   UNL     1      -8.235   8.604  66.694  1.00  0.00    -0.107 C  
HETATM    9  N   UNL     1      -8.258   3.538  63.932  1.00  0.00    -0.089 N  
HETATM   10  C   UNL     1      -9.097   9.191  67.931  1.00  0.00    -0.134 C  
HETATM   11  C   UNL     1      -8.756   7.446  65.843  1.00  0.00    -0.161 C  
HETATM   12  C   UNL     1      -7.841   7.258  64.615  1.00  0.00    -0.123 C  
HETATM   13  C   UNL     1      -8.722   7.931  68.870  1.00  0.00    -0.135 C  
HETATM   14  C   UNL     1      -9.249   6.503  68.180  1.00  0.00    -0.112 C  
HETATM   15  C   UNL     1      -8.091   5.983  63.835  1.00  0.00    -0.084 C  
HETATM   16  C   UNL     1      -8.693   6.173  66.734  1.00  0.00    -0.116 C  
HETATM   17  C   UNL     1      -8.032   4.730  64.739  1.00  0.00    -0.095 C  
HETATM   18  C   UNL     1      -8.924   3.585  66.823  1.00  0.00    -0.162 C  
HETATM   19  C   UNL     1      -9.076   4.834  65.923  1.00  0.00    -0.137 C  
HETATM   20  C   UNL     1     -10.450   4.697  65.225  1.00  0.00    -0.120 C  
HETATM   21  C   UNL     1     -10.640   3.977  64.084  1.00  0.00    -0.197 C  
ENDROOT
BRANCH   1  22
HETATM   22  C   UNL     1      -9.039  12.385  67.670  1.00  0.00    -0.186 C  
HETATM   23  N   UNL     1      -8.258  13.366  67.079  1.00  0.00    -0.380 N  
HETATM   24  O   UNL     1     -10.006  12.744  68.378  1.00  0.00    -0.226 OA 
HETATM   25  H   UNL     1      -7.557  13.049  66.410  1.00  0.00     0.000 HD 
BRANCH  23  26
HETATM   26  C   UNL     1      -8.335  14.832  67.319  1.00  0.00    -0.212 A  
HETATM   27  C   UNL     1      -7.620  15.446  68.380  1.00  0.00    -0.116 A  
HETATM   28  F   UNL     1     -10.846  17.467  65.029  1.00  0.00    -0.364 F  
HETATM   29  F   UNL     1      -7.108  14.899  70.635  1.00  0.00    -0.029 F  
HETATM   30  F   UNL     1      -5.431  15.158  69.280  1.00  0.00    -0.094 F  
HETATM   31  F   UNL     1      -6.669  13.367  69.159  1.00  0.00    -0.096 F  
HETATM   32  F   UNL     1      -9.428  19.071  65.431  1.00  0.00     0.227 F  
HETATM   33  F   UNL     1     -11.059  18.681  66.820  1.00  0.00    -0.345 F  
HETATM   34  C   UNL     1      -7.704  16.847  68.617  1.00  0.00    -0.235 A  
HETATM   35  C   UNL     1      -8.505  17.683  67.845  1.00  0.00    -0.233 A  
HETATM   36  C   UNL     1     -10.138  18.066  66.026  1.00  0.00    -0.266 C  
HETATM   37  C   UNL     1      -9.247  17.128  66.809  1.00  0.00    -0.270 A  
HETATM   38  C   UNL     1      -9.151  15.710  66.554  1.00  0.00    -0.337 A  
HETATM   39  C   UNL     1      -6.719  14.717  69.348  1.00  0.00    -0.149 C  
ENDBRANCH  23  26
ENDBRANCH   1  22
TORSDOF 2
ENDMDL
MODEL       76
REMARK 921   NORMALIZED FREE ENERGY PREDICTED BY IDOCK:   -5.12 KCAL/MOL
REMARK 922        TOTAL FREE ENERGY PREDICTED BY IDOCK:   -6.35 KCAL/MOL
REMARK 923 INTER-LIGAND FREE ENERGY PREDICTED BY IDOCK:   -5.71 KCAL/MOL
REMARK 924 INTRA-LIGAND FREE ENERGY PREDICTED BY IDOCK:   -0.64 KCAL/MOL
REMARK 927      BINDING AFFINITY PREDICTED BY RF-SCORE:    0.00 PKD
ROOT
HETATM    1  C   UNL     1      -8.361   9.170  68.398  1.00  0.00    -0.120 C  
HETATM    2  H   UNL     1      -5.571   2.574  73.648  1.00  0.00     0.000 HD 
HETATM    3  C   UNL     1      -7.025   8.636  67.864  1.00  0.00    -0.078 C  
HETATM    4  C   UNL     1      -7.089   7.212  68.375  1.00  0.00    -0.085 C  
HETATM    5  C   UNL     1      -7.616   2.615  74.063  1.00  0.00    -0.047 C  
HETATM    6  O   UNL     1      -7.695   1.500  74.559  1.00  0.00    -0.031 OA 
HETATM    7  C   UNL     1      -9.537   9.412  70.557  1.00  0.00    -0.330 C  
HETATM    8  C   UNL     1      -7.484   7.426  69.836  1.00  0.00    -0.085 C  
HETATM    9  N   UNL     1      -6.448   3.060  73.464  1.00  0.00    -0.023 N  
HETATM   10  C   UNL     1      -8.212   8.859  70.014  1.00  0.00    -0.122 C  
HETATM   11  C   UNL     1      -7.770   6.268  70.792  1.00  0.00    -0.102 C  
HETATM   12  C   UNL     1      -7.119   4.979  70.247  1.00  0.00    -0.053 C  
HETATM   13  C   UNL     1      -7.266   9.256  71.261  1.00  0.00    -0.007 C  
HETATM   14  C   UNL     1      -7.436   8.152  72.504  1.00  0.00    -0.149 C  
HETATM   15  C   UNL     1      -7.101   3.823  71.227  1.00  0.00    -0.033 C  
HETATM   16  C   UNL     1      -7.117   6.641  72.153  1.00  0.00    -0.080 C  
HETATM   17  C   UNL     1      -6.456   4.215  72.575  1.00  0.00    -0.021 C  
HETATM   18  C   UNL     1      -6.477   5.827  74.538  1.00  0.00    -0.075 C  
HETATM   19  C   UNL     1      -7.207   5.444  73.229  1.00  0.00    -0.094 C  
HETATM   20  C   UNL     1      -8.577   4.863  73.653  1.00  0.00    -0.104 C  
HETATM   21  C   UNL     1      -8.758   3.562  74.014  1.00  0.00    -0.088 C  
ENDROOT
BRANCH   1  22
HETATM   22  C   UNL     1      -9.242   9.744  67.110  1.00  0.00    -0.138 C  
HETATM   23  N   UNL     1      -8.928  10.884  66.386  1.00  0.00    -0.169 N  
HETATM   24  O   UNL     1     -10.349   9.199  66.906  1.00  0.00    -0.254 OA 
HETATM   25  H   UNL     1      -7.974  11.234  66.478  1.00  0.00     0.000 HD 
BRANCH  23  26
HETATM   26  C   UNL     1      -9.835  11.649  65.490  1.00  0.00    -0.234 A  
HETATM   27  C   UNL     1      -9.849  11.428  64.088  1.00  0.00    -0.307 A  
HETATM   28  F   UNL     1     -12.425  14.788  66.879  1.00  0.00    -0.293 F  
HETATM   29  F   UNL     1      -8.222  11.000  62.411  1.00  0.00    -0.218 F  
HETATM   30  F   UNL     1      -9.736   9.475  62.724  1.00  0.00    -0.113 F  
HETATM   31  F   UNL     1      -8.128   9.735  64.174  1.00  0.00    -0.125 F  
HETATM   32  F   UNL     1     -13.777  14.318  65.238  1.00  0.00    -0.124 F  
HETATM   33  F   UNL     1     -12.160  15.746  64.947  1.00  0.00    -0.049 F  
HETATM   34  C   UNL     1     -10.708  12.170  63.229  1.00  0.00    -0.373 A  
HETATM   35  C   UNL     1     -11.556  13.164  63.707  1.00  0.00    -0.481 A  
HETATM   36  C   UNL     1     -12.465  14.557  65.538  1.00  0.00    -0.247 C  
HETATM   37  C   UNL     1     -11.562  13.439  65.070  1.00  0.00    -0.339 A  
HETATM   38  C   UNL     1     -10.706  12.676  65.946  1.00  0.00    -0.293 A  
HETATM   39  C   UNL     1      -8.989  10.418  63.366  1.00  0.00    -0.229 C  
ENDBRANCH  23  26
ENDBRANCH   1  22
TORSDOF 2
ENDMDL
MODEL       77
REMARK 921   NORMALIZED FREE ENERGY PREDICTED BY IDOCK:   -5.04 KCAL/MOL
REMARK 922        TOTAL FREE ENERGY PREDICTED BY IDOCK:   -6.26 KCAL/MOL
REMARK 923 INTER-LIGAND FREE ENERGY PREDICTED BY IDOCK:   -5.82 KCAL/MOL
REMARK 924 INTRA-LIGAND FREE ENERGY PREDICTED BY IDOCK:   -0.44 KCAL/MOL
REMARK 927      BINDING AFFINITY PREDICTED BY RF-SCORE:    0.00 PKD
ROOT
HETATM    1  C   UNL     1      -8.756  11.888  68.149  1.00  0.00    -0.173 C  
HETATM    2  H   UNL     1      -8.397  20.582  66.378  1.00  0.00     0.000 HD 
HETATM    3  C   UNL     1     -10.135  12.509  68.407  1.00  0.00    -0.216 C  
HETATM    4  C   UNL     1     -10.080  13.680  67.448  1.00  0.00    -0.241 C  
HETATM    5  C   UNL     1      -6.770  19.858  65.292  1.00  0.00    -0.296 C  
HETATM    6  O   UNL     1      -6.638  20.821  64.551  1.00  0.00    -0.311 OA 
HETATM    7  C   UNL     1      -6.376  12.548  68.225  1.00  0.00    -0.062 C  
HETATM    8  C   UNL     1      -8.715  14.284  67.778  1.00  0.00    -0.179 C  
HETATM    9  N   UNL     1      -7.844  19.754  66.161  1.00  0.00    -0.327 N  
HETATM   10  C   UNL     1      -7.760  13.169  68.459  1.00  0.00    -0.117 C  
HETATM   11  C   UNL     1      -8.128  15.467  67.009  1.00  0.00    -0.272 C  
HETATM   12  C   UNL     1      -9.262  16.224  66.288  1.00  0.00    -0.363 C  
HETATM   13  C   UNL     1      -7.369  14.157  69.676  1.00  0.00     0.176 C  
HETATM   14  C   UNL     1      -6.635  15.543  69.097  1.00  0.00    -0.136 C  
HETATM   15  C   UNL     1      -8.853  17.565  65.709  1.00  0.00     0.253 C  
HETATM   16  C   UNL     1      -7.471  16.403  68.063  1.00  0.00    -0.151 C  
HETATM   17  C   UNL     1      -8.195  18.477  66.770  1.00  0.00    -0.257 C  
HETATM   18  C   UNL     1      -6.360  18.711  68.510  1.00  0.00    -0.227 C  
HETATM   19  C   UNL     1      -6.932  17.778  67.417  1.00  0.00    -0.197 C  
HETATM   20  C   UNL     1      -5.888  17.759  66.275  1.00  0.00    -0.239 C  
HETATM   21  C   UNL     1      -5.834  18.705  65.296  1.00  0.00    -0.284 C  
ENDROOT
BRANCH   1  22
HETATM   22  C   UNL     1      -8.978  10.307  67.685  1.00  0.00    -0.134 C  
HETATM   23  N   UNL     1      -8.022   9.531  67.047  1.00  0.00    -0.108 N  
HETATM   24  O   UNL     1     -10.143   9.861  67.767  1.00  0.00    -0.162 OA 
HETATM   25  H   UNL     1      -7.057   9.859  67.104  1.00  0.00     0.000 HD 
BRANCH  23  26
HETATM   26  C   UNL     1      -8.255   8.274  66.289  1.00  0.00    -0.112 A  
HETATM   27  C   UNL     1      -7.728   8.089  64.983  1.00  0.00    -0.112 A  
HETATM   28  F   UNL     1     -10.694   5.051  67.758  1.00  0.00    -0.164 F  
HETATM   29  F   UNL     1      -7.444   9.440  63.051  1.00  0.00    -0.105 F  
HETATM   30  F   UNL     1      -5.645   8.622  63.952  1.00  0.00    -0.061 F  
HETATM   31  F   UNL     1      -6.699  10.273  64.913  1.00  0.00    -0.116 F  
HETATM   32  F   UNL     1      -9.480   3.676  66.584  1.00  0.00    -0.169 F  
HETATM   33  F   UNL     1     -11.225   4.625  65.693  1.00  0.00    -0.320 F  
HETATM   34  C   UNL     1      -7.962   6.890  64.253  1.00  0.00    -0.086 A  
HETATM   35  C   UNL     1      -8.735   5.850  64.761  1.00  0.00     0.068 A  
HETATM   36  C   UNL     1     -10.165   4.856  66.518  1.00  0.00    -0.270 C  
HETATM   37  C   UNL     1      -9.296   5.991  66.025  1.00  0.00    -0.100 A  
HETATM   38  C   UNL     1      -9.046   7.198  66.777  1.00  0.00    -0.169 A  
HETATM   39  C   UNL     1      -6.889   9.101  64.241  1.00  0.00    -0.084 C  
ENDBRANCH  23  26
ENDBRANCH   1  22
TORSDOF 2
ENDMDL
MODEL       78
REMARK 921   NORMALIZED FREE ENERGY PREDICTED BY IDOCK:   -4.79 KCAL/MOL
REMARK 922        TOTAL FREE ENERGY PREDICTED BY IDOCK:   -5.98 KCAL/MOL
REMARK 923 INTER-LIGAND FREE ENERGY PREDICTED BY IDOCK:   -5.32 KCAL/MOL
REMARK 924 INTRA-LIGAND FREE ENERGY PREDICTED BY IDOCK:   -0.66 KCAL/MOL
REMARK 927      BINDING AFFINITY PREDICTED BY RF-SCORE:    0.00 PKD
ROOT
HETATM    1  C   UNL     1      -8.235  12.233  67.992  1.00  0.00    -0.163 C  
HETATM    2  H   UNL     1      -7.079   3.523  66.708  1.00  0.00     0.000 HD 
HETATM    3  C   UNL     1      -7.488  11.645  69.196  1.00  0.00     0.003 C  
HETATM    4  C   UNL     1      -6.806  10.467  68.532  1.00  0.00    -0.064 C  
HETATM    5  C   UNL     1      -7.384   4.206  64.760  1.00  0.00    -0.071 C  
HETATM    6  O   UNL     1      -6.916   3.236  64.182  1.00  0.00    -0.046 OA 
HETATM    7  C   UNL     1      -9.891  11.522  66.302  1.00  0.00    -0.245 C  
HETATM    8  C   UNL     1      -7.965   9.835  67.760  1.00  0.00    -0.101 C  
HETATM    9  N   UNL     1      -7.301   4.338  66.137  1.00  0.00    -0.075 N  
HETATM   10  C   UNL     1      -9.123  10.933  67.493  1.00  0.00    -0.142 C  
HETATM   11  C   UNL     1      -7.781   8.635  66.832  1.00  0.00    -0.091 C  
HETATM   12  C   UNL     1      -6.475   7.899  67.196  1.00  0.00    -0.056 C  
HETATM   13  C   UNL     1     -10.274   9.944  68.046  1.00  0.00    -0.219 C  
HETATM   14  C   UNL     1     -10.328   8.538  67.142  1.00  0.00    -0.377 C  
HETATM   15  C   UNL     1      -6.310   6.546  66.531  1.00  0.00    -0.042 C  
HETATM   16  C   UNL     1      -8.992   7.691  67.078  1.00  0.00    -0.148 C  
HETATM   17  C   UNL     1      -7.527   5.626  66.781  1.00  0.00    -0.087 C  
HETATM   18  C   UNL     1     -10.047   5.362  66.607  1.00  0.00    -0.250 C  
HETATM   19  C   UNL     1      -8.864   6.301  66.272  1.00  0.00    -0.153 C  
HETATM   20  C   UNL     1      -8.727   6.290  64.731  1.00  0.00     0.203 C  
HETATM   21  C   UNL     1      -8.031   5.337  64.049  1.00  0.00    -0.112 C  
ENDROOT
BRANCH   1  22
HETATM   22  C   UNL     1      -7.760  13.817  67.811  1.00  0.00    -0.168 C  
HETATM   23  N   UNL     1      -8.371  14.898  68.426  1.00  0.00    -0.147 N  
HETATM   24  O   UNL     1      -6.908  14.044  66.924  1.00  0.00     0.170 OA 
HETATM   25  H   UNL     1      -8.965  14.690  69.229  1.00  0.00     0.000 HD 
BRANCH  23  26
HETATM   26  C   UNL     1      -8.251  16.329  68.040  1.00  0.00    -0.156 A  
HETATM   27  C   UNL     1      -9.101  16.904  67.058  1.00  0.00    -0.240 A  
HETATM   28  F   UNL     1      -5.233  18.954  69.620  1.00  0.00    -0.178 F  
HETATM   29  F   UNL     1     -10.025  16.210  64.983  1.00  0.00    -0.229 F  
HETATM   30  F   UNL     1     -11.426  16.704  66.567  1.00  0.00     0.212 F  
HETATM   31  F   UNL     1     -10.292  14.843  66.649  1.00  0.00    -0.266 F  
HETATM   32  F   UNL     1      -6.603  20.618  69.310  1.00  0.00    -0.294 F  
HETATM   33  F   UNL     1      -5.262  19.996  67.712  1.00  0.00    -0.174 F  
HETATM   34  C   UNL     1      -8.977  18.270  66.680  1.00  0.00    -0.296 A  
HETATM   35  C   UNL     1      -8.008  19.106  67.225  1.00  0.00    -0.277 A  
HETATM   36  C   UNL     1      -6.067  19.518  68.702  1.00  0.00    -0.235 C  
HETATM   37  C   UNL     1      -7.132  18.586  68.171  1.00  0.00    -0.261 A  
HETATM   38  C   UNL     1      -7.266  17.206  68.571  1.00  0.00    -0.220 A  
HETATM   39  C   UNL     1     -10.196  16.165  66.328  1.00  0.00    -0.320 C  
ENDBRANCH  23  26
ENDBRANCH   1  22
TORSDOF 2
ENDMDL
MODEL       79
REMARK 921   NORMALIZED FREE ENERGY PREDICTED BY IDOCK:   -4.64 KCAL/MOL
REMARK 922        TOTAL FREE ENERGY PREDICTED BY IDOCK:   -5.81 KCAL/MOL
REMARK 923 INTER-LIGAND FREE ENERGY PREDICTED BY IDOCK:   -5.71 KCAL/MOL
REMARK 924 INTRA-LIGAND FREE ENERGY PREDICTED BY IDOCK:   -0.10 KCAL/MOL
REMARK 927      BINDING AFFINITY PREDICTED BY RF-SCORE:    0.00 PKD
ROOT
HETATM    1  C   UNL     1     -10.797   9.489  69.287  1.00  0.00    -0.211 C  
HETATM    2  H   UNL     1      -8.420   3.075  74.948  1.00  0.00     0.000 HD 
HETATM    3  C   UNL     1     -11.692   9.563  70.531  1.00  0.00    -0.285 C  
HETATM    4  C   UNL     1     -10.758   8.964  71.561  1.00  0.00    -0.398 C  
HETATM    5  C   UNL     1      -6.701   3.274  73.782  1.00  0.00    -0.035 C  
HETATM    6  O   UNL     1      -5.928   2.722  74.551  1.00  0.00    -0.004 OA 
HETATM    7  C   UNL     1      -9.557   7.794  67.985  1.00  0.00    -0.166 C  
HETATM    8  C   UNL     1     -10.271   7.705  70.842  1.00  0.00    -0.202 C  
HETATM    9  N   UNL     1      -8.010   3.548  74.143  1.00  0.00    -0.073 N  
HETATM   10  C   UNL     1     -10.434   7.878  69.242  1.00  0.00    -0.221 C  
HETATM   11  C   UNL     1      -9.217   6.771  71.436  1.00  0.00    -0.153 C  
HETATM   12  C   UNL     1      -9.143   6.983  72.962  1.00  0.00    -0.156 C  
HETATM   13  C   UNL     1     -11.180   6.453  69.101  1.00  0.00    -0.421 C  
HETATM   14  C   UNL     1     -10.194   5.215  69.641  1.00  0.00    -0.337 C  
HETATM   15  C   UNL     1      -8.332   5.939  73.702  1.00  0.00    -0.113 C  
HETATM   16  C   UNL     1      -9.690   5.319  71.139  1.00  0.00    -0.232 C  
HETATM   17  C   UNL     1      -8.812   4.504  73.388  1.00  0.00    -0.102 C  
HETATM   18  C   UNL     1      -9.300   2.787  71.581  1.00  0.00    -0.194 C  
HETATM   19  C   UNL     1      -8.750   4.210  71.835  1.00  0.00    -0.129 C  
HETATM   20  C   UNL     1      -7.235   4.149  71.524  1.00  0.00    -0.050 C  
HETATM   21  C   UNL     1      -6.303   3.738  72.428  1.00  0.00    -0.014 C  
ENDROOT
BRANCH   1  22
HETATM   22  C   UNL     1     -10.646  11.024  68.665  1.00  0.00    -0.196 C  
HETATM   23  N   UNL     1      -9.440  11.680  68.467  1.00  0.00    -0.260 N  
HETATM   24  O   UNL     1     -11.703  11.680  68.537  1.00  0.00    -0.286 OA 
HETATM   25  H   UNL     1      -8.602  11.098  68.453  1.00  0.00     0.000 HD 
BRANCH  23  26
HETATM   26  C   UNL     1      -9.240  13.140  68.274  1.00  0.00    -0.194 A  
HETATM   27  C   UNL     1      -7.985  13.754  68.525  1.00  0.00    -0.131 A  
HETATM   28  F   UNL     1     -12.400  15.823  67.129  1.00  0.00     0.470 F  
HETATM   29  F   UNL     1      -6.270  13.528  70.153  1.00  0.00    -0.133 F  
HETATM   30  F   UNL     1      -5.725  13.130  68.089  1.00  0.00    -0.065 F  
HETATM   31  F   UNL     1      -6.928  11.690  69.201  1.00  0.00    -0.090 F  
HETATM   32  F   UNL     1     -10.901  17.093  66.189  1.00  0.00    -0.266 F  
HETATM   33  F   UNL     1     -11.399  17.362  68.292  1.00  0.00    -0.242 F  
HETATM   34  C   UNL     1      -7.797  15.155  68.352  1.00  0.00    -0.127 A  
HETATM   35  C   UNL     1      -8.831  15.998  67.956  1.00  0.00    -0.175 A  
HETATM   36  C   UNL     1     -11.190  16.411  67.338  1.00  0.00     0.041 C  
HETATM   37  C   UNL     1     -10.087  15.451  67.723  1.00  0.00    -0.227 A  
HETATM   38  C   UNL     1     -10.277  14.029  67.879  1.00  0.00    -0.240 A  
HETATM   39  C   UNL     1      -6.746  13.026  68.987  1.00  0.00    -0.099 C  
ENDBRANCH  23  26
ENDBRANCH   1  22
TORSDOF 2
ENDMDL
MODEL       80
REMARK 921   NORMALIZED FREE ENERGY PREDICTED BY IDOCK:   -4.56 KCAL/MOL
REMARK 922        TOTAL FREE ENERGY PREDICTED BY IDOCK:   -5.73 KCAL/MOL
REMARK 923 INTER-LIGAND FREE ENERGY PREDICTED BY IDOCK:   -5.16 KCAL/MOL
REMARK 924 INTRA-LIGAND FREE ENERGY PREDICTED BY IDOCK:   -0.57 KCAL/MOL
REMARK 927      BINDING AFFINITY PREDICTED BY RF-SCORE:    0.00 PKD
ROOT
HETATM    1  C   UNL     1      -8.212  11.929  67.395  1.00  0.00    -0.164 C  
HETATM    2  H   UNL     1      -4.839   4.083  64.964  1.00  0.00     0.000 HD 
HETATM    3  C   UNL     1      -6.974  11.630  68.250  1.00  0.00    -0.074 C  
HETATM    4  C   UNL     1      -6.205  10.740  67.296  1.00  0.00    -0.061 C  
HETATM    5  C   UNL     1      -5.950   4.611  63.279  1.00  0.00    -0.017 C  
HETATM    6  O   UNL     1      -5.411   3.846  62.492  1.00  0.00    -0.005 OA 
HETATM    7  C   UNL     1     -10.007  10.697  66.227  1.00  0.00    -0.274 C  
HETATM    8  C   UNL     1      -7.287   9.754  66.855  1.00  0.00    -0.091 C  
HETATM    9  N   UNL     1      -5.478   4.774  64.571  1.00  0.00    -0.013 N  
HETATM   10  C   UNL     1      -8.754  10.404  67.064  1.00  0.00    -0.132 C  
HETATM   11  C   UNL     1      -7.041   8.675  65.801  1.00  0.00    -0.079 C  
HETATM   12  C   UNL     1      -5.525   8.415  65.676  1.00  0.00    -0.032 C  
HETATM   13  C   UNL     1      -9.293   9.094  67.839  1.00  0.00    -0.151 C  
HETATM   14  C   UNL     1      -9.187   7.744  66.860  1.00  0.00    -0.187 C  
HETATM   15  C   UNL     1      -5.164   7.189  64.862  1.00  0.00    -0.028 C  
HETATM   16  C   UNL     1      -7.746   7.385  66.309  1.00  0.00    -0.093 C  
HETATM   17  C   UNL     1      -5.880   5.920  65.377  1.00  0.00    -0.024 C  
HETATM   18  C   UNL     1      -8.103   4.835  65.953  1.00  0.00    -0.107 C  
HETATM   19  C   UNL     1      -7.451   6.110  65.369  1.00  0.00    -0.083 C  
HETATM   20  C   UNL     1      -7.818   6.133  63.866  1.00  0.00    -0.113 C  
HETATM   21  C   UNL     1      -7.113   5.460  62.914  1.00  0.00    -0.038 C  
ENDROOT
BRANCH   1  22
HETATM   22  C   UNL     1      -8.346  13.579  67.235  1.00  0.00    -0.179 C  
HETATM   23  N   UNL     1      -7.900  14.500  68.170  1.00  0.00    -0.125 N  
HETATM   24  O   UNL     1      -9.052  13.991  66.289  1.00  0.00    -0.160 OA 
HETATM   25  H   UNL     1      -7.225  14.162  68.857  1.00  0.00     0.000 HD 
BRANCH  23  26
HETATM   26  C   UNL     1      -8.300  15.928  68.277  1.00  0.00    -0.165 A  
HETATM   27  C   UNL     1      -9.437  16.323  69.030  1.00  0.00    -0.258 A  
HETATM   28  F   UNL     1      -6.272  19.107  66.209  1.00  0.00    -0.173 F  
HETATM   29  F   UNL     1     -11.625  15.472  69.391  1.00  0.00    -0.268 F  
HETATM   30  F   UNL     1     -10.339  15.651  71.132  1.00  0.00    -0.133 F  
HETATM   31  F   UNL     1      -9.996  14.064  69.676  1.00  0.00     0.092 F  
HETATM   32  F   UNL     1      -6.877  20.454  67.810  1.00  0.00    -0.278 F  
HETATM   33  F   UNL     1      -8.183  20.138  66.096  1.00  0.00    -0.313 F  
HETATM   34  C   UNL     1      -9.827  17.689  69.121  1.00  0.00    -0.145 A  
HETATM   35  C   UNL     1      -9.138  18.703  68.462  1.00  0.00    -0.358 A  
HETATM   36  C   UNL     1      -7.343  19.494  66.955  1.00  0.00    -0.215 C  
HETATM   37  C   UNL     1      -8.033  18.367  67.689  1.00  0.00    -0.249 A  
HETATM   38  C   UNL     1      -7.623  16.985  67.609  1.00  0.00    -0.180 A  
HETATM   39  C   UNL     1     -10.333  15.381  69.795  1.00  0.00    -0.286 C  
ENDBRANCH  23  26
ENDBRANCH   1  22
TORSDOF 2
ENDMDL
MODEL       81
REMARK 921   NORMALIZED FREE ENERGY PREDICTED BY IDOCK:   -4.43 KCAL/MOL
REMARK 922        TOTAL FREE ENERGY PREDICTED BY IDOCK:   -5.57 KCAL/MOL
REMARK 923 INTER-LIGAND FREE ENERGY PREDICTED BY IDOCK:   -5.00 KCAL/MOL
REMARK 924 INTRA-LIGAND FREE ENERGY PREDICTED BY IDOCK:   -0.57 KCAL/MOL
REMARK 927      BINDING AFFINITY PREDICTED BY RF-SCORE:    0.00 PKD
ROOT
HETATM    1  C   UNL     1     -10.737   9.159  69.432  1.00  0.00    -0.210 C  
HETATM    2  H   UNL     1      -9.732   1.891  74.434  1.00  0.00     0.000 HD 
HETATM    3  C   UNL     1     -11.887   9.085  70.444  1.00  0.00    -0.018 C  
HETATM    4  C   UNL     1     -11.212   8.304  71.552  1.00  0.00    -0.316 C  
HETATM    5  C   UNL     1      -7.794   2.190  73.720  1.00  0.00    -0.042 C  
HETATM    6  O   UNL     1      -7.217   1.500  74.547  1.00  0.00    -0.022 OA 
HETATM    7  C   UNL     1      -9.248   7.624  68.193  1.00  0.00    -0.138 C  
HETATM    8  C   UNL     1     -10.585   7.146  70.775  1.00  0.00    -0.240 C  
HETATM    9  N   UNL     1      -9.149   2.461  73.821  1.00  0.00    -0.076 N  
HETATM   10  C   UNL     1     -10.384   7.559  69.224  1.00  0.00    -0.209 C  
HETATM   11  C   UNL     1      -9.698   6.092  71.437  1.00  0.00    -0.187 C  
HETATM   12  C   UNL     1      -9.966   6.075  72.956  1.00  0.00    -0.186 C  
HETATM   13  C   UNL     1     -11.089   6.200  68.706  1.00  0.00    -0.398 C  
HETATM   14  C   UNL     1     -10.257   4.858  69.256  1.00  0.00    -0.205 C  
HETATM   15  C   UNL     1      -9.348   4.901  73.689  1.00  0.00    -0.126 C  
HETATM   16  C   UNL     1     -10.101   4.721  70.826  1.00  0.00    -0.286 C  
HETATM   17  C   UNL     1      -9.755   3.548  73.062  1.00  0.00    -0.123 C  
HETATM   18  C   UNL     1      -9.838   2.137  70.952  1.00  0.00    -0.039 C  
HETATM   19  C   UNL     1      -9.349   3.484  71.535  1.00  0.00    -0.209 C  
HETATM   20  C   UNL     1      -7.803   3.408  71.560  1.00  0.00    -0.057 C  
HETATM   21  C   UNL     1      -7.100   2.830  72.574  1.00  0.00    -0.031 C  
ENDROOT
BRANCH   1  22
HETATM   22  C   UNL     1     -10.440  10.761  69.100  1.00  0.00    -0.218 C  
HETATM   23  N   UNL     1     -11.409  11.752  69.066  1.00  0.00    -0.255 N  
HETATM   24  O   UNL     1      -9.293  11.041  68.686  1.00  0.00    -0.183 OA 
HETATM   25  H   UNL     1     -12.296  11.537  69.523  1.00  0.00     0.000 HD 
BRANCH  23  26
HETATM   26  C   UNL     1     -11.293  13.092  68.433  1.00  0.00    -0.289 A  
HETATM   27  C   UNL     1     -11.622  13.296  67.067  1.00  0.00    -0.404 A  
HETATM   28  F   UNL     1      -9.772  16.548  70.492  1.00  0.00     0.635 F  
HETATM   29  F   UNL     1     -11.328  12.090  65.042  1.00  0.00    -0.348 F  
HETATM   30  F   UNL     1     -13.371  12.501  65.654  1.00  0.00     0.418 F  
HETATM   31  F   UNL     1     -12.201  10.981  66.693  1.00  0.00     0.611 F  
HETATM   32  F   UNL     1     -11.012  17.789  69.201  1.00  0.00    -0.047 F  
HETATM   33  F   UNL     1      -8.998  17.239  68.582  1.00  0.00    -0.250 F  
HETATM   34  C   UNL     1     -11.499  14.577  66.459  1.00  0.00    -0.366 A  
HETATM   35  C   UNL     1     -11.028  15.686  67.155  1.00  0.00    -0.270 A  
HETATM   36  C   UNL     1     -10.117  16.756  69.191  1.00  0.00    -0.280 C  
HETATM   37  C   UNL     1     -10.666  15.535  68.488  1.00  0.00    -0.259 A  
HETATM   38  C   UNL     1     -10.807  14.242  69.114  1.00  0.00    -0.264 A  
HETATM   39  C   UNL     1     -12.124  12.223  66.132  1.00  0.00    -0.111 C  
ENDBRANCH  23  26
ENDBRANCH   1  22
TORSDOF 2
ENDMDL
MODEL       82
REMARK 921   NORMALIZED FREE ENERGY PREDICTED BY IDOCK:   -4.09 KCAL/MOL
REMARK 922        TOTAL FREE ENERGY PREDICTED BY IDOCK:   -5.20 KCAL/MOL
REMARK 923 INTER-LIGAND FREE ENERGY PREDICTED BY IDOCK:   -4.46 KCAL/MOL
REMARK 924 INTRA-LIGAND FREE ENERGY PREDICTED BY IDOCK:   -0.74 KCAL/MOL
REMARK 927      BINDING AFFINITY PREDICTED BY RF-SCORE:    0.00 PKD
ROOT
HETATM    1  C   UNL     1      -7.225   9.431  68.554  1.00  0.00    -0.072 C  
HETATM    2  H   UNL     1     -10.139  17.816  68.780  1.00  0.00     0.000 HD 
HETATM    3  C   UNL     1      -8.412   9.522  69.522  1.00  0.00    -0.156 C  
HETATM    4  C   UNL     1      -9.150  10.701  68.922  1.00  0.00    -0.181 C  
HETATM    5  C   UNL     1      -9.122  17.766  66.959  1.00  0.00    -0.252 C  
HETATM    6  O   UNL     1      -9.634  18.762  66.469  1.00  0.00    -0.324 OA 
HETATM    7  C   UNL     1      -5.391  10.860  67.720  1.00  0.00    -0.039 C  
HETATM    8  C   UNL     1      -8.018  11.714  68.744  1.00  0.00    -0.086 C  
HETATM    9  N   UNL     1      -9.562  17.243  68.165  1.00  0.00    -0.274 N  
HETATM   10  C   UNL     1      -6.593  10.952  68.670  1.00  0.00    -0.057 C  
HETATM   11  C   UNL     1      -8.226  13.074  68.078  1.00  0.00    -0.161 C  
HETATM   12  C   UNL     1      -9.724  13.442  68.116  1.00  0.00    -0.226 C  
HETATM   13  C   UNL     1      -5.942  11.933  69.776  1.00  0.00    -0.132 C  
HETATM   14  C   UNL     1      -5.988  13.521  69.256  1.00  0.00    -0.091 C  
HETATM   15  C   UNL     1     -10.028  14.876  67.730  1.00  0.00    -0.222 C  
HETATM   16  C   UNL     1      -7.419  14.108  68.914  1.00  0.00    -0.112 C  
HETATM   17  C   UNL     1      -9.212  15.887  68.566  1.00  0.00    -0.200 C  
HETATM   18  C   UNL     1      -6.902  16.622  69.326  1.00  0.00    -0.232 C  
HETATM   19  C   UNL     1      -7.658  15.623  68.419  1.00  0.00    -0.121 C  
HETATM   20  C   UNL     1      -7.343  16.038  66.962  1.00  0.00    -0.258 C  
HETATM   21  C   UNL     1      -8.032  17.007  66.296  1.00  0.00    -0.343 C  
ENDROOT
BRANCH   1  22
HETATM   22  C   UNL     1      -7.209   7.903  67.897  1.00  0.00    -0.091 C  
HETATM   23  N   UNL     1      -6.256   7.440  67.002  1.00  0.00    -0.045 N  
HETATM   24  O   UNL     1      -8.223   7.199  68.098  1.00  0.00    -0.122 OA 
HETATM   25  H   UNL     1      -5.385   7.967  66.951  1.00  0.00     0.000 HD 
BRANCH  23  26
HETATM   26  C   UNL     1      -6.372   6.256  66.110  1.00  0.00    -0.039 A  
HETATM   27  C   UNL     1      -6.742   6.392  64.746  1.00  0.00    -0.039 A  
HETATM   28  F   UNL     1      -5.822   2.214  67.470  1.00  0.00    -0.017 F  
HETATM   29  F   UNL     1      -8.282   7.721  63.520  1.00  0.00    -0.142 F  
HETATM   30  F   UNL     1      -6.178   7.948  63.029  1.00  0.00    -0.066 F  
HETATM   31  F   UNL     1      -6.969   8.793  64.878  1.00  0.00    -0.071 F  
HETATM   32  F   UNL     1      -5.164   1.690  65.461  1.00  0.00    -0.004 F  
HETATM   33  F   UNL     1      -7.278   1.604  65.976  1.00  0.00    -0.046 F  
HETATM   34  C   UNL     1      -6.865   5.257  63.895  1.00  0.00    -0.046 A  
HETATM   35  C   UNL     1      -6.657   3.960  64.354  1.00  0.00    -0.043 A  
HETATM   36  C   UNL     1      -6.146   2.341  66.154  1.00  0.00    -0.023 C  
HETATM   37  C   UNL     1      -6.318   3.770  65.689  1.00  0.00    -0.032 A  
HETATM   38  C   UNL     1      -6.174   4.919  66.550  1.00  0.00    -0.032 A  
HETATM   39  C   UNL     1      -7.038   7.703  64.060  1.00  0.00    -0.068 C  
ENDBRANCH  23  26
ENDBRANCH   1  22
TORSDOF 2
ENDMDL
MODEL       83
REMARK 921   NORMALIZED FREE ENERGY PREDICTED BY IDOCK:   -3.97 KCAL/MOL
REMARK 922        TOTAL FREE ENERGY PREDICTED BY IDOCK:   -5.06 KCAL/MOL
REMARK 923 INTER-LIGAND FREE ENERGY PREDICTED BY IDOCK:   -4.68 KCAL/MOL
REMARK 924 INTRA-LIGAND FREE ENERGY PREDICTED BY IDOCK:   -0.39 KCAL/MOL
REMARK 927      BINDING AFFINITY PREDICTED BY RF-SCORE:    0.00 PKD
ROOT
HETATM    1  C   UNL     1      -7.736   9.488  67.432  1.00  0.00    -0.095 C  
HETATM    2  H   UNL     1     -10.731   2.315  71.725  1.00  0.00     0.000 HD 
HETATM    3  C   UNL     1      -8.524   8.610  66.450  1.00  0.00    -0.117 C  
HETATM    4  C   UNL     1      -9.468   7.922  67.413  1.00  0.00    -0.179 C  
HETATM    5  C   UNL     1     -10.397   3.646  73.297  1.00  0.00    -0.163 C  
HETATM    6  O   UNL     1     -11.084   3.075  74.131  1.00  0.00    -0.146 OA 
HETATM    7  C   UNL     1      -6.355   9.227  69.463  1.00  0.00    -0.043 C  
HETATM    8  C   UNL     1      -8.508   7.457  68.508  1.00  0.00    -0.125 C  
HETATM    9  N   UNL     1     -10.377   3.239  71.972  1.00  0.00    -0.032 N  
HETATM   10  C   UNL     1      -7.164   8.358  68.491  1.00  0.00    -0.081 C  
HETATM   11  C   UNL     1      -8.984   6.768  69.786  1.00  0.00    -0.144 C  
HETATM   12  C   UNL     1     -10.393   6.181  69.559  1.00  0.00    -0.277 C  
HETATM   13  C   UNL     1      -6.214   7.051  68.503  1.00  0.00    -0.034 C  
HETATM   14  C   UNL     1      -6.499   6.127  69.866  1.00  0.00    -0.043 C  
HETATM   15  C   UNL     1     -10.868   5.248  70.655  1.00  0.00    -0.118 C  
HETATM   16  C   UNL     1      -7.983   5.613  70.071  1.00  0.00    -0.091 C  
HETATM   17  C   UNL     1      -9.856   4.112  70.928  1.00  0.00    -0.177 C  
HETATM   18  C   UNL     1      -7.458   3.514  71.512  1.00  0.00    -0.047 C  
HETATM   19  C   UNL     1      -8.437   4.694  71.315  1.00  0.00    -0.112 C  
HETATM   20  C   UNL     1      -8.655   5.313  72.716  1.00  0.00    -0.120 C  
HETATM   21  C   UNL     1      -9.568   4.838  73.609  1.00  0.00    -0.142 C  
ENDROOT
BRANCH   1  22
HETATM   22  C   UNL     1      -7.883  11.071  66.944  1.00  0.00    -0.140 C  
HETATM   23  N   UNL     1      -8.268  12.117  67.768  1.00  0.00    -0.143 N  
HETATM   24  O   UNL     1      -7.807  11.284  65.714  1.00  0.00     0.008 OA 
HETATM   25  H   UNL     1      -8.200  11.954  68.773  1.00  0.00     0.000 HD 
BRANCH  23  26
HETATM   26  C   UNL     1      -8.769  13.450  67.342  1.00  0.00    -0.209 A  
HETATM   27  C   UNL     1      -8.342  14.641  67.986  1.00  0.00    -0.146 A  
HETATM   28  F   UNL     1     -11.720  13.987  64.260  1.00  0.00    -0.384 F  
HETATM   29  F   UNL     1      -7.882  15.302  70.221  1.00  0.00    -0.063 F  
HETATM   30  F   UNL     1      -6.239  15.412  68.805  1.00  0.00    -0.094 F  
HETATM   31  F   UNL     1      -6.916  13.477  69.549  1.00  0.00    -0.097 F  
HETATM   32  F   UNL     1     -10.842  15.935  63.841  1.00  0.00     0.054 F  
HETATM   33  F   UNL     1     -12.407  15.742  65.342  1.00  0.00     0.461 F  
HETATM   34  C   UNL     1      -8.832  15.917  67.586  1.00  0.00    -0.180 A  
HETATM   35  C   UNL     1      -9.768  16.065  66.568  1.00  0.00    -0.284 A  
HETATM   36  C   UNL     1     -11.290  15.134  64.854  1.00  0.00    -0.399 C  
HETATM   37  C   UNL     1     -10.240  14.928  65.922  1.00  0.00    -0.333 A  
HETATM   38  C   UNL     1      -9.732  13.635  66.312  1.00  0.00    -0.295 A  
HETATM   39  C   UNL     1      -7.355  14.698  69.127  1.00  0.00    -0.143 C  
ENDBRANCH  23  26
ENDBRANCH   1  22
TORSDOF 2
ENDMDL
MODEL       84
REMARK 921   NORMALIZED FREE ENERGY PREDICTED BY IDOCK:   -3.32 KCAL/MOL
REMARK 922        TOTAL FREE ENERGY PREDICTED BY IDOCK:   -4.34 KCAL/MOL
REMARK 923 INTER-LIGAND FREE ENERGY PREDICTED BY IDOCK:   -3.77 KCAL/MOL
REMARK 924 INTRA-LIGAND FREE ENERGY PREDICTED BY IDOCK:   -0.57 KCAL/MOL
REMARK 927      BINDING AFFINITY PREDICTED BY RF-SCORE:    0.00 PKD
ROOT
HETATM    1  C   UNL     1      -7.779   8.822  68.157  1.00  0.00    -0.101 C  
HETATM    2  H   UNL     1     -12.739  16.004  66.524  1.00  0.00     0.000 HD 
HETATM    3  C   UNL     1      -8.527   9.215  69.438  1.00  0.00    -0.130 C  
HETATM    4  C   UNL     1      -9.735   9.900  68.836  1.00  0.00    -0.176 C  
HETATM    5  C   UNL     1     -12.452  15.237  64.605  1.00  0.00     0.027 C  
HETATM    6  O   UNL     1     -13.368  15.836  64.061  1.00  0.00     0.075 OA 
HETATM    7  C   UNL     1      -6.850   9.903  66.139  1.00  0.00    -0.097 C  
HETATM    8  C   UNL     1      -9.085  10.836  67.817  1.00  0.00    -0.151 C  
HETATM    9  N   UNL     1     -12.272  15.280  65.978  1.00  0.00     0.411 N  
HETATM   10  C   UNL     1      -7.618  10.286  67.411  1.00  0.00    -0.094 C  
HETATM   11  C   UNL     1      -9.897  11.709  66.861  1.00  0.00    -0.218 C  
HETATM   12  C   UNL     1     -11.326  11.886  67.415  1.00  0.00    -0.389 C  
HETATM   13  C   UNL     1      -6.939  11.729  67.667  1.00  0.00    -0.103 C  
HETATM   14  C   UNL     1      -7.623  12.888  66.675  1.00  0.00     0.606 C  
HETATM   15  C   UNL     1     -12.149  12.941  66.703  1.00  0.00    -0.360 C  
HETATM   16  C   UNL     1      -9.188  13.092  66.808  1.00  0.00    -0.229 C  
HETATM   17  C   UNL     1     -11.425  14.305  66.654  1.00  0.00    -0.364 C  
HETATM   18  C   UNL     1      -9.317  15.555  65.987  1.00  0.00    -0.379 C  
HETATM   19  C   UNL     1     -10.015  14.176  65.948  1.00  0.00    -0.331 C  
HETATM   20  C   UNL     1     -10.362  13.910  64.463  1.00  0.00    -0.260 C  
HETATM   21  C   UNL     1     -11.489  14.384  63.863  1.00  0.00     0.236 C  
ENDROOT
BRANCH   1  22
HETATM   22  C   UNL     1      -7.547   7.175  68.177  1.00  0.00    -0.115 C  
HETATM   23  N   UNL     1      -8.483   6.242  67.758  1.00  0.00    -0.117 N  
HETATM   24  O   UNL     1      -6.528   6.763  68.774  1.00  0.00    -0.037 OA 
HETATM   25  H   UNL     1      -9.239   6.589  67.166  1.00  0.00     0.000 HD 
BRANCH  23  26
HETATM   26  C   UNL     1      -8.502   4.791  68.079  1.00  0.00    -0.102 A  
HETATM   27  C   UNL     1      -8.450   3.806  67.057  1.00  0.00    -0.104 A  
HETATM   28  F   UNL     1      -8.917   3.265  72.078  1.00  0.00    -0.105 F  
HETATM   29  F   UNL     1      -9.384   3.546  64.889  1.00  0.00    -0.128 F  
HETATM   30  F   UNL     1      -7.217   3.599  65.027  1.00  0.00    -0.061 F  
HETATM   31  F   UNL     1      -8.375   5.431  65.271  1.00  0.00    -0.116 F  
HETATM   32  F   UNL     1      -7.795   1.504  71.459  1.00  0.00    -0.038 F  
HETATM   33  F   UNL     1      -9.960   1.559  71.228  1.00  0.00    -0.196 F  
HETATM   34  C   UNL     1      -8.481   2.417  67.365  1.00  0.00    -0.109 A  
HETATM   35  C   UNL     1      -8.590   1.949  68.671  1.00  0.00    -0.095 A  
HETATM   36  C   UNL     1      -8.835   2.318  71.104  1.00  0.00    -0.071 C  
HETATM   37  C   UNL     1      -8.672   2.871  69.707  1.00  0.00    -0.130 A  
HETATM   38  C   UNL     1      -8.622   4.281  69.401  1.00  0.00    -0.109 A  
HETATM   39  C   UNL     1      -8.358   4.102  65.580  1.00  0.00    -0.109 C  
ENDBRANCH  23  26
ENDBRANCH   1  22
TORSDOF 2
ENDMDL
MODEL       85
REMARK 921   NORMALIZED FREE ENERGY PREDICTED BY IDOCK:   -1.88 KCAL/MOL
REMARK 922        TOTAL FREE ENERGY PREDICTED BY IDOCK:   -2.74 KCAL/MOL
REMARK 923 INTER-LIGAND FREE ENERGY PREDICTED BY IDOCK:   -2.09 KCAL/MOL
REMARK 924 INTRA-LIGAND FREE ENERGY PREDICTED BY IDOCK:   -0.65 KCAL/MOL
REMARK 927      BINDING AFFINITY PREDICTED BY RF-SCORE:    0.00 PKD
ROOT
HETATM    1  C   UNL     1     -11.404   8.235  70.882  1.00  0.00    -0.292 C  
HETATM    2  H   UNL     1     -11.829  16.506  67.677  1.00  0.00     0.000 HD 
HETATM    3  C   UNL     1     -11.582   8.173  69.359  1.00  0.00     0.711 C  
HETATM    4  C   UNL     1     -10.950   9.492  68.967  1.00  0.00    -0.127 C  
HETATM    5  C   UNL     1     -10.871  16.805  69.507  1.00  0.00    -0.225 C  
HETATM    6  O   UNL     1     -10.411  17.910  69.261  1.00  0.00    -0.290 OA 
HETATM    7  C   UNL     1     -12.009   9.714  72.766  1.00  0.00     1.408 C  
HETATM    8  C   UNL     1     -11.625  10.459  69.941  1.00  0.00    -0.358 C  
HETATM    9  N   UNL     1     -11.511  16.053  68.534  1.00  0.00    -0.377 N  
HETATM   10  C   UNL     1     -12.163   9.658  71.240  1.00  0.00    -0.452 C  
HETATM   11  C   UNL     1     -11.261  11.941  70.018  1.00  0.00     0.043 C  
HETATM   12  C   UNL     1     -10.571  12.370  68.707  1.00  0.00    -0.213 C  
HETATM   13  C   UNL     1     -13.625  10.335  71.129  1.00  0.00    -0.079 C  
HETATM   14  C   UNL     1     -13.515  11.998  71.246  1.00  0.00     0.349 C  
HETATM   15  C   UNL     1     -10.399  13.868  68.549  1.00  0.00    -0.244 C  
HETATM   16  C   UNL     1     -12.597  12.721  70.178  1.00  0.00     0.008 C  
HETATM   17  C   UNL     1     -11.735  14.625  68.718  1.00  0.00    -0.324 C  
HETATM   18  C   UNL     1     -13.748  15.052  70.207  1.00  0.00     0.530 C  
HETATM   19  C   UNL     1     -12.389  14.318  70.126  1.00  0.00    -0.413 C  
HETATM   20  C   UNL     1     -11.454  15.028  71.135  1.00  0.00    -0.355 C  
HETATM   21  C   UNL     1     -10.749  16.154  70.836  1.00  0.00     0.233 C  
ENDROOT
BRANCH   1  22
HETATM   22  C   UNL     1     -10.549   6.891  71.359  1.00  0.00    -0.219 C  
HETATM   23  N   UNL     1      -9.372   6.455  70.769  1.00  0.00    -0.158 N  
HETATM   24  O   UNL     1     -11.108   6.140  72.188  1.00  0.00    -0.247 OA 
HETATM   25  H   UNL     1      -8.872   7.134  70.195  1.00  0.00     0.000 HD 
BRANCH  23  26
HETATM   26  C   UNL     1      -8.764   5.104  70.885  1.00  0.00    -0.130 A  
HETATM   27  C   UNL     1      -8.729   4.211  69.781  1.00  0.00    -0.117 A  
HETATM   28  F   UNL     1      -7.182   3.536  74.564  1.00  0.00    -0.047 F  
HETATM   29  F   UNL     1     -10.208   3.617  68.020  1.00  0.00    -0.027 F  
HETATM   30  F   UNL     1      -8.299   4.482  67.452  1.00  0.00    -0.102 F  
HETATM   31  F   UNL     1      -9.864   5.743  68.299  1.00  0.00    -0.123 F  
HETATM   32  F   UNL     1      -5.805   2.327  73.388  1.00  0.00     0.000 F  
HETATM   33  F   UNL     1      -7.783   1.562  73.882  1.00  0.00    -0.030 F  
HETATM   34  C   UNL     1      -8.158   2.912  69.897  1.00  0.00    -0.056 A  
HETATM   35  C   UNL     1      -7.629   2.438  71.093  1.00  0.00    -0.032 A  
HETATM   36  C   UNL     1      -7.118   2.689  73.501  1.00  0.00    -0.039 C  
HETATM   37  C   UNL     1      -7.663   3.262  72.212  1.00  0.00    -0.058 A  
HETATM   38  C   UNL     1      -8.224   4.587  72.095  1.00  0.00    -0.105 A  
HETATM   39  C   UNL     1      -9.272   4.519  68.407  1.00  0.00    -0.133 C  
ENDBRANCH  23  26
ENDBRANCH   1  22
TORSDOF 2
ENDMDL
MODEL       86
REMARK 921   NORMALIZED FREE ENERGY PREDICTED BY IDOCK:   -0.08 KCAL/MOL
REMARK 922        TOTAL FREE ENERGY PREDICTED BY IDOCK:   -0.72 KCAL/MOL
REMARK 923 INTER-LIGAND FREE ENERGY PREDICTED BY IDOCK:   -0.47 KCAL/MOL
REMARK 924 INTRA-LIGAND FREE ENERGY PREDICTED BY IDOCK:   -0.25 KCAL/MOL
REMARK 927      BINDING AFFINITY PREDICTED BY RF-SCORE:    0.00 PKD
ROOT
HETATM    1  C   UNL     1     -12.306  11.104  70.756  1.00  0.00    -0.504 C  
HETATM    2  H   UNL     1     -10.417  17.688  65.105  1.00  0.00     0.000 HD 
HETATM    3  C   UNL     1     -13.058  10.866  69.440  1.00  0.00     1.153 C  
HETATM    4  C   UNL     1     -12.135  11.580  68.477  1.00  0.00    -0.159 C  
HETATM    5  C   UNL     1      -8.805  17.783  66.426  1.00  0.00    -0.231 C  
HETATM    6  O   UNL     1      -8.057  18.432  65.710  1.00  0.00    -0.502 OA 
HETATM    7  C   UNL     1     -11.467  12.999  72.102  1.00  0.00     4.096 C  
HETATM    8  C   UNL     1     -11.916  12.914  69.191  1.00  0.00    -0.308 C  
HETATM    9  N   UNL     1     -10.017  17.301  65.960  1.00  0.00    -0.268 N  
HETATM   10  C   UNL     1     -12.199  12.752  70.776  1.00  0.00    -0.338 C  
HETATM   11  C   UNL     1     -10.966  13.988  68.661  1.00  0.00    -0.281 C  
HETATM   12  C   UNL     1     -10.717  13.757  67.156  1.00  0.00    -0.283 C  
HETATM   13  C   UNL     1     -13.164  14.047  70.799  1.00  0.00    -0.172 C  
HETATM   14  C   UNL     1     -12.332  15.411  70.305  1.00  0.00    -0.425 C  
HETATM   15  C   UNL     1     -10.010  14.900  66.455  1.00  0.00    -0.290 C  
HETATM   16  C   UNL     1     -11.680  15.355  68.863  1.00  0.00    -0.377 C  
HETATM   17  C   UNL     1     -10.730  16.249  66.673  1.00  0.00    -0.197 C  
HETATM   18  C   UNL     1     -11.643  17.907  68.368  1.00  0.00     1.563 C  
HETATM   19  C   UNL     1     -10.860  16.581  68.215  1.00  0.00    -0.352 C  
HETATM   20  C   UNL     1      -9.408  16.884  68.657  1.00  0.00    -0.268 C  
HETATM   21  C   UNL     1      -8.469  17.416  67.826  1.00  0.00    -0.223 C  
ENDROOT
BRANCH   1  22
HETATM   22  C   UNL     1     -11.981   9.624  71.443  1.00  0.00    -0.399 C  
HETATM   23  N   UNL     1     -10.772   9.273  72.024  1.00  0.00    -0.178 N  
HETATM   24  O   UNL     1     -12.832   8.727  71.260  1.00  0.00    -0.302 OA 
HETATM   25  H   UNL     1     -10.148  10.040  72.277  1.00  0.00     0.000 HD 
BRANCH  23  26
HETATM   26  C   UNL     1     -10.289   7.898  72.316  1.00  0.00    -0.253 A  
HETATM   27  C   UNL     1      -8.920   7.550  72.177  1.00  0.00    -0.159 A  
HETATM   28  F   UNL     1     -12.901   4.668  73.429  1.00  0.00     0.022 F  
HETATM   29  F   UNL     1      -7.177   8.055  70.644  1.00  0.00    -0.049 F  
HETATM   30  F   UNL     1      -6.874   8.654  72.709  1.00  0.00    -0.109 F  
HETATM   31  F   UNL     1      -8.266   9.756  71.443  1.00  0.00     0.150 F  
HETATM   32  F   UNL     1     -11.242   3.786  74.531  1.00  0.00    -0.088 F  
HETATM   33  F   UNL     1     -11.523   3.321  72.423  1.00  0.00     0.309 F  
HETATM   34  C   UNL     1      -8.460   6.230  72.445  1.00  0.00    -0.114 A  
HETATM   35  C   UNL     1      -9.322   5.208  72.829  1.00  0.00    -0.149 A  
HETATM   36  C   UNL     1     -11.584   4.337  73.328  1.00  0.00    -0.076 C  
HETATM   37  C   UNL     1     -10.678   5.489  72.953  1.00  0.00    -0.290 A  
HETATM   38  C   UNL     1     -11.146   6.830  72.701  1.00  0.00    -0.301 A  
HETATM   39  C   UNL     1      -7.828   8.500  71.747  1.00  0.00    -0.120 C  
ENDBRANCH  23  26
ENDBRANCH   1  22
TORSDOF 2
ENDMDL
MODEL       87
REMARK 921   NORMALIZED FREE ENERGY PREDICTED BY IDOCK:    0.25 KCAL/MOL
REMARK 922        TOTAL FREE ENERGY PREDICTED BY IDOCK:   -0.36 KCAL/MOL
REMARK 923 INTER-LIGAND FREE ENERGY PREDICTED BY IDOCK:    0.29 KCAL/MOL
REMARK 924 INTRA-LIGAND FREE ENERGY PREDICTED BY IDOCK:   -0.65 KCAL/MOL
REMARK 927      BINDING AFFINITY PREDICTED BY RF-SCORE:    0.00 PKD
ROOT
HETATM    1  C   UNL     1      -8.796  13.583  67.062  1.00  0.00    -0.219 C  
HETATM    2  H   UNL     1     -11.828   6.352  71.229  1.00  0.00     0.000 HD 
HETATM    3  C   UNL     1     -10.246  13.328  66.631  1.00  0.00    -0.265 C  
HETATM    4  C   UNL     1     -10.762  12.607  67.858  1.00  0.00    -0.237 C  
HETATM    5  C   UNL     1     -10.244   6.922  72.461  1.00  0.00    -0.183 C  
HETATM    6  O   UNL     1     -10.581   6.287  73.450  1.00  0.00    -0.244 OA 
HETATM    7  C   UNL     1      -6.825  12.296  67.811  1.00  0.00    -0.109 C  
HETATM    8  C   UNL     1      -9.666  11.565  68.087  1.00  0.00    -0.192 C  
HETATM    9  N   UNL     1     -11.059   7.012  71.344  1.00  0.00    -0.240 N  
HETATM   10  C   UNL     1      -8.283  12.050  67.401  1.00  0.00    -0.168 C  
HETATM   11  C   UNL     1      -9.666  10.616  69.284  1.00  0.00    -0.181 C  
HETATM   12  C   UNL     1     -11.094  10.515  69.860  1.00  0.00    -0.371 C  
HETATM   13  C   UNL     1      -8.080  10.629  66.660  1.00  0.00    -0.136 C  
HETATM   14  C   UNL     1      -7.986   9.390  67.778  1.00  0.00    -0.096 C  
HETATM   15  C   UNL     1     -11.284   9.408  70.878  1.00  0.00    -0.393 C  
HETATM   16  C   UNL     1      -9.226   9.223  68.750  1.00  0.00    -0.136 C  
HETATM   17  C   UNL     1     -10.834   8.035  70.331  1.00  0.00    -0.247 C  
HETATM   18  C   UNL     1      -8.950   6.693  69.282  1.00  0.00    -0.135 C  
HETATM   19  C   UNL     1      -9.319   8.073  69.875  1.00  0.00    -0.156 C  
HETATM   20  C   UNL     1      -8.531   8.197  71.201  1.00  0.00    -0.146 C  
HETATM   21  C   UNL     1      -8.972   7.684  72.383  1.00  0.00    -0.187 C  
ENDROOT
BRANCH   1  22
HETATM   22  C   UNL     1      -8.513  15.220  66.987  1.00  0.00    -0.228 C  
HETATM   23  N   UNL     1      -9.163  16.169  67.762  1.00  0.00    -0.202 N  
HETATM   24  O   UNL     1      -7.792  15.618  66.046  1.00  0.00     0.440 OA 
HETATM   25  H   UNL     1      -9.641  15.826  68.596  1.00  0.00     0.000 HD 
BRANCH  23  26
HETATM   26  C   UNL     1      -9.238  17.631  67.505  1.00  0.00    -0.243 A  
HETATM   27  C   UNL     1      -8.566  18.564  68.339  1.00  0.00    -0.355 A  
HETATM   28  F   UNL     1     -11.618  19.356  64.366  1.00  0.00     1.325 F  
HETATM   29  F   UNL     1      -8.162  18.788  70.669  1.00  0.00     1.967 F  
HETATM   30  F   UNL     1      -6.422  18.600  69.382  1.00  0.00    -0.253 F  
HETATM   31  F   UNL     1      -7.670  16.860  69.798  1.00  0.00     0.014 F  
HETATM   32  F   UNL     1     -10.205  21.012  64.286  1.00  0.00     0.696 F  
HETATM   33  F   UNL     1     -11.901  21.088  65.649  1.00  0.00     1.939 F  
HETATM   34  C   UNL     1      -8.648  19.964  68.100  1.00  0.00    -0.286 A  
HETATM   35  C   UNL     1      -9.406  20.497  67.061  1.00  0.00    -0.482 A  
HETATM   36  C   UNL     1     -10.950  20.253  65.144  1.00  0.00     0.533 C  
HETATM   37  C   UNL     1     -10.105  19.628  66.231  1.00  0.00    -0.578 A  
HETATM   38  C   UNL     1     -10.009  18.206  66.458  1.00  0.00    -0.374 A  
HETATM   39  C   UNL     1      -7.717  18.197  69.532  1.00  0.00     0.422 C  
ENDBRANCH  23  26
ENDBRANCH   1  22
TORSDOF 2
ENDMDL
MODEL       88
REMARK 921   NORMALIZED FREE ENERGY PREDICTED BY IDOCK:    1.13 KCAL/MOL
REMARK 922        TOTAL FREE ENERGY PREDICTED BY IDOCK:    0.63 KCAL/MOL
REMARK 923 INTER-LIGAND FREE ENERGY PREDICTED BY IDOCK:    1.33 KCAL/MOL
REMARK 924 INTRA-LIGAND FREE ENERGY PREDICTED BY IDOCK:   -0.70 KCAL/MOL
REMARK 927      BINDING AFFINITY PREDICTED BY RF-SCORE:    0.00 PKD
ROOT
HETATM    1  C   UNL     1     -10.797  12.737  68.056  1.00  0.00    -0.254 C  
HETATM    2  H   UNL     1      -8.962   4.123  69.191  1.00  0.00     0.000 HD 
HETATM    3  C   UNL     1     -11.410  12.265  69.381  1.00  0.00    -0.294 C  
HETATM    4  C   UNL     1     -10.467  11.129  69.717  1.00  0.00     0.116 C  
HETATM    5  C   UNL     1      -7.485   4.700  67.835  1.00  0.00    -0.077 C  
HETATM    6  O   UNL     1      -6.732   3.754  68.017  1.00  0.00    -0.045 OA 
HETATM    7  C   UNL     1     -10.235  11.815  65.834  1.00  0.00    -0.272 C  
HETATM    8  C   UNL     1     -10.420  10.366  68.393  1.00  0.00    -0.216 C  
HETATM    9  N   UNL     1      -8.609   4.892  68.622  1.00  0.00    -0.093 N  
HETATM   10  C   UNL     1     -10.826  11.344  67.170  1.00  0.00    -0.316 C  
HETATM   11  C   UNL     1      -9.518   9.152  68.171  1.00  0.00    -0.155 C  
HETATM   12  C   UNL     1      -9.121   8.551  69.536  1.00  0.00    -0.150 C  
HETATM   13  C   UNL     1     -11.891  10.277  66.589  1.00  0.00     2.400 C  
HETATM   14  C   UNL     1     -11.133   8.839  66.200  1.00  0.00     2.105 C  
HETATM   15  C   UNL     1      -8.450   7.194  69.452  1.00  0.00    -0.134 C  
HETATM   16  C   UNL     1     -10.355   8.113  67.373  1.00  0.00    -0.351 C  
HETATM   17  C   UNL     1      -9.293   6.179  68.649  1.00  0.00    -0.121 C  
HETATM   18  C   UNL     1     -10.482   5.682  66.460  1.00  0.00    -0.309 C  
HETATM   19  C   UNL     1      -9.584   6.710  67.188  1.00  0.00    -0.168 C  
HETATM   20  C   UNL     1      -8.206   6.652  66.487  1.00  0.00    -0.114 C  
HETATM   21  C   UNL     1      -7.244   5.740  66.803  1.00  0.00    -0.074 C  
ENDROOT
BRANCH   1  22
HETATM   22  C   UNL     1     -10.414  14.349  68.207  1.00  0.00    -0.245 C  
HETATM   23  N   UNL     1     -11.247  15.394  67.840  1.00  0.00    -0.324 N  
HETATM   24  O   UNL     1      -9.230  14.614  68.510  1.00  0.00    -0.184 OA 
HETATM   25  H   UNL     1     -12.235  15.169  67.721  1.00  0.00     0.000 HD 
BRANCH  23  26
HETATM   26  C   UNL     1     -10.852  16.807  67.601  1.00  0.00    -0.252 A  
HETATM   27  C   UNL     1     -10.484  17.264  66.307  1.00  0.00    -0.268 A  
HETATM   28  F   UNL     1     -10.541  19.732  70.737  1.00  0.00     0.346 F  
HETATM   29  F   UNL     1      -9.240  16.394  64.480  1.00  0.00     1.885 F  
HETATM   30  F   UNL     1     -11.329  16.864  64.114  1.00  0.00    -0.323 F  
HETATM   31  F   UNL     1     -10.791  15.100  65.279  1.00  0.00    -0.305 F  
HETATM   32  F   UNL     1     -11.016  21.270  69.270  1.00  0.00     0.110 F  
HETATM   33  F   UNL     1      -8.948  20.667  69.592  1.00  0.00     0.738 F  
HETATM   34  C   UNL     1     -10.094  18.614  66.082  1.00  0.00    -0.399 A  
HETATM   35  C   UNL     1     -10.026  19.548  67.110  1.00  0.00    -0.487 A  
HETATM   36  C   UNL     1     -10.218  20.183  69.494  1.00  0.00     0.130 C  
HETATM   37  C   UNL     1     -10.350  19.146  68.401  1.00  0.00    -0.412 A  
HETATM   38  C   UNL     1     -10.764  17.783  68.631  1.00  0.00    -0.079 A  
HETATM   39  C   UNL     1     -10.464  16.407  65.065  1.00  0.00    -0.080 C  
ENDBRANCH  23  26
ENDBRANCH   1  22
TORSDOF 2
ENDMDL
MODEL       89
REMARK 921   NORMALIZED FREE ENERGY PREDICTED BY IDOCK:    1.43 KCAL/MOL
REMARK 922        TOTAL FREE ENERGY PREDICTED BY IDOCK:    0.96 KCAL/MOL
REMARK 923 INTER-LIGAND FREE ENERGY PREDICTED BY IDOCK:    1.53 KCAL/MOL
REMARK 924 INTRA-LIGAND FREE ENERGY PREDICTED BY IDOCK:   -0.57 KCAL/MOL
REMARK 927      BINDING AFFINITY PREDICTED BY RF-SCORE:    0.00 PKD
ROOT
HETATM    1  C   UNL     1      -7.554  13.333  68.261  1.00  0.00    -0.139 C  
HETATM    2  H   UNL     1     -10.930   5.396  70.370  1.00  0.00     0.000 HD 
HETATM    3  C   UNL     1      -7.823  12.545  66.972  1.00  0.00    -0.065 C  
HETATM    4  C   UNL     1      -8.951  11.651  67.441  1.00  0.00    -0.166 C  
HETATM    5  C   UNL     1     -11.349   6.508  72.085  1.00  0.00    -0.282 C  
HETATM    6  O   UNL     1     -12.208   5.769  72.542  1.00  0.00    -0.196 OA 
HETATM    7  C   UNL     1      -6.963  12.896  70.619  1.00  0.00     2.082 C  
HETATM    8  C   UNL     1      -8.390  11.113  68.758  1.00  0.00    -0.136 C  
HETATM    9  N   UNL     1     -10.808   6.300  70.827  1.00  0.00    -0.264 N  
HETATM   10  C   UNL     1      -7.255  12.113  69.332  1.00  0.00     0.183 C  
HETATM   11  C   UNL     1      -9.196  10.209  69.691  1.00  0.00    -0.206 C  
HETATM   12  C   UNL     1     -10.344   9.548  68.900  1.00  0.00    -0.225 C  
HETATM   13  C   UNL     1      -6.212  10.900  69.556  1.00  0.00    -0.073 C  
HETATM   14  C   UNL     1      -6.841   9.768  70.613  1.00  0.00    -0.108 C  
HETATM   15  C   UNL     1     -11.054   8.431  69.639  1.00  0.00    -0.011 C  
HETATM   16  C   UNL     1      -8.221   9.111  70.201  1.00  0.00    -0.161 C  
HETATM   17  C   UNL     1     -10.068   7.354  70.145  1.00  0.00    -0.197 C  
HETATM   18  C   UNL     1      -7.977   6.875  71.506  1.00  0.00    -0.104 C  
HETATM   19  C   UNL     1      -8.966   7.989  71.087  1.00  0.00    -0.162 C  
HETATM   20  C   UNL     1      -9.744   8.378  72.366  1.00  0.00    -0.376 C  
HETATM   21  C   UNL     1     -10.845   7.706  72.804  1.00  0.00    -0.416 C  
ENDROOT
BRANCH   1  22
HETATM   22  C   UNL     1      -7.721  14.953  67.922  1.00  0.00    -0.141 C  
HETATM   23  N   UNL     1      -7.734  15.960  68.874  1.00  0.00    -0.179 N  
HETATM   24  O   UNL     1      -8.027  15.247  66.745  1.00  0.00    -0.200 OA 
HETATM   25  H   UNL     1      -7.361  15.723  69.793  1.00  0.00     0.000 HD 
BRANCH  23  26
HETATM   26  C   UNL     1      -8.235  17.349  68.697  1.00  0.00    -0.264 A  
HETATM   27  C   UNL     1      -7.377  18.470  68.848  1.00  0.00    -0.289 A  
HETATM   28  F   UNL     1     -12.357  18.286  67.905  1.00  0.00     1.811 F  
HETATM   29  F   UNL     1      -5.606  19.079  70.308  1.00  0.00    -0.214 F  
HETATM   30  F   UNL     1      -5.130  18.928  68.195  1.00  0.00    -0.170 F  
HETATM   31  F   UNL     1      -5.444  17.123  69.378  1.00  0.00    -0.146 F  
HETATM   32  F   UNL     1     -11.688  20.077  66.863  1.00  0.00     0.008 F  
HETATM   33  F   UNL     1     -12.060  20.135  69.007  1.00  0.00     2.695 F  
HETATM   34  C   UNL     1      -7.860  19.799  68.691  1.00  0.00    -0.284 A  
HETATM   35  C   UNL     1      -9.195  20.075  68.409  1.00  0.00    -0.226 A  
HETATM   36  C   UNL     1     -11.531  19.363  68.017  1.00  0.00     1.153 C  
HETATM   37  C   UNL     1     -10.083  19.014  68.278  1.00  0.00    -0.466 A  
HETATM   38  C   UNL     1      -9.594  17.664  68.418  1.00  0.00    -0.310 A  
HETATM   39  C   UNL     1      -5.907  18.391  69.179  1.00  0.00    -0.221 C  
ENDBRANCH  23  26
ENDBRANCH   1  22
TORSDOF 2
ENDMDL
MODEL       90
REMARK 921   NORMALIZED FREE ENERGY PREDICTED BY IDOCK:    1.86 KCAL/MOL
REMARK 922        TOTAL FREE ENERGY PREDICTED BY IDOCK:    1.45 KCAL/MOL
REMARK 923 INTER-LIGAND FREE ENERGY PREDICTED BY IDOCK:    2.03 KCAL/MOL
REMARK 924 INTRA-LIGAND FREE ENERGY PREDICTED BY IDOCK:   -0.58 KCAL/MOL
REMARK 927      BINDING AFFINITY PREDICTED BY RF-SCORE:    0.00 PKD
ROOT
HETATM    1  C   UNL     1     -11.563   8.323  70.919  1.00  0.00    -0.282 C  
HETATM    2  H   UNL     1     -12.291  15.922  66.383  1.00  0.00     0.000 HD 
HETATM    3  C   UNL     1     -12.108   8.019  69.517  1.00  0.00     1.491 C  
HETATM    4  C   UNL     1     -11.518   9.181  68.748  1.00  0.00     0.580 C  
HETATM    5  C   UNL     1     -10.902  16.433  67.854  1.00  0.00    -0.328 C  
HETATM    6  O   UNL     1     -10.455  17.429  67.304  1.00  0.00    -0.335 OA 
HETATM    7  C   UNL     1     -11.608  10.156  72.575  1.00  0.00     2.400 C  
HETATM    8  C   UNL     1     -11.881  10.363  69.648  1.00  0.00    -0.252 C  
HETATM    9  N   UNL     1     -11.800  15.594  67.215  1.00  0.00     0.176 N  
HETATM   10  C   UNL     1     -12.131   9.854  71.164  1.00  0.00    -0.466 C  
HETATM   11  C   UNL     1     -11.427  11.793  69.357  1.00  0.00    -0.371 C  
HETATM   12  C   UNL     1     -11.053  11.919  67.865  1.00  0.00    -0.297 C  
HETATM   13  C   UNL     1     -13.536  10.644  71.263  1.00  0.00     0.118 C  
HETATM   14  C   UNL     1     -13.308  12.284  71.034  1.00  0.00     0.374 C  
HETATM   15  C   UNL     1     -10.842  13.343  67.390  1.00  0.00    -0.279 C  
HETATM   16  C   UNL     1     -12.639  12.718  69.666  1.00  0.00     0.307 C  
HETATM   17  C   UNL     1     -12.053  14.247  67.713  1.00  0.00    -0.281 C  
HETATM   18  C   UNL     1     -13.616  15.122  69.514  1.00  0.00     1.948 C  
HETATM   19  C   UNL     1     -12.360  14.254  69.265  1.00  0.00    -0.197 C  
HETATM   20  C   UNL     1     -11.171  15.029  69.880  1.00  0.00    -0.303 C  
HETATM   21  C   UNL     1     -10.497  16.011  69.219  1.00  0.00    -0.257 C  
ENDROOT
BRANCH   1  22
HETATM   22  C   UNL     1     -10.693   7.002  71.435  1.00  0.00    -0.219 C  
HETATM   23  N   UNL     1      -9.920   6.967  72.585  1.00  0.00    -0.168 N  
HETATM   24  O   UNL     1     -10.603   6.047  70.632  1.00  0.00    -0.229 OA 
HETATM   25  H   UNL     1     -10.105   7.691  73.279  1.00  0.00     0.000 HD 
BRANCH  23  26
HETATM   26  C   UNL     1      -8.851   5.987  72.911  1.00  0.00    -0.122 A  
HETATM   27  C   UNL     1      -7.510   6.400  73.128  1.00  0.00    -0.090 A  
HETATM   28  F   UNL     1      -9.514   1.741  73.075  1.00  0.00    -0.078 F  
HETATM   29  F   UNL     1      -6.037   7.991  72.157  1.00  0.00    -0.038 F  
HETATM   30  F   UNL     1      -6.514   8.247  74.260  1.00  0.00    -0.106 F  
HETATM   31  F   UNL     1      -7.994   8.734  72.734  1.00  0.00    -0.150 F  
HETATM   32  F   UNL     1      -7.898   1.605  74.529  1.00  0.00    -0.031 F  
HETATM   33  F   UNL     1      -7.465   1.481  72.398  1.00  0.00    -0.031 F  
HETATM   34  C   UNL     1      -6.485   5.460  73.428  1.00  0.00    -0.063 A  
HETATM   35  C   UNL     1      -6.730   4.092  73.500  1.00  0.00    -0.053 A  
HETATM   36  C   UNL     1      -8.233   2.135  73.314  1.00  0.00    -0.051 C  
HETATM   37  C   UNL     1      -8.022   3.632  73.270  1.00  0.00    -0.079 A  
HETATM   38  C   UNL     1      -9.068   4.583  72.984  1.00  0.00    -0.129 A  
HETATM   39  C   UNL     1      -7.028   7.829  73.068  1.00  0.00    -0.078 C  
ENDBRANCH  23  26
ENDBRANCH   1  22
TORSDOF 2
ENDMDL
MODEL       91
REMARK 921   NORMALIZED FREE ENERGY PREDICTED BY IDOCK:    2.92 KCAL/MOL
REMARK 922        TOTAL FREE ENERGY PREDICTED BY IDOCK:    2.63 KCAL/MOL
REMARK 923 INTER-LIGAND FREE ENERGY PREDICTED BY IDOCK:    3.20 KCAL/MOL
REMARK 924 INTRA-LIGAND FREE ENERGY PREDICTED BY IDOCK:   -0.57 KCAL/MOL
REMARK 927      BINDING AFFINITY PREDICTED BY RF-SCORE:    0.00 PKD
ROOT
HETATM    1  C   UNL     1      -7.849   9.813  68.453  1.00  0.00    -0.081 C  
HETATM    2  H   UNL     1      -8.886  18.591  67.604  1.00  0.00     0.000 HD 
HETATM    3  C   UNL     1      -9.325  10.117  68.164  1.00  0.00    -0.140 C  
HETATM    4  C   UNL     1      -9.181  11.415  67.399  1.00  0.00    -0.164 C  
HETATM    5  C   UNL     1      -6.846  18.364  67.234  1.00  0.00    -0.198 C  
HETATM    6  O   UNL     1      -6.669  19.441  66.683  1.00  0.00    -0.192 OA 
HETATM    7  C   UNL     1      -5.909  10.883  69.547  1.00  0.00    -0.045 C  
HETATM    8  C   UNL     1      -8.231  12.202  68.302  1.00  0.00    -0.168 C  
HETATM    9  N   UNL     1      -8.115  17.925  67.576  1.00  0.00    -0.223 N  
HETATM   10  C   UNL     1      -7.380  11.190  69.235  1.00  0.00    -0.097 C  
HETATM   11  C   UNL     1      -7.689  13.581  67.928  1.00  0.00    -0.153 C  
HETATM   12  C   UNL     1      -8.600  14.219  66.859  1.00  0.00    -0.172 C  
HETATM   13  C   UNL     1      -7.731  12.027  70.571  1.00  0.00     3.953 C  
HETATM   14  C   UNL     1      -7.178  13.599  70.444  1.00  0.00     1.280 C  
HETATM   15  C   UNL     1      -8.327  15.687  66.596  1.00  0.00    -0.310 C  
HETATM   16  C   UNL     1      -7.728  14.443  69.222  1.00  0.00    -0.002 C  
HETATM   17  C   UNL     1      -8.363  16.524  67.894  1.00  0.00    -0.173 C  
HETATM   18  C   UNL     1      -7.450  16.816  70.247  1.00  0.00     1.863 C  
HETATM   19  C   UNL     1      -7.321  15.979  68.953  1.00  0.00    -0.176 C  
HETATM   20  C   UNL     1      -5.944  16.337  68.343  1.00  0.00    -0.106 C  
HETATM   21  C   UNL     1      -5.741  17.420  67.542  1.00  0.00    -0.151 C  
ENDROOT
BRANCH   1  22
HETATM   22  C   UNL     1      -7.497   8.312  67.828  1.00  0.00    -0.094 C  
HETATM   23  N   UNL     1      -8.407   7.273  67.714  1.00  0.00    -0.118 N  
HETATM   24  O   UNL     1      -6.289   8.067  67.616  1.00  0.00    -0.050 OA 
HETATM   25  H   UNL     1      -9.394   7.524  67.768  1.00  0.00     0.000 HD 
BRANCH  23  26
HETATM   26  C   UNL     1      -8.096   5.832  67.521  1.00  0.00    -0.102 A  
HETATM   27  C   UNL     1      -7.883   4.967  68.627  1.00  0.00    -0.077 A  
HETATM   28  F   UNL     1      -7.579   4.028  63.652  1.00  0.00    -0.061 F  
HETATM   29  F   UNL     1      -6.800   5.127  70.735  1.00  0.00    -0.038 F  
HETATM   30  F   UNL     1      -8.933   4.715  70.752  1.00  0.00    -0.124 F  
HETATM   31  F   UNL     1      -8.207   6.713  70.263  1.00  0.00    -0.116 F  
HETATM   32  F   UNL     1      -8.264   2.144  64.504  1.00  0.00    -0.077 F  
HETATM   33  F   UNL     1      -6.152   2.670  64.570  1.00  0.00    -0.016 F  
HETATM   34  C   UNL     1      -7.572   3.590  68.441  1.00  0.00    -0.056 A  
HETATM   35  C   UNL     1      -7.435   3.025  67.177  1.00  0.00    -0.070 A  
HETATM   36  C   UNL     1      -7.405   3.187  64.709  1.00  0.00    -0.071 C  
HETATM   37  C   UNL     1      -7.608   3.834  66.060  1.00  0.00    -0.088 A  
HETATM   38  C   UNL     1      -7.941   5.226  66.244  1.00  0.00    -0.104 A  
HETATM   39  C   UNL     1      -7.957   5.385  70.075  1.00  0.00    -0.082 C  
ENDBRANCH  23  26
ENDBRANCH   1  22
TORSDOF 2
ENDMDL
MODEL       92
REMARK 921   NORMALIZED FREE ENERGY PREDICTED BY IDOCK:    3.46 KCAL/MOL
REMARK 922        TOTAL FREE ENERGY PREDICTED BY IDOCK:    3.23 KCAL/MOL
REMARK 923 INTER-LIGAND FREE ENERGY PREDICTED BY IDOCK:    0.03 KCAL/MOL
REMARK 924 INTRA-LIGAND FREE ENERGY PREDICTED BY IDOCK:    3.20 KCAL/MOL
REMARK 927      BINDING AFFINITY PREDICTED BY RF-SCORE:    0.00 PKD
ROOT
HETATM    1  C   UNL     1      -7.928   8.306  67.522  1.00  0.00    -0.110 C  
HETATM    2  H   UNL     1      -8.442  17.081  68.781  1.00  0.00     0.000 HD 
HETATM    3  C   UNL     1      -6.705   8.769  68.324  1.00  0.00    -0.065 C  
HETATM    4  C   UNL     1      -7.283   9.994  69.001  1.00  0.00    -0.076 C  
HETATM    5  C   UNL     1     -10.432  16.588  68.393  1.00  0.00    -0.307 C  
HETATM    6  O   UNL     1     -10.935  17.601  68.855  1.00  0.00     0.031 OA 
HETATM    7  C   UNL     1      -9.480   9.195  65.818  1.00  0.00    -0.322 C  
HETATM    8  C   UNL     1      -7.947  10.711  67.826  1.00  0.00    -0.110 C  
HETATM    9  N   UNL     1      -9.078  16.326  68.524  1.00  0.00    -0.207 N  
HETATM   10  C   UNL     1      -8.270   9.659  66.640  1.00  0.00    -0.120 C  
HETATM   11  C   UNL     1      -8.766  11.990  67.996  1.00  0.00    -0.175 C  
HETATM   12  C   UNL     1      -8.386  12.671  69.327  1.00  0.00     0.821 C  
HETATM   13  C   UNL     1      -7.584  10.609  65.527  1.00  0.00    -0.072 C  
HETATM   14  C   UNL     1      -8.351  12.092  65.464  1.00  0.00     1.058 C  
HETATM   15  C   UNL     1      -8.928  14.077  69.490  1.00  0.00     0.795 C  
HETATM   16  C   UNL     1      -8.388  12.924  66.811  1.00  0.00     0.033 C  
HETATM   17  C   UNL     1      -8.548  14.987  68.300  1.00  0.00    -0.156 C  
HETATM   18  C   UNL     1      -8.600  15.301  65.780  1.00  0.00     0.887 C  
HETATM   19  C   UNL     1      -9.066  14.381  66.933  1.00  0.00    -0.269 C  
HETATM   20  C   UNL     1     -10.603  14.534  67.013  1.00  0.00    -0.278 C  
HETATM   21  C   UNL     1     -11.220  15.536  67.700  1.00  0.00    -0.291 C  
ENDROOT
BRANCH   1  22
HETATM   22  C   UNL     1      -8.274   6.740  67.963  1.00  0.00    -0.114 C  
HETATM   23  N   UNL     1      -8.935   6.376  69.126  1.00  0.00    -0.129 N  
HETATM   24  O   UNL     1      -7.744   5.839  67.277  1.00  0.00    -0.098 OA 
HETATM   25  H   UNL     1      -9.463   7.110  69.599  1.00  0.00     0.000 HD 
BRANCH  23  26
HETATM   26  C   UNL     1      -8.954   5.030  69.758  1.00  0.00    -0.106 A  
HETATM   27  C   UNL     1      -9.207   3.860  68.996  1.00  0.00    -0.217 A  
HETATM   28  F   UNL     1      -8.458   4.399  73.983  1.00  0.00    -0.096 F  
HETATM   29  F   UNL     1     -10.657   3.266  67.210  1.00  0.00     0.994 F  
HETATM   30  F   UNL     1      -8.523   3.116  66.836  1.00  0.00    -0.091 F  
HETATM   31  F   UNL     1      -9.483   5.072  66.925  1.00  0.00    -0.123 F  
HETATM   32  F   UNL     1      -7.621   2.440  73.532  1.00  0.00    -0.038 F  
HETATM   33  F   UNL     1      -9.770   2.677  73.793  1.00  0.00    -0.100 F  
HETATM   34  C   UNL     1      -9.238   2.573  69.603  1.00  0.00    -0.195 A  
HETATM   35  C   UNL     1      -9.049   2.393  70.969  1.00  0.00    -0.174 A  
HETATM   36  C   UNL     1      -8.670   3.271  73.251  1.00  0.00    -0.081 C  
HETATM   37  C   UNL     1      -8.824   3.509  71.766  1.00  0.00    -0.135 A  
HETATM   38  C   UNL     1      -8.774   4.815  71.152  1.00  0.00    -0.138 A  
HETATM   39  C   UNL     1      -9.464   3.839  67.508  1.00  0.00    -0.191 C  
ENDBRANCH  23  26
ENDBRANCH   1  22
TORSDOF 2
ENDMDL
MODEL       93
REMARK 921   NORMALIZED FREE ENERGY PREDICTED BY IDOCK:    4.09 KCAL/MOL
REMARK 922        TOTAL FREE ENERGY PREDICTED BY IDOCK:    3.94 KCAL/MOL
REMARK 923 INTER-LIGAND FREE ENERGY PREDICTED BY IDOCK:    4.05 KCAL/MOL
REMARK 924 INTRA-LIGAND FREE ENERGY PREDICTED BY IDOCK:   -0.12 KCAL/MOL
REMARK 927      BINDING AFFINITY PREDICTED BY RF-SCORE:    0.00 PKD
ROOT
HETATM    1  C   UNL     1     -11.469   9.323  68.898  1.00  0.00     0.437 C  
HETATM    2  H   UNL     1     -13.339  17.304  72.313  1.00  0.00     0.000 HD 
HETATM    3  C   UNL     1     -12.160  10.176  67.827  1.00  0.00     2.296 C  
HETATM    4  C   UNL     1     -11.762  11.560  68.295  1.00  0.00    -0.371 C  
HETATM    5  C   UNL     1     -11.820  16.642  73.581  1.00  0.00    -0.098 C  
HETATM    6  O   UNL     1     -11.522  17.732  74.047  1.00  0.00     0.224 OA 
HETATM    7  C   UNL     1     -11.446   9.085  71.357  1.00  0.00    -0.400 C  
HETATM    8  C   UNL     1     -12.098  11.490  69.785  1.00  0.00    -0.374 C  
HETATM    9  N   UNL     1     -12.724  16.522  72.538  1.00  0.00     0.050 N  
HETATM   10  C   UNL     1     -12.117   9.950  70.282  1.00  0.00    -0.168 C  
HETATM   11  C   UNL     1     -11.796  12.632  70.755  1.00  0.00     0.128 C  
HETATM   12  C   UNL     1     -11.622  13.945  69.964  1.00  0.00    -0.282 C  
HETATM   13  C   UNL     1     -13.555  10.132  70.994  1.00  0.00    -0.084 C  
HETATM   14  C   UNL     1     -13.484  11.316  72.173  1.00  0.00    -0.197 C  
HETATM   15  C   UNL     1     -11.582  15.194  70.822  1.00  0.00    -0.361 C  
HETATM   16  C   UNL     1     -13.026  12.755  71.698  1.00  0.00    -0.402 C  
HETATM   17  C   UNL     1     -12.808  15.295  71.756  1.00  0.00    -0.380 C  
HETATM   18  C   UNL     1     -14.196  14.153  73.552  1.00  0.00     3.424 C  
HETATM   19  C   UNL     1     -12.919  14.021  72.689  1.00  0.00    -0.481 C  
HETATM   20  C   UNL     1     -11.724  14.165  73.662  1.00  0.00     1.264 C  
HETATM   21  C   UNL     1     -11.216  15.368  74.050  1.00  0.00     1.545 C  
ENDROOT
BRANCH   1  22
HETATM   22  C   UNL     1     -10.443   8.261  68.133  1.00  0.00    -0.171 C  
HETATM   23  N   UNL     1      -9.151   8.564  67.731  1.00  0.00    -0.135 N  
HETATM   24  O   UNL     1     -10.945   7.182  67.747  1.00  0.00    -0.191 OA 
HETATM   25  H   UNL     1      -8.721   9.384  68.159  1.00  0.00     0.000 HD 
BRANCH  23  26
HETATM   26  C   UNL     1      -8.327   7.820  66.742  1.00  0.00    -0.125 A  
HETATM   27  C   UNL     1      -7.261   8.448  66.046  1.00  0.00    -0.073 A  
HETATM   28  F   UNL     1      -9.092   3.737  65.631  1.00  0.00    -0.124 F  
HETATM   29  F   UNL     1      -6.884  10.577  65.063  1.00  0.00    -0.130 F  
HETATM   30  F   UNL     1      -5.559   9.993  66.681  1.00  0.00    -0.043 F  
HETATM   31  F   UNL     1      -7.613  10.588  67.108  1.00  0.00    -0.092 F  
HETATM   32  F   UNL     1      -6.968   3.518  65.203  1.00  0.00    -0.050 F  
HETATM   33  F   UNL     1      -8.327   4.221  63.654  1.00  0.00    -0.087 F  
HETATM   34  C   UNL     1      -6.480   7.739  65.091  1.00  0.00    -0.041 A  
HETATM   35  C   UNL     1      -6.732   6.409  64.767  1.00  0.00    -0.039 A  
HETATM   36  C   UNL     1      -8.048   4.325  64.984  1.00  0.00    -0.098 C  
HETATM   37  C   UNL     1      -7.783   5.755  65.400  1.00  0.00    -0.091 A  
HETATM   38  C   UNL     1      -8.565   6.465  66.383  1.00  0.00    -0.134 A  
HETATM   39  C   UNL     1      -6.841   9.886  66.229  1.00  0.00    -0.091 C  
ENDBRANCH  23  26
ENDBRANCH   1  22
TORSDOF 2
ENDMDL
MODEL       94
REMARK 921   NORMALIZED FREE ENERGY PREDICTED BY IDOCK:    4.85 KCAL/MOL
REMARK 922        TOTAL FREE ENERGY PREDICTED BY IDOCK:    4.78 KCAL/MOL
REMARK 923 INTER-LIGAND FREE ENERGY PREDICTED BY IDOCK:    5.50 KCAL/MOL
REMARK 924 INTRA-LIGAND FREE ENERGY PREDICTED BY IDOCK:   -0.72 KCAL/MOL
REMARK 927      BINDING AFFINITY PREDICTED BY RF-SCORE:    0.00 PKD
ROOT
HETATM    1  C   UNL     1     -12.050  13.321  70.233  1.00  0.00    -0.405 C  
HETATM    2  H   UNL     1     -11.435   5.207  73.788  1.00  0.00     0.000 HD 
HETATM    3  C   UNL     1     -12.381  13.404  71.729  1.00  0.00     0.032 C  
HETATM    4  C   UNL     1     -11.585  12.222  72.239  1.00  0.00     4.855 C  
HETATM    5  C   UNL     1     -10.270   5.010  72.068  1.00  0.00    -0.201 C  
HETATM    6  O   UNL     1      -9.662   4.005  72.408  1.00  0.00    -0.137 OA 
HETATM    7  C   UNL     1     -12.222  11.700  68.377  1.00  0.00     0.122 C  
HETATM    8  C   UNL     1     -11.997  11.125  71.258  1.00  0.00    -0.051 C  
HETATM    9  N   UNL     1     -11.114   5.677  72.942  1.00  0.00    -0.277 N  
HETATM   10  C   UNL     1     -12.530  11.781  69.878  1.00  0.00    -0.086 C  
HETATM   11  C   UNL     1     -11.392   9.721  71.286  1.00  0.00    -0.445 C  
HETATM   12  C   UNL     1     -10.771   9.457  72.673  1.00  0.00     1.674 C  
HETATM   13  C   UNL     1     -13.867  10.875  69.891  1.00  0.00     2.703 C  
HETATM   14  C   UNL     1     -13.478   9.249  69.865  1.00  0.00     2.105 C  
HETATM   15  C   UNL     1     -10.375   8.015  72.920  1.00  0.00    -0.397 C  
HETATM   16  C   UNL     1     -12.562   8.726  71.046  1.00  0.00    -0.109 C  
HETATM   17  C   UNL     1     -11.548   7.041  72.669  1.00  0.00    -0.162 C  
HETATM   18  C   UNL     1     -13.312   6.236  71.028  1.00  0.00     1.292 C  
HETATM   19  C   UNL     1     -12.104   7.188  71.195  1.00  0.00    -0.397 C  
HETATM   20  C   UNL     1     -10.974   6.610  70.309  1.00  0.00    -0.355 C  
HETATM   21  C   UNL     1     -10.127   5.627  70.725  1.00  0.00    -0.270 C  
ENDROOT
BRANCH   1  22
HETATM   22  C   UNL     1     -11.382  14.772  69.769  1.00  0.00    -0.283 C  
HETATM   23  N   UNL     1     -10.585  14.950  68.648  1.00  0.00    -0.243 N  
HETATM   24  O   UNL     1     -11.470  15.712  70.588  1.00  0.00    -0.307 OA 
HETATM   25  H   UNL     1     -10.630  14.221  67.937  1.00  0.00     0.000 HD 
BRANCH  23  26
HETATM   26  C   UNL     1      -9.673  16.092  68.375  1.00  0.00    -0.213 A  
HETATM   27  C   UNL     1      -8.282  16.008  68.647  1.00  0.00    -0.193 A  
HETATM   28  F   UNL     1     -11.033  19.903  66.921  1.00  0.00    -0.565 F  
HETATM   29  F   UNL     1      -6.931  15.076  70.364  1.00  0.00    -0.148 F  
HETATM   30  F   UNL     1      -6.643  14.301  68.356  1.00  0.00    -0.082 F  
HETATM   31  F   UNL     1      -8.418  13.752  69.498  1.00  0.00     0.324 F  
HETATM   32  F   UNL     1      -9.089  20.170  65.977  1.00  0.00    -0.389 F  
HETATM   33  F   UNL     1      -9.403  20.814  68.033  1.00  0.00    -0.293 F  
HETATM   34  C   UNL     1      -7.411  17.106  68.397  1.00  0.00    -0.220 A  
HETATM   35  C   UNL     1      -7.873  18.321  67.902  1.00  0.00    -0.255 A  
HETATM   36  C   UNL     1      -9.694  19.817  67.150  1.00  0.00    -0.376 C  
HETATM   37  C   UNL     1      -9.231  18.465  67.644  1.00  0.00    -0.274 A  
HETATM   38  C   UNL     1     -10.115  17.349  67.879  1.00  0.00    -0.326 A  
HETATM   39  C   UNL     1      -7.585  14.793  69.210  1.00  0.00    -0.144 C  
ENDBRANCH  23  26
ENDBRANCH   1  22
TORSDOF 2
ENDMDL
MODEL       95
REMARK 921   NORMALIZED FREE ENERGY PREDICTED BY IDOCK:    5.97 KCAL/MOL
REMARK 922        TOTAL FREE ENERGY PREDICTED BY IDOCK:    6.03 KCAL/MOL
REMARK 923 INTER-LIGAND FREE ENERGY PREDICTED BY IDOCK:    6.72 KCAL/MOL
REMARK 924 INTRA-LIGAND FREE ENERGY PREDICTED BY IDOCK:   -0.69 KCAL/MOL
REMARK 927      BINDING AFFINITY PREDICTED BY RF-SCORE:    0.00 PKD
ROOT
HETATM    1  C   UNL     1     -11.785   9.812  70.461  1.00  0.00    -0.343 C  
HETATM    2  H   UNL     1     -12.867  16.503  64.724  1.00  0.00     0.000 HD 
HETATM    3  C   UNL     1     -13.269  10.200  70.419  1.00  0.00     0.027 C  
HETATM    4  C   UNL     1     -13.354  10.760  69.015  1.00  0.00     3.234 C  
HETATM    5  C   UNL     1     -11.060  15.680  64.085  1.00  0.00     0.255 C  
HETATM    6  O   UNL     1     -11.049  16.180  62.969  1.00  0.00     1.988 OA 
HETATM    7  C   UNL     1      -9.576  10.876  70.160  1.00  0.00     1.116 C  
HETATM    8  C   UNL     1     -12.148  11.701  68.985  1.00  0.00    -0.288 C  
HETATM    9  N   UNL     1     -12.159  15.795  64.920  1.00  0.00     0.241 N  
HETATM   10  C   UNL     1     -11.062  11.252  70.096  1.00  0.00    -0.020 C  
HETATM   11  C   UNL     1     -11.728  12.464  67.729  1.00  0.00    -0.413 C  
HETATM   12  C   UNL     1     -12.923  12.552  66.757  1.00  0.00     2.618 C  
HETATM   13  C   UNL     1     -10.947  12.754  70.680  1.00  0.00     2.142 C  
HETATM   14  C   UNL     1     -10.434  13.811  69.491  1.00  0.00     0.251 C  
HETATM   15  C   UNL     1     -12.720  13.507  65.597  1.00  0.00    -0.478 C  
HETATM   16  C   UNL     1     -11.331  13.896  68.189  1.00  0.00    -0.324 C  
HETATM   17  C   UNL     1     -12.319  14.920  66.074  1.00  0.00     0.185 C  
HETATM   18  C   UNL     1     -10.691  16.304  67.448  1.00  0.00    -0.287 C  
HETATM   19  C   UNL     1     -11.002  14.873  66.950  1.00  0.00    -0.327 C  
HETATM   20  C   UNL     1      -9.890  14.517  65.936  1.00  0.00    -0.347 C  
HETATM   21  C   UNL     1      -9.934  14.874  64.622  1.00  0.00     0.408 C  
ENDROOT
BRANCH   1  22
HETATM   22  C   UNL     1     -11.683   8.191  70.819  1.00  0.00    -0.201 C  
HETATM   23  N   UNL     1     -10.498   7.506  71.039  1.00  0.00    -0.214 N  
HETATM   24  O   UNL     1     -12.738   7.529  70.707  1.00  0.00    -0.123 OA 
HETATM   25  H   UNL     1      -9.677   8.072  71.251  1.00  0.00     0.000 HD 
BRANCH  23  26
HETATM   26  C   UNL     1     -10.299   6.033  70.996  1.00  0.00    -0.216 A  
HETATM   27  C   UNL     1     -10.006   5.361  69.780  1.00  0.00    -0.294 A  
HETATM   28  F   UNL     1     -10.754   3.491  74.435  1.00  0.00    -0.230 F  
HETATM   29  F   UNL     1     -10.717   5.534  67.521  1.00  0.00    -0.260 F  
HETATM   30  F   UNL     1      -8.606   5.858  67.915  1.00  0.00    -0.107 F  
HETATM   31  F   UNL     1     -10.069   7.382  68.459  1.00  0.00    -0.156 F  
HETATM   32  F   UNL     1      -9.311   2.126  73.543  1.00  0.00    -0.076 F  
HETATM   33  F   UNL     1     -11.431   1.929  73.085  1.00  0.00    -0.255 F  
HETATM   34  C   UNL     1      -9.828   3.949  69.738  1.00  0.00    -0.118 A  
HETATM   35  C   UNL     1      -9.956   3.152  70.871  1.00  0.00     0.083 A  
HETATM   36  C   UNL     1     -10.442   2.846  73.278  1.00  0.00    -0.157 C  
HETATM   37  C   UNL     1     -10.269   3.757  72.083  1.00  0.00    -0.179 A  
HETATM   38  C   UNL     1     -10.432   5.190  72.134  1.00  0.00    -0.281 A  
HETATM   39  C   UNL     1      -9.853   6.035  68.439  1.00  0.00    -0.130 C  
ENDBRANCH  23  26
ENDBRANCH   1  22
TORSDOF 2
ENDMDL
MODEL       96
REMARK 921   NORMALIZED FREE ENERGY PREDICTED BY IDOCK:    7.86 KCAL/MOL
REMARK 922        TOTAL FREE ENERGY PREDICTED BY IDOCK:    8.15 KCAL/MOL
REMARK 923 INTER-LIGAND FREE ENERGY PREDICTED BY IDOCK:    8.31 KCAL/MOL
REMARK 924 INTRA-LIGAND FREE ENERGY PREDICTED BY IDOCK:   -0.15 KCAL/MOL
REMARK 927      BINDING AFFINITY PREDICTED BY RF-SCORE:    0.00 PKD
ROOT
HETATM    1  C   UNL     1     -11.324  13.814  69.703  1.00  0.00    -0.241 C  
HETATM    2  H   UNL     1     -11.706   5.627  73.120  1.00  0.00     0.000 HD 
HETATM    3  C   UNL     1     -12.238  13.828  70.935  1.00  0.00    -0.427 C  
HETATM    4  C   UNL     1     -11.646  12.673  71.714  1.00  0.00     2.939 C  
HETATM    5  C   UNL     1      -9.933   5.550  72.022  1.00  0.00    -0.181 C  
HETATM    6  O   UNL     1      -9.455   4.567  72.571  1.00  0.00    -0.132 OA 
HETATM    7  C   UNL     1     -10.627  12.250  67.922  1.00  0.00    -0.232 C  
HETATM    8  C   UNL     1     -11.556  11.590  70.639  1.00  0.00     0.051 C  
HETATM    9  N   UNL     1     -11.098   6.142  72.483  1.00  0.00    -0.260 N  
HETATM   10  C   UNL     1     -11.522  12.264  69.169  1.00  0.00    -0.352 C  
HETATM   11  C   UNL     1     -10.929  10.220  70.898  1.00  0.00    -0.116 C  
HETATM   12  C   UNL     1     -10.910   9.942  72.415  1.00  0.00     2.538 C  
HETATM   13  C   UNL     1     -12.690  11.289  68.627  1.00  0.00     1.350 C  
HETATM   14  C   UNL     1     -12.225   9.688  68.745  1.00  0.00     1.839 C  
HETATM   15  C   UNL     1     -10.560   8.514  72.787  1.00  0.00    -0.081 C  
HETATM   16  C   UNL     1     -11.837   9.173  70.192  1.00  0.00     0.125 C  
HETATM   17  C   UNL     1     -11.468   7.490  72.070  1.00  0.00    -0.279 C  
HETATM   18  C   UNL     1     -12.360   6.650  69.845  1.00  0.00     0.558 C  
HETATM   19  C   UNL     1     -11.385   7.657  70.499  1.00  0.00    -0.266 C  
HETATM   20  C   UNL     1      -9.959   7.170  70.145  1.00  0.00    -0.190 C  
HETATM   21  C   UNL     1      -9.295   6.219  70.860  1.00  0.00    -0.171 C  
ENDROOT
BRANCH   1  22
HETATM   22  C   UNL     1     -10.616  15.313  69.566  1.00  0.00    -0.267 C  
HETATM   23  N   UNL     1     -10.711  16.130  68.451  1.00  0.00    -0.283 N  
HETATM   24  O   UNL     1      -9.807  15.631  70.466  1.00  0.00     0.125 OA 
HETATM   25  H   UNL     1     -11.462  15.920  67.794  1.00  0.00     0.000 HD 
BRANCH  23  26
HETATM   26  C   UNL     1      -9.832  17.281  68.110  1.00  0.00    -0.290 A  
HETATM   27  C   UNL     1      -9.593  17.655  66.762  1.00  0.00    -0.297 A  
HETATM   28  F   UNL     1      -7.694  19.568  71.058  1.00  0.00     1.050 F  
HETATM   29  F   UNL     1      -9.232  16.512  64.711  1.00  0.00     1.153 F  
HETATM   30  F   UNL     1     -10.971  17.808  64.822  1.00  0.00    -0.252 F  
HETATM   31  F   UNL     1     -10.969  15.888  65.857  1.00  0.00    -0.315 F  
HETATM   32  F   UNL     1      -7.797  21.281  69.717  1.00  0.00     2.282 F  
HETATM   33  F   UNL     1      -6.140  19.875  69.569  1.00  0.00    -0.284 F  
HETATM   34  C   UNL     1      -8.742  18.749  66.437  1.00  0.00    -0.294 A  
HETATM   35  C   UNL     1      -8.081  19.490  67.411  1.00  0.00    -0.315 A  
HETATM   36  C   UNL     1      -7.486  19.951  69.768  1.00  0.00     0.208 C  
HETATM   37  C   UNL     1      -8.259  19.147  68.747  1.00  0.00    -0.382 A  
HETATM   38  C   UNL     1      -9.136  18.051  69.082  1.00  0.00     0.084 A  
HETATM   39  C   UNL     1     -10.189  16.967  65.558  1.00  0.00    -0.089 C  
ENDBRANCH  23  26
ENDBRANCH   1  22
TORSDOF 2
ENDMDL
MODEL       97
REMARK 921   NORMALIZED FREE ENERGY PREDICTED BY IDOCK:    9.93 KCAL/MOL
REMARK 922        TOTAL FREE ENERGY PREDICTED BY IDOCK:   10.46 KCAL/MOL
REMARK 923 INTER-LIGAND FREE ENERGY PREDICTED BY IDOCK:   11.18 KCAL/MOL
REMARK 924 INTRA-LIGAND FREE ENERGY PREDICTED BY IDOCK:   -0.72 KCAL/MOL
REMARK 927      BINDING AFFINITY PREDICTED BY RF-SCORE:    0.00 PKD
ROOT
HETATM    1  C   UNL     1      -7.890  10.286  69.506  1.00  0.00    -0.172 C  
HETATM    2  H   UNL     1      -4.642   2.832  65.937  1.00  0.00     0.000 HD 
HETATM    3  C   UNL     1      -6.370  10.425  69.353  1.00  0.00    -0.053 C  
HETATM    4  C   UNL     1      -6.137   9.490  68.185  1.00  0.00    -0.055 C  
HETATM    5  C   UNL     1      -6.647   2.740  65.369  1.00  0.00    -0.035 C  
HETATM    6  O   UNL     1      -6.515   1.922  64.470  1.00  0.00    -0.018 OA 
HETATM    7  C   UNL     1      -9.566   8.510  69.882  1.00  0.00    -0.171 C  
HETATM    8  C   UNL     1      -6.914   8.249  68.624  1.00  0.00    -0.068 C  
HETATM    9  N   UNL     1      -5.552   3.284  66.020  1.00  0.00    -0.017 N  
HETATM   10  C   UNL     1      -8.048   8.654  69.705  1.00  0.00    -0.114 C  
HETATM   11  C   UNL     1      -7.071   7.016  67.736  1.00  0.00    -0.085 C  
HETATM   12  C   UNL     1      -5.963   7.012  66.662  1.00  0.00    -0.034 C  
HETATM   13  C   UNL     1      -7.584   7.487  70.721  1.00  0.00    -0.081 C  
HETATM   14  C   UNL     1      -7.717   5.987  69.998  1.00  0.00    -0.100 C  
HETATM   15  C   UNL     1      -5.844   5.715  65.886  1.00  0.00    -0.021 C  
HETATM   16  C   UNL     1      -6.899   5.776  68.658  1.00  0.00    -0.062 C  
HETATM   17  C   UNL     1      -5.682   4.495  66.820  1.00  0.00    -0.018 C  
HETATM   18  C   UNL     1      -6.639   3.192  68.779  1.00  0.00    -0.037 C  
HETATM   19  C   UNL     1      -6.892   4.390  67.835  1.00  0.00    -0.055 C  
HETATM   20  C   UNL     1      -8.094   3.993  66.945  1.00  0.00    -0.097 C  
HETATM   21  C   UNL     1      -7.970   3.253  65.808  1.00  0.00    -0.086 C  
ENDROOT
BRANCH   1  22
HETATM   22  C   UNL     1      -8.566  11.800  69.374  1.00  0.00     0.817 C  
HETATM   23  N   UNL     1      -8.818  12.449  68.175  1.00  0.00    -0.188 N  
HETATM   24  O   UNL     1      -8.686  12.450  70.436  1.00  0.00     4.105 OA 
HETATM   25  H   UNL     1      -8.836  11.867  67.338  1.00  0.00     0.000 HD 
BRANCH  23  26
HETATM   26  C   UNL     1      -9.064  13.902  67.982  1.00  0.00    -0.192 A  
HETATM   27  C   UNL     1      -8.106  14.737  67.350  1.00  0.00    -0.220 A  
HETATM   28  F   UNL     1     -12.572  15.914  69.445  1.00  0.00    -0.255 F  
HETATM   29  F   UNL     1      -5.739  14.933  67.364  1.00  0.00    -0.098 F  
HETATM   30  F   UNL     1      -6.676  14.471  65.461  1.00  0.00     5.892 F  
HETATM   31  F   UNL     1      -6.527  12.941  67.008  1.00  0.00    -0.154 F  
HETATM   32  F   UNL     1     -12.362  17.341  67.813  1.00  0.00     1.188 F  
HETATM   33  F   UNL     1     -11.343  17.687  69.705  1.00  0.00     0.679 F  
HETATM   34  C   UNL     1      -8.337  16.131  67.177  1.00  0.00    -0.225 A  
HETATM   35  C   UNL     1      -9.493  16.754  67.637  1.00  0.00    -0.234 A  
HETATM   36  C   UNL     1     -11.670  16.713  68.811  1.00  0.00     0.236 C  
HETATM   37  C   UNL     1     -10.452  15.986  68.288  1.00  0.00    -0.269 A  
HETATM   38  C   UNL     1     -10.230  14.569  68.449  1.00  0.00    -0.239 A  
HETATM   39  C   UNL     1      -6.779  14.267  66.805  1.00  0.00     1.714 C  
ENDBRANCH  23  26
ENDBRANCH   1  22
TORSDOF 2
ENDMDL
MODEL       98
REMARK 921   NORMALIZED FREE ENERGY PREDICTED BY IDOCK:   10.43 KCAL/MOL
REMARK 922        TOTAL FREE ENERGY PREDICTED BY IDOCK:   11.01 KCAL/MOL
REMARK 923 INTER-LIGAND FREE ENERGY PREDICTED BY IDOCK:   11.56 KCAL/MOL
REMARK 924 INTRA-LIGAND FREE ENERGY PREDICTED BY IDOCK:   -0.55 KCAL/MOL
REMARK 927      BINDING AFFINITY PREDICTED BY RF-SCORE:    0.00 PKD
ROOT
HETATM    1  C   UNL     1     -10.510  10.095  65.346  1.00  0.00    -0.054 C  
HETATM    2  H   UNL     1      -7.809   1.640  65.609  1.00  0.00     0.000 HD 
HETATM    3  C   UNL     1     -11.664   9.216  65.846  1.00  0.00     5.914 C  
HETATM    4  C   UNL     1     -10.879   8.079  66.466  1.00  0.00     0.613 C  
HETATM    5  C   UNL     1      -5.995   2.669  65.656  1.00  0.00    -0.023 C  
HETATM    6  O   UNL     1      -5.308   1.751  66.078  1.00  0.00    -0.005 OA 
HETATM    7  C   UNL     1      -8.543   9.913  63.862  1.00  0.00    -0.202 C  
HETATM    8  C   UNL     1      -9.880   7.754  65.355  1.00  0.00     1.312 C  
HETATM    9  N   UNL     1      -7.374   2.561  65.566  1.00  0.00    -0.065 N  
HETATM   10  C   UNL     1      -9.687   9.034  64.384  1.00  0.00     1.133 C  
HETATM   11  C   UNL     1      -8.776   6.708  65.517  1.00  0.00    -0.051 C  
HETATM   12  C   UNL     1      -9.146   5.744  66.663  1.00  0.00    -0.133 C  
HETATM   13  C   UNL     1      -9.918   8.141  63.058  1.00  0.00     5.102 C  
HETATM   14  C   UNL     1      -8.774   6.926  62.959  1.00  0.00     0.587 C  
HETATM   15  C   UNL     1      -8.270   4.510  66.753  1.00  0.00    -0.102 C  
HETATM   16  C   UNL     1      -8.709   5.919  64.179  1.00  0.00     0.254 C  
HETATM   17  C   UNL     1      -8.210   3.744  65.412  1.00  0.00    -0.101 C  
HETATM   18  C   UNL     1      -7.708   3.873  62.926  1.00  0.00    -0.062 C  
HETATM   19  C   UNL     1      -7.685   4.676  64.247  1.00  0.00    -0.078 C  
HETATM   20  C   UNL     1      -6.192   4.899  64.590  1.00  0.00    -0.030 C  
HETATM   21  C   UNL     1      -5.432   3.983  65.252  1.00  0.00    -0.010 C  
ENDROOT
BRANCH   1  22
HETATM   22  C   UNL     1     -10.673  11.603  66.029  1.00  0.00    -0.280 C  
HETATM   23  N   UNL     1     -10.503  11.880  67.376  1.00  0.00    -0.213 N  
HETATM   24  O   UNL     1     -11.149  12.497  65.295  1.00  0.00    -0.283 OA 
HETATM   25  H   UNL     1      -9.999  11.183  67.925  1.00  0.00     0.000 HD 
BRANCH  23  26
HETATM   26  C   UNL     1     -10.979  13.085  68.105  1.00  0.00    -0.244 A  
HETATM   27  C   UNL     1     -11.828  12.977  69.238  1.00  0.00    -0.370 A  
HETATM   28  F   UNL     1     -10.080  17.102  66.861  1.00  0.00    -0.262 F  
HETATM   29  F   UNL     1     -13.675  11.621  69.863  1.00  0.00     1.256 F  
HETATM   30  F   UNL     1     -11.901  11.504  71.111  1.00  0.00    -0.342 F  
HETATM   31  F   UNL     1     -11.918  10.565  69.143  1.00  0.00    -0.316 F  
HETATM   32  F   UNL     1     -10.236  17.719  68.944  1.00  0.00    -0.330 F  
HETATM   33  F   UNL     1     -12.006  17.695  67.676  1.00  0.00     0.714 F  
HETATM   34  C   UNL     1     -12.293  14.132  69.928  1.00  0.00    -0.382 A  
HETATM   35  C   UNL     1     -11.967  15.422  69.520  1.00  0.00    -0.358 A  
HETATM   36  C   UNL     1     -10.868  17.003  67.966  1.00  0.00    -0.330 C  
HETATM   37  C   UNL     1     -11.160  15.584  68.400  1.00  0.00    -0.315 A  
HETATM   38  C   UNL     1     -10.670  14.415  67.708  1.00  0.00    -0.248 A  
HETATM   39  C   UNL     1     -12.320  11.677  69.825  1.00  0.00    -0.133 C  
ENDBRANCH  23  26
ENDBRANCH   1  22
TORSDOF 2
ENDMDL
MODEL       99
REMARK 921   NORMALIZED FREE ENERGY PREDICTED BY IDOCK:   10.72 KCAL/MOL
REMARK 922        TOTAL FREE ENERGY PREDICTED BY IDOCK:   11.34 KCAL/MOL
REMARK 923 INTER-LIGAND FREE ENERGY PREDICTED BY IDOCK:    2.83 KCAL/MOL
REMARK 924 INTRA-LIGAND FREE ENERGY PREDICTED BY IDOCK:    8.51 KCAL/MOL
REMARK 927      BINDING AFFINITY PREDICTED BY RF-SCORE:    0.00 PKD
ROOT
HETATM    1  C   UNL     1      -8.857  13.266  66.809  1.00  0.00    -0.140 C  
HETATM    2  H   UNL     1     -10.539   5.389  70.548  1.00  0.00     0.000 HD 
HETATM    3  C   UNL     1     -10.223  12.763  66.324  1.00  0.00    -0.264 C  
HETATM    4  C   UNL     1     -10.616  11.896  67.501  1.00  0.00    -0.250 C  
HETATM    5  C   UNL     1      -9.117   6.186  71.851  1.00  0.00    -0.140 C  
HETATM    6  O   UNL     1      -9.347   5.449  72.799  1.00  0.00    -0.139 OA 
HETATM    7  C   UNL     1      -6.692  12.338  67.555  1.00  0.00    -0.138 C  
HETATM    8  C   UNL     1      -9.347  11.070  67.714  1.00  0.00    -0.162 C  
HETATM    9  N   UNL     1      -9.912   6.176  70.716  1.00  0.00    -0.185 N  
HETATM   10  C   UNL     1      -8.068  11.842  67.091  1.00  0.00    -0.172 C  
HETATM   11  C   UNL     1      -9.190  10.078  68.866  1.00  0.00    -0.169 C  
HETATM   12  C   UNL     1     -10.584   9.680  69.394  1.00  0.00    -0.243 C  
HETATM   13  C   UNL     1      -7.584  10.525  66.293  1.00  0.00    -0.133 C  
HETATM   14  C   UNL     1      -7.278   9.270  67.354  1.00  0.00    -0.080 C  
HETATM   15  C   UNL     1     -10.580   8.507  70.354  1.00  0.00    -0.242 C  
HETATM   16  C   UNL     1      -8.482   8.823  68.281  1.00  0.00    -0.130 C  
HETATM   17  C   UNL     1      -9.865   7.273  69.758  1.00  0.00    -0.177 C  
HETATM   18  C   UNL     1      -7.740   6.368  68.703  1.00  0.00    -0.101 C  
HETATM   19  C   UNL     1      -8.377   7.621  69.349  1.00  0.00    -0.131 C  
HETATM   20  C   UNL     1      -7.654   7.824  70.701  1.00  0.00    -0.078 C  
HETATM   21  C   UNL     1      -8.012   7.178  71.846  1.00  0.00    -0.093 C  
ENDROOT
BRANCH   1  22
HETATM   22  C   UNL     1      -8.890  14.929  66.818  1.00  0.00    -0.261 C  
HETATM   23  N   UNL     1      -8.871  15.711  67.962  1.00  0.00    -0.168 N  
HETATM   24  O   UNL     1      -9.122  15.487  65.723  1.00  0.00    -0.286 OA 
HETATM   25  H   UNL     1      -8.556  15.257  68.820  1.00  0.00     0.000 HD 
BRANCH  23  26
HETATM   26  C   UNL     1      -9.261  17.142  68.071  1.00  0.00    -0.250 A  
HETATM   27  C   UNL     1     -10.008  17.784  67.049  1.00  0.00    -0.322 A  
HETATM   28  F   UNL     1      -8.070  19.669  71.340  1.00  0.00     1.622 F  
HETATM   29  F   UNL     1     -10.034  17.747  64.674  1.00  0.00     1.428 F  
HETATM   30  F   UNL     1     -11.850  17.124  65.688  1.00  0.00     0.994 F  
HETATM   31  F   UNL     1     -10.108  15.812  65.658  1.00  0.00    -0.303 F  
HETATM   32  F   UNL     1      -9.884  20.832  71.025  1.00  0.00     0.622 F  
HETATM   33  F   UNL     1      -8.063  21.332  69.941  1.00  0.00     2.594 F  
HETATM   34  C   UNL     1     -10.370  19.157  67.148  1.00  0.00    -0.511 A  
HETATM   35  C   UNL     1      -9.993  19.948  68.230  1.00  0.00    -0.552 A  
HETATM   36  C   UNL     1      -8.813  20.281  70.378  1.00  0.00     1.627 C  
HETATM   37  C   UNL     1      -9.237  19.374  69.245  1.00  0.00    -0.121 A  
HETATM   38  C   UNL     1      -8.884  17.977  69.158  1.00  0.00     0.114 A  
HETATM   39  C   UNL     1     -10.490  17.116  65.785  1.00  0.00    -0.233 C  
ENDBRANCH  23  26
ENDBRANCH   1  22
TORSDOF 2
ENDMDL
MODEL      100
REMARK 921   NORMALIZED FREE ENERGY PREDICTED BY IDOCK:   12.18 KCAL/MOL
REMARK 922        TOTAL FREE ENERGY PREDICTED BY IDOCK:   12.97 KCAL/MOL
REMARK 923 INTER-LIGAND FREE ENERGY PREDICTED BY IDOCK:   12.97 KCAL/MOL
REMARK 924 INTRA-LIGAND FREE ENERGY PREDICTED BY IDOCK:   -0.00 KCAL/MOL
REMARK 927      BINDING AFFINITY PREDICTED BY RF-SCORE:    0.00 PKD
ROOT
HETATM    1  C   UNL     1      -8.856  13.272  66.817  1.00  0.00    -0.140 C  
HETATM    2  H   UNL     1     -10.593   5.206  70.099  1.00  0.00     0.000 HD 
HETATM    3  C   UNL     1     -10.221  12.803  66.297  1.00  0.00    -0.264 C  
HETATM    4  C   UNL     1     -10.625  11.873  67.421  1.00  0.00    -0.257 C  
HETATM    5  C   UNL     1      -9.176   5.922  71.453  1.00  0.00    -0.146 C  
HETATM    6  O   UNL     1      -9.414   5.134  72.357  1.00  0.00    -0.142 OA 
HETATM    7  C   UNL     1      -6.699  12.294  67.522  1.00  0.00    -0.138 C  
HETATM    8  C   UNL     1      -9.360  11.032  67.595  1.00  0.00    -0.162 C  
HETATM    9  N   UNL     1      -9.964   5.979  70.315  1.00  0.00    -0.180 N  
HETATM   10  C   UNL     1      -8.075  11.831  67.024  1.00  0.00    -0.169 C  
HETATM   11  C   UNL     1      -9.215   9.976  68.690  1.00  0.00    -0.152 C  
HETATM   12  C   UNL     1     -10.613   9.555  69.187  1.00  0.00    -0.237 C  
HETATM   13  C   UNL     1      -7.591  10.558  66.155  1.00  0.00    -0.135 C  
HETATM   14  C   UNL     1      -7.297   9.245  67.146  1.00  0.00    -0.091 C  
HETATM   15  C   UNL     1     -10.620   8.330  70.081  1.00  0.00    -0.233 C  
HETATM   16  C   UNL     1      -8.509   8.752  68.040  1.00  0.00    -0.126 C  
HETATM   17  C   UNL     1      -9.907   7.129  69.420  1.00  0.00    -0.161 C  
HETATM   18  C   UNL     1      -7.779   6.274  68.328  1.00  0.00    -0.104 C  
HETATM   19  C   UNL     1      -8.415   7.491  69.039  1.00  0.00    -0.133 C  
HETATM   20  C   UNL     1      -7.699   7.616  70.405  1.00  0.00    -0.090 C  
HETATM   21  C   UNL     1      -8.067   6.908  71.509  1.00  0.00    -0.109 C  
ENDROOT
BRANCH   1  22
HETATM   22  C   UNL     1      -8.882  14.932  66.919  1.00  0.00    -0.258 C  
HETATM   23  N   UNL     1      -9.922  15.733  66.475  1.00  0.00    -0.256 N  
HETATM   24  O   UNL     1      -7.813  15.485  67.261  1.00  0.00    -0.167 OA 
HETATM   25  H   UNL     1     -10.820  15.271  66.323  1.00  0.00     0.000 HD 
BRANCH  23  26
HETATM   26  C   UNL     1      -9.868  17.192  66.196  1.00  0.00    -0.262 A  
HETATM   27  C   UNL     1     -11.007  17.898  65.726  1.00  0.00     0.238 A  
HETATM   28  F   UNL     1      -6.276  19.529  66.547  1.00  0.00    -0.170 F  
HETATM   29  F   UNL     1     -12.771  17.464  64.195  1.00  0.00     3.547 F  
HETATM   30  F   UNL     1     -13.329  17.829  66.262  1.00  0.00     8.647 F  
HETATM   31  F   UNL     1     -12.413  15.934  65.694  1.00  0.00     0.896 F  
HETATM   32  F   UNL     1      -7.517  21.262  66.994  1.00  0.00    -0.356 F  
HETATM   33  F   UNL     1      -7.028  20.772  64.930  1.00  0.00    -0.283 F  
HETATM   34  C   UNL     1     -10.951  19.292  65.447  1.00  0.00     0.157 A  
HETATM   35  C   UNL     1      -9.782  20.032  65.593  1.00  0.00    -0.124 A  
HETATM   36  C   UNL     1      -7.373  20.216  66.126  1.00  0.00    -0.284 C  
HETATM   37  C   UNL     1      -8.631  19.383  66.025  1.00  0.00    -0.196 A  
HETATM   38  C   UNL     1      -8.687  17.973  66.327  1.00  0.00    -0.194 A  
HETATM   39  C   UNL     1     -12.361  17.279  65.475  1.00  0.00     5.207 C  
ENDBRANCH  23  26
ENDBRANCH   1  22
TORSDOF 2
ENDMDL
MODEL      101
REMARK 921   NORMALIZED FREE ENERGY PREDICTED BY IDOCK:   12.36 KCAL/MOL
REMARK 922        TOTAL FREE ENERGY PREDICTED BY IDOCK:   13.18 KCAL/MOL
REMARK 923 INTER-LIGAND FREE ENERGY PREDICTED BY IDOCK:   13.76 KCAL/MOL
REMARK 924 INTRA-LIGAND FREE ENERGY PREDICTED BY IDOCK:   -0.58 KCAL/MOL
REMARK 927      BINDING AFFINITY PREDICTED BY RF-SCORE:    0.00 PKD
ROOT
HETATM    1  C   UNL     1     -11.086  15.525  69.366  1.00  0.00    -0.291 C  
HETATM    2  H   UNL     1     -11.154   7.278  72.659  1.00  0.00     0.000 HD 
HETATM    3  C   UNL     1     -10.271  15.498  70.666  1.00  0.00     0.229 C  
HETATM    4  C   UNL     1      -9.823  14.052  70.665  1.00  0.00     3.027 C  
HETATM    5  C   UNL     1     -11.614   6.941  70.652  1.00  0.00    -0.353 C  
HETATM    6  O   UNL     1     -11.342   5.750  70.629  1.00  0.00    -0.222 OA 
HETATM    7  C   UNL     1     -13.013  14.355  68.356  1.00  0.00     1.764 C  
HETATM    8  C   UNL     1     -11.137  13.323  70.379  1.00  0.00     0.878 C  
HETATM    9  N   UNL     1     -11.346   7.725  71.762  1.00  0.00    -0.252 N  
HETATM   10  C   UNL     1     -12.179  14.318  69.643  1.00  0.00    -0.371 C  
HETATM   11  C   UNL     1     -11.216  11.809  70.187  1.00  0.00     0.126 C  
HETATM   12  C   UNL     1      -9.972  11.145  70.815  1.00  0.00     3.348 C  
HETATM   13  C   UNL     1     -13.362  13.943  70.676  1.00  0.00     0.076 C  
HETATM   14  C   UNL     1     -13.697  12.306  70.621  1.00  0.00     2.030 C  
HETATM   15  C   UNL     1     -10.055   9.636  70.927  1.00  0.00    -0.257 C  
HETATM   16  C   UNL     1     -12.491  11.329  70.936  1.00  0.00    -0.493 C  
HETATM   17  C   UNL     1     -11.333   9.180  71.668  1.00  0.00    -0.376 C  
HETATM   18  C   UNL     1     -13.868   9.288  71.770  1.00  0.00    -0.391 C  
HETATM   19  C   UNL     1     -12.633   9.724  70.948  1.00  0.00    -0.350 C  
HETATM   20  C   UNL     1     -12.691   8.925  69.625  1.00  0.00     2.355 C  
HETATM   21  C   UNL     1     -12.205   7.659  69.494  1.00  0.00     1.487 C  
ENDROOT
BRANCH   1  22
HETATM   22  C   UNL     1     -10.451  16.703  68.379  1.00  0.00    -0.323 C  
HETATM   23  N   UNL     1      -9.152  17.181  68.458  1.00  0.00    -0.259 N  
HETATM   24  O   UNL     1     -11.260  17.308  67.642  1.00  0.00    -0.118 OA 
HETATM   25  H   UNL     1      -8.483  16.601  68.964  1.00  0.00     0.000 HD 
BRANCH  23  26
HETATM   26  C   UNL     1      -8.632  18.450  67.884  1.00  0.00    -0.272 A  
HETATM   27  C   UNL     1      -8.752  19.681  68.581  1.00  0.00    -0.317 A  
HETATM   28  F   UNL     1      -6.863  18.719  63.973  1.00  0.00     0.855 F  
HETATM   29  F   UNL     1     -10.410  20.730  69.920  1.00  0.00    -0.102 F  
HETATM   30  F   UNL     1      -8.499  20.317  70.865  1.00  0.00     0.627 F  
HETATM   31  F   UNL     1      -9.896  18.691  70.463  1.00  0.00     0.996 F  
HETATM   32  F   UNL     1      -5.677  20.398  64.690  1.00  0.00    -0.192 F  
HETATM   33  F   UNL     1      -7.655  20.739  63.847  1.00  0.00     0.325 F  
HETATM   34  C   UNL     1      -8.265  20.898  68.025  1.00  0.00     0.283 A  
HETATM   35  C   UNL     1      -7.674  20.954  66.767  1.00  0.00    -0.073 A  
HETATM   36  C   UNL     1      -6.948  19.896  64.651  1.00  0.00     0.306 C  
HETATM   37  C   UNL     1      -7.556  19.781  66.031  1.00  0.00    -0.340 A  
HETATM   38  C   UNL     1      -8.031  18.542  66.598  1.00  0.00    -0.278 A  
HETATM   39  C   UNL     1      -9.384  19.843  69.942  1.00  0.00     0.678 C  
ENDBRANCH  23  26
ENDBRANCH   1  22
TORSDOF 2
ENDMDL
MODEL      102
REMARK 921   NORMALIZED FREE ENERGY PREDICTED BY IDOCK:   13.93 KCAL/MOL
REMARK 922        TOTAL FREE ENERGY PREDICTED BY IDOCK:   14.93 KCAL/MOL
REMARK 923 INTER-LIGAND FREE ENERGY PREDICTED BY IDOCK:   15.53 KCAL/MOL
REMARK 924 INTRA-LIGAND FREE ENERGY PREDICTED BY IDOCK:   -0.60 KCAL/MOL
REMARK 927      BINDING AFFINITY PREDICTED BY RF-SCORE:    0.00 PKD
ROOT
HETATM    1  C   UNL     1     -11.412  14.189  69.993  1.00  0.00    -0.258 C  
HETATM    2  H   UNL     1     -12.903   6.072  73.271  1.00  0.00     0.000 HD 
HETATM    3  C   UNL     1     -12.159  14.317  71.327  1.00  0.00    -0.391 C  
HETATM    4  C   UNL     1     -11.705  13.043  72.006  1.00  0.00     2.559 C  
HETATM    5  C   UNL     1     -11.315   5.720  71.964  1.00  0.00    -0.228 C  
HETATM    6  O   UNL     1     -10.967   4.645  72.431  1.00  0.00    -0.124 OA 
HETATM    7  C   UNL     1     -11.229  12.600  68.110  1.00  0.00    -0.311 C  
HETATM    8  C   UNL     1     -11.942  12.007  70.906  1.00  0.00    -0.025 C  
HETATM    9  N   UNL     1     -12.289   6.494  72.574  1.00  0.00     0.025 N  
HETATM   10  C   UNL     1     -11.955  12.724  69.456  1.00  0.00    -0.338 C  
HETATM   11  C   UNL     1     -11.554  10.536  71.060  1.00  0.00    -0.318 C  
HETATM   12  C   UNL     1     -11.410  10.196  72.558  1.00  0.00     2.988 C  
HETATM   13  C   UNL     1     -13.338  12.001  69.042  1.00  0.00     3.785 C  
HETATM   14  C   UNL     1     -13.167  10.338  69.072  1.00  0.00     3.212 C  
HETATM   15  C   UNL     1     -11.289   8.715  72.857  1.00  0.00     0.302 C  
HETATM   16  C   UNL     1     -12.716   9.702  70.450  1.00  0.00     0.146 C  
HETATM   17  C   UNL     1     -12.448   7.903  72.236  1.00  0.00    -0.225 C  
HETATM   18  C   UNL     1     -13.733   7.332  70.121  1.00  0.00     2.481 C  
HETATM   19  C   UNL     1     -12.519   8.117  70.670  1.00  0.00     0.248 C  
HETATM   20  C   UNL     1     -11.259   7.395  70.136  1.00  0.00    -0.239 C  
HETATM   21  C   UNL     1     -10.704   6.310  70.745  1.00  0.00    -0.312 C  
ENDROOT
BRANCH   1  22
HETATM   22  C   UNL     1     -10.460  15.539  69.800  1.00  0.00    -0.301 C  
HETATM   23  N   UNL     1     -10.566  16.434  68.747  1.00  0.00    -0.289 N  
HETATM   24  O   UNL     1      -9.478  15.641  70.567  1.00  0.00     0.459 OA 
HETATM   25  H   UNL     1     -11.436  16.410  68.214  1.00  0.00     0.000 HD 
BRANCH  23  26
HETATM   26  C   UNL     1      -9.546  17.425  68.312  1.00  0.00    -0.292 A  
HETATM   27  C   UNL     1      -9.506  18.733  68.861  1.00  0.00    -0.331 A  
HETATM   28  F   UNL     1      -6.671  16.645  65.211  1.00  0.00     1.249 F  
HETATM   29  F   UNL     1     -11.108  20.363  69.510  1.00  0.00     0.169 F  
HETATM   30  F   UNL     1      -9.788  19.610  71.061  1.00  0.00     0.645 F  
HETATM   31  F   UNL     1     -11.409  18.363  70.302  1.00  0.00     1.884 F  
HETATM   32  F   UNL     1      -5.322  18.045  66.192  1.00  0.00    -0.157 F  
HETATM   33  F   UNL     1      -6.756  18.761  64.719  1.00  0.00    -0.222 F  
HETATM   34  C   UNL     1      -8.537  19.686  68.436  1.00  0.00    -0.357 A  
HETATM   35  C   UNL     1      -7.601  19.400  67.448  1.00  0.00    -0.269 A  
HETATM   36  C   UNL     1      -6.608  17.891  65.757  1.00  0.00    -0.229 C  
HETATM   37  C   UNL     1      -7.614  18.142  66.858  1.00  0.00    -0.239 A  
HETATM   38  C   UNL     1      -8.582  17.167  67.299  1.00  0.00    -0.214 A  
HETATM   39  C   UNL     1     -10.447  19.253  69.922  1.00  0.00     1.040 C  
ENDBRANCH  23  26
ENDBRANCH   1  22
TORSDOF 2
ENDMDL
MODEL      103
REMARK 921   NORMALIZED FREE ENERGY PREDICTED BY IDOCK:   15.14 KCAL/MOL
REMARK 922        TOTAL FREE ENERGY PREDICTED BY IDOCK:   16.28 KCAL/MOL
REMARK 923 INTER-LIGAND FREE ENERGY PREDICTED BY IDOCK:    6.20 KCAL/MOL
REMARK 924 INTRA-LIGAND FREE ENERGY PREDICTED BY IDOCK:   10.08 KCAL/MOL
REMARK 927      BINDING AFFINITY PREDICTED BY RF-SCORE:    0.00 PKD
ROOT
HETATM    1  C   UNL     1     -12.737  10.822  71.038  1.00  0.00    -0.513 C  
HETATM    2  H   UNL     1     -10.786  17.468  65.482  1.00  0.00     0.000 HD 
HETATM    3  C   UNL     1     -13.657  10.737  69.814  1.00  0.00     1.807 C  
HETATM    4  C   UNL     1     -12.776  11.401  68.777  1.00  0.00     1.164 C  
HETATM    5  C   UNL     1      -9.033  17.320  66.604  1.00  0.00    -0.256 C  
HETATM    6  O   UNL     1      -8.304  17.925  65.831  1.00  0.00    -0.521 OA 
HETATM    7  C   UNL     1     -11.544  12.541  72.352  1.00  0.00     5.089 C  
HETATM    8  C   UNL     1     -12.329  12.663  69.515  1.00  0.00    -0.002 C  
HETATM    9  N   UNL     1     -10.337  16.995  66.266  1.00  0.00    -0.321 N  
HETATM   10  C   UNL     1     -12.446  12.446  71.114  1.00  0.00    -0.323 C  
HETATM   11  C   UNL     1     -11.333  13.659  68.921  1.00  0.00    -0.332 C  
HETATM   12  C   UNL     1     -11.286  13.485  67.389  1.00  0.00    -0.317 C  
HETATM   13  C   UNL     1     -13.252  13.833  71.306  1.00  0.00    -0.331 C  
HETATM   14  C   UNL     1     -12.335  15.126  70.775  1.00  0.00    -0.415 C  
HETATM   15  C   UNL     1     -10.540  14.583  66.655  1.00  0.00    -0.283 C  
HETATM   16  C   UNL     1     -11.863  15.080  69.264  1.00  0.00    -0.344 C  
HETATM   17  C   UNL     1     -11.076  15.987  67.015  1.00  0.00    -0.071 C  
HETATM   18  C   UNL     1     -11.599  17.637  68.874  1.00  0.00     1.775 C  
HETATM   19  C   UNL     1     -10.991  16.246  68.573  1.00  0.00    -0.345 C  
HETATM   20  C   UNL     1      -9.474  16.369  68.851  1.00  0.00    -0.254 C  
HETATM   21  C   UNL     1      -8.583  16.844  67.936  1.00  0.00    -0.208 C  
ENDROOT
BRANCH   1  22
HETATM   22  C   UNL     1     -12.502   9.281  71.619  1.00  0.00    -0.368 C  
HETATM   23  N   UNL     1     -11.271   8.649  71.701  1.00  0.00    -0.285 N  
HETATM   24  O   UNL     1     -13.531   8.602  71.827  1.00  0.00    -0.349 OA 
HETATM   25  H   UNL     1     -10.447   9.248  71.653  1.00  0.00     0.000 HD 
BRANCH  23  26
HETATM   26  C   UNL     1     -11.026   7.190  71.852  1.00  0.00    -0.231 A  
HETATM   27  C   UNL     1     -12.078   6.293  72.174  1.00  0.00    -0.304 A  
HETATM   28  F   UNL     1      -7.122   5.411  71.556  1.00  0.00    -0.058 F  
HETATM   29  F   UNL     1     -13.974   6.329  73.605  1.00  0.00     2.812 F  
HETATM   30  F   UNL     1     -14.350   6.096  71.479  1.00  0.00     0.129 F  
HETATM   31  F   UNL     1     -13.749   8.034  72.278  1.00  0.00    -0.305 F  
HETATM   32  F   UNL     1      -8.075   3.578  70.867  1.00  0.00    -0.060 F  
HETATM   33  F   UNL     1      -7.784   3.924  72.997  1.00  0.00    -0.067 F  
HETATM   34  C   UNL     1     -11.841   4.898  72.331  1.00  0.00     0.406 A  
HETATM   35  C   UNL     1     -10.571   4.343  72.205  1.00  0.00    -0.101 A  
HETATM   36  C   UNL     1      -8.133   4.542  71.834  1.00  0.00    -0.100 C  
HETATM   37  C   UNL     1      -9.501   5.182  71.917  1.00  0.00    -0.184 A  
HETATM   38  C   UNL     1      -9.740   6.594  71.738  1.00  0.00    -0.168 A  
HETATM   39  C   UNL     1     -13.519   6.693  72.380  1.00  0.00     0.434 C  
ENDBRANCH  23  26
ENDBRANCH   1  22
TORSDOF 2
ENDMDL
MODEL      104
REMARK 921   NORMALIZED FREE ENERGY PREDICTED BY IDOCK:   16.03 KCAL/MOL
REMARK 922        TOTAL FREE ENERGY PREDICTED BY IDOCK:   17.27 KCAL/MOL
REMARK 923 INTER-LIGAND FREE ENERGY PREDICTED BY IDOCK:    9.71 KCAL/MOL
REMARK 924 INTRA-LIGAND FREE ENERGY PREDICTED BY IDOCK:    7.57 KCAL/MOL
REMARK 927      BINDING AFFINITY PREDICTED BY RF-SCORE:    0.00 PKD
ROOT
HETATM    1  C   UNL     1      -6.317  11.996  69.162  1.00  0.00    -0.093 C  
HETATM    2  H   UNL     1      -8.314   3.569  67.203  1.00  0.00     0.000 HD 
HETATM    3  C   UNL     1      -5.182  11.395  68.322  1.00  0.00    -0.039 C  
HETATM    4  C   UNL     1      -5.954  10.347  67.550  1.00  0.00    -0.052 C  
HETATM    5  C   UNL     1     -10.194   4.364  67.636  1.00  0.00     0.121 C  
HETATM    6  O   UNL     1     -10.858   3.492  67.095  1.00  0.00     2.361 OA 
HETATM    7  C   UNL     1      -8.016  11.254  70.795  1.00  0.00     4.170 C  
HETATM    8  C   UNL     1      -6.744   9.662  68.666  1.00  0.00    -0.052 C  
HETATM    9  N   UNL     1      -8.814   4.399  67.522  1.00  0.00    -0.105 N  
HETATM   10  C   UNL     1      -6.895  10.656  69.934  1.00  0.00    -0.149 C  
HETATM   11  C   UNL     1      -7.769   8.561  68.397  1.00  0.00    -0.101 C  
HETATM   12  C   UNL     1      -7.497   7.933  67.014  1.00  0.00    -0.092 C  
HETATM   13  C   UNL     1      -6.393   9.517  70.965  1.00  0.00    -0.077 C  
HETATM   14  C   UNL     1      -7.404   8.187  70.911  1.00  0.00    -0.059 C  
HETATM   15  C   UNL     1      -8.271   6.659  66.740  1.00  0.00    -0.114 C  
HETATM   16  C   UNL     1      -7.568   7.484  69.501  1.00  0.00    -0.095 C  
HETATM   17  C   UNL     1      -8.064   5.605  67.851  1.00  0.00    -0.101 C  
HETATM   18  C   UNL     1      -8.196   5.104  70.338  1.00  0.00    -0.098 C  
HETATM   19  C   UNL     1      -8.485   6.179  69.264  1.00  0.00    -0.119 C  
HETATM   20  C   UNL     1     -10.025   6.300  69.178  1.00  0.00    -0.181 C  
HETATM   21  C   UNL     1     -10.797   5.476  68.414  1.00  0.00    -0.059 C  
ENDROOT
BRANCH   1  22
HETATM   22  C   UNL     1      -6.384  13.629  68.850  1.00  0.00    -0.097 C  
HETATM   23  N   UNL     1      -6.703  14.598  69.789  1.00  0.00    -0.163 N  
HETATM   24  O   UNL     1      -6.312  13.969  67.649  1.00  0.00    -0.206 OA 
HETATM   25  H   UNL     1      -6.632  14.324  70.769  1.00  0.00     0.000 HD 
BRANCH  23  26
HETATM   26  C   UNL     1      -7.137  15.994  69.517  1.00  0.00    -0.181 A  
HETATM   27  C   UNL     1      -7.662  16.372  68.254  1.00  0.00    -0.162 A  
HETATM   28  F   UNL     1      -6.723  19.189  72.366  1.00  0.00     0.973 F  
HETATM   29  F   UNL     1      -7.180  15.865  65.984  1.00  0.00     0.260 F  
HETATM   30  F   UNL     1      -9.158  15.339  66.711  1.00  0.00    -0.207 F  
HETATM   31  F   UNL     1      -7.422  14.162  67.310  1.00  0.00    -0.179 F  
HETATM   32  F   UNL     1      -8.452  20.148  71.452  1.00  0.00     0.887 F  
HETATM   33  F   UNL     1      -6.452  20.539  70.684  1.00  0.00    -0.369 F  
HETATM   34  C   UNL     1      -8.065  17.712  67.990  1.00  0.00    -0.243 A  
HETATM   35  C   UNL     1      -7.944  18.723  68.939  1.00  0.00    -0.281 A  
HETATM   36  C   UNL     1      -7.256  19.550  71.166  1.00  0.00     1.568 C  
HETATM   37  C   UNL     1      -7.411  18.411  70.184  1.00  0.00     1.279 A  
HETATM   38  C   UNL     1      -7.018  17.051  70.462  1.00  0.00     1.976 A  
HETATM   39  C   UNL     1      -7.850  15.438  67.084  1.00  0.00    -0.214 C  
ENDBRANCH  23  26
ENDBRANCH   1  22
TORSDOF 2
ENDMDL
MODEL      105
REMARK 921   NORMALIZED FREE ENERGY PREDICTED BY IDOCK:   17.41 KCAL/MOL
REMARK 922        TOTAL FREE ENERGY PREDICTED BY IDOCK:   18.81 KCAL/MOL
REMARK 923 INTER-LIGAND FREE ENERGY PREDICTED BY IDOCK:   19.24 KCAL/MOL
REMARK 924 INTRA-LIGAND FREE ENERGY PREDICTED BY IDOCK:   -0.42 KCAL/MOL
REMARK 927      BINDING AFFINITY PREDICTED BY RF-SCORE:    0.00 PKD
ROOT
HETATM    1  C   UNL     1     -12.058  10.956  67.611  1.00  0.00     0.852 C  
HETATM    2  H   UNL     1      -7.736   3.223  67.006  1.00  0.00     0.000 HD 
HETATM    3  C   UNL     1     -12.955   9.838  68.159  1.00  0.00     7.482 C  
HETATM    4  C   UNL     1     -11.898   8.854  68.615  1.00  0.00     1.799 C  
HETATM    5  C   UNL     1      -6.166   4.596  66.949  1.00  0.00    -0.032 C  
HETATM    6  O   UNL     1      -5.269   3.816  67.235  1.00  0.00    -0.010 OA 
HETATM    7  C   UNL     1     -10.270  11.252  65.932  1.00  0.00    -0.298 C  
HETATM    8  C   UNL     1     -10.983   8.794  67.392  1.00  0.00     0.094 C  
HETATM    9  N   UNL     1      -7.497   4.214  66.987  1.00  0.00    -0.076 N  
HETATM   10  C   UNL     1     -11.154  10.134  66.500  1.00  0.00     0.211 C  
HETATM   11  C   UNL     1      -9.685   7.988  67.370  1.00  0.00    -0.216 C  
HETATM   12  C   UNL     1      -9.729   6.913  68.476  1.00  0.00    -0.138 C  
HETATM   13  C   UNL     1     -11.350   9.280  65.143  1.00  0.00     5.904 C  
HETATM   14  C   UNL     1     -10.008   8.328  64.846  1.00  0.00     2.392 C  
HETATM   15  C   UNL     1      -8.623   5.879  68.391  1.00  0.00    -0.113 C  
HETATM   16  C   UNL     1      -9.612   7.296  65.980  1.00  0.00     0.084 C  
HETATM   17  C   UNL     1      -8.562   5.209  67.000  1.00  0.00    -0.105 C  
HETATM   18  C   UNL     1      -8.373   5.561  64.492  1.00  0.00    -0.127 C  
HETATM   19  C   UNL     1      -8.362   6.286  65.858  1.00  0.00    -0.142 C  
HETATM   20  C   UNL     1      -6.914   6.790  66.068  1.00  0.00    -0.065 C  
HETATM   21  C   UNL     1      -5.920   6.015  66.586  1.00  0.00    -0.022 C  
ENDROOT
BRANCH   1  22
HETATM   22  C   UNL     1     -12.438  12.364  68.412  1.00  0.00     0.779 C  
HETATM   23  N   UNL     1     -11.535  13.376  68.697  1.00  0.00    -0.286 N  
HETATM   24  O   UNL     1     -13.573  12.418  68.935  1.00  0.00     3.653 OA 
HETATM   25  H   UNL     1     -10.667  13.376  68.162  1.00  0.00     0.000 HD 
BRANCH  23  26
HETATM   26  C   UNL     1     -11.699  14.461  69.700  1.00  0.00    -0.309 A  
HETATM   27  C   UNL     1     -11.389  15.811  69.387  1.00  0.00    -0.348 A  
HETATM   28  F   UNL     1     -12.930  13.753  73.760  1.00  0.00     0.151 F  
HETATM   29  F   UNL     1      -9.698  16.931  68.152  1.00  0.00    -0.232 F  
HETATM   30  F   UNL     1     -11.745  17.184  67.471  1.00  0.00     0.212 F  
HETATM   31  F   UNL     1     -10.701  15.299  67.129  1.00  0.00    -0.287 F  
HETATM   32  F   UNL     1     -13.791  15.754  73.784  1.00  0.00    -0.249 F  
HETATM   33  F   UNL     1     -11.706  15.454  74.337  1.00  0.00    -0.471 F  
HETATM   34  C   UNL     1     -11.535  16.847  70.352  1.00  0.00     0.664 A  
HETATM   35  C   UNL     1     -11.959  16.595  71.653  1.00  0.00     0.210 A  
HETATM   36  C   UNL     1     -12.664  15.053  73.455  1.00  0.00    -0.530 C  
HETATM   37  C   UNL     1     -12.250  15.286  72.019  1.00  0.00    -0.441 A  
HETATM   38  C   UNL     1     -12.122  14.235  71.039  1.00  0.00    -0.416 A  
HETATM   39  C   UNL     1     -10.889  16.291  68.047  1.00  0.00    -0.339 C  
ENDBRANCH  23  26
ENDBRANCH   1  22
TORSDOF 2
ENDMDL
MODEL      106
REMARK 921   NORMALIZED FREE ENERGY PREDICTED BY IDOCK:   18.20 KCAL/MOL
REMARK 922        TOTAL FREE ENERGY PREDICTED BY IDOCK:   19.70 KCAL/MOL
REMARK 923 INTER-LIGAND FREE ENERGY PREDICTED BY IDOCK:   20.27 KCAL/MOL
REMARK 924 INTRA-LIGAND FREE ENERGY PREDICTED BY IDOCK:   -0.57 KCAL/MOL
REMARK 927      BINDING AFFINITY PREDICTED BY RF-SCORE:    0.00 PKD
ROOT
HETATM    1  C   UNL     1      -7.339  11.252  69.648  1.00  0.00     0.096 C  
HETATM    2  H   UNL     1      -8.600  20.035  69.294  1.00  0.00     0.000 HD 
HETATM    3  C   UNL     1      -8.818  11.534  69.348  1.00  0.00     0.630 C  
HETATM    4  C   UNL     1      -8.695  12.878  68.663  1.00  0.00     0.060 C  
HETATM    5  C   UNL     1      -6.548  19.883  68.952  1.00  0.00    -0.323 C  
HETATM    6  O   UNL     1      -6.390  20.995  68.468  1.00  0.00    -0.263 OA 
HETATM    7  C   UNL     1      -5.450  12.306  70.840  1.00  0.00    -0.139 C  
HETATM    8  C   UNL     1      -7.784  13.635  69.630  1.00  0.00     0.733 C  
HETATM    9  N   UNL     1      -7.810  19.392  69.242  1.00  0.00    -0.229 N  
HETATM   10  C   UNL     1      -6.923  12.593  70.518  1.00  0.00     1.873 C  
HETATM   11  C   UNL     1      -7.273  15.048  69.348  1.00  0.00    -0.194 C  
HETATM   12  C   UNL     1      -8.182  15.724  68.300  1.00  0.00    -0.143 C  
HETATM   13  C   UNL     1      -7.321  13.340  71.894  1.00  0.00     7.025 C  
HETATM   14  C   UNL     1      -6.809  14.931  71.870  1.00  0.00     1.895 C  
HETATM   15  C   UNL     1      -7.944  17.211  68.129  1.00  0.00    -0.216 C  
HETATM   16  C   UNL     1      -7.359  15.830  70.689  1.00  0.00     1.530 C  
HETATM   17  C   UNL     1      -8.026  17.969  69.473  1.00  0.00     0.561 C  
HETATM   18  C   UNL     1      -7.165  18.145  71.856  1.00  0.00     6.850 C  
HETATM   19  C   UNL     1      -6.989  17.389  70.518  1.00  0.00     2.084 C  
HETATM   20  C   UNL     1      -5.612  17.819  69.957  1.00  0.00    -0.246 C  
HETATM   21  C   UNL     1      -5.424  18.952  69.225  1.00  0.00    -0.211 C  
ENDROOT
BRANCH   1  22
HETATM   22  C   UNL     1      -6.935   9.800  68.944  1.00  0.00    -0.062 C  
HETATM   23  N   UNL     1      -7.815   8.746  68.752  1.00  0.00    -0.100 N  
HETATM   24  O   UNL     1      -5.718   9.601  68.740  1.00  0.00    -0.039 OA 
HETATM   25  H   UNL     1      -8.809   8.967  68.802  1.00  0.00     0.000 HD 
BRANCH  23  26
HETATM   26  C   UNL     1      -7.460   7.327  68.481  1.00  0.00    -0.105 A  
HETATM   27  C   UNL     1      -7.241   6.405  69.538  1.00  0.00    -0.078 A  
HETATM   28  F   UNL     1      -6.831   5.768  64.523  1.00  0.00    -0.045 F  
HETATM   29  F   UNL     1      -6.198   6.471  71.671  1.00  0.00    -0.038 F  
HETATM   30  F   UNL     1      -8.318   6.002  71.627  1.00  0.00    -0.120 F  
HETATM   31  F   UNL     1      -7.641   8.044  71.267  1.00  0.00    -0.067 F  
HETATM   32  F   UNL     1      -7.477   3.820  65.253  1.00  0.00    -0.071 F  
HETATM   33  F   UNL     1      -5.382   4.397  65.387  1.00  0.00    -0.008 F  
HETATM   34  C   UNL     1      -6.890   5.051  69.278  1.00  0.00    -0.054 A  
HETATM   35  C   UNL     1      -6.717   4.564  67.986  1.00  0.00    -0.051 A  
HETATM   36  C   UNL     1      -6.651   4.872  65.533  1.00  0.00    -0.041 C  
HETATM   37  C   UNL     1      -6.893   5.433  66.916  1.00  0.00    -0.063 A  
HETATM   38  C   UNL     1      -7.268   6.802  67.174  1.00  0.00    -0.085 A  
HETATM   39  C   UNL     1      -7.351   6.736  71.007  1.00  0.00    -0.078 C  
ENDBRANCH  23  26
ENDBRANCH   1  22
TORSDOF 2
ENDMDL
MODEL      107
REMARK 921   NORMALIZED FREE ENERGY PREDICTED BY IDOCK:   18.92 KCAL/MOL
REMARK 922        TOTAL FREE ENERGY PREDICTED BY IDOCK:   20.50 KCAL/MOL
REMARK 923 INTER-LIGAND FREE ENERGY PREDICTED BY IDOCK:   21.12 KCAL/MOL
REMARK 924 INTRA-LIGAND FREE ENERGY PREDICTED BY IDOCK:   -0.62 KCAL/MOL
REMARK 927      BINDING AFFINITY PREDICTED BY RF-SCORE:    0.00 PKD
ROOT
HETATM    1  C   UNL     1      -7.889  13.593  68.566  1.00  0.00    -0.131 C  
HETATM    2  H   UNL     1      -9.303   5.613  72.194  1.00  0.00     0.000 HD 
HETATM    3  C   UNL     1      -7.822  12.525  67.467  1.00  0.00    -0.168 C  
HETATM    4  C   UNL     1      -8.723  11.469  68.072  1.00  0.00    -0.151 C  
HETATM    5  C   UNL     1     -10.155   6.884  73.612  1.00  0.00    -0.318 C  
HETATM    6  O   UNL     1     -10.836   6.044  74.183  1.00  0.00    -0.093 OA 
HETATM    7  C   UNL     1      -7.434  13.804  70.986  1.00  0.00     3.336 C  
HETATM    8  C   UNL     1      -8.171  11.372  69.495  1.00  0.00     0.549 C  
HETATM    9  N   UNL     1      -9.461   6.587  72.450  1.00  0.00    -0.146 N  
HETATM   10  C   UNL     1      -7.391  12.734  69.886  1.00  0.00     1.084 C  
HETATM   11  C   UNL     1      -8.805  10.485  70.567  1.00  0.00     1.530 C  
HETATM   12  C   UNL     1      -9.664   9.396  69.891  1.00  0.00    -0.236 C  
HETATM   13  C   UNL     1      -6.098  11.918  70.406  1.00  0.00    -0.041 C  
HETATM   14  C   UNL     1      -6.514  10.888  71.656  1.00  0.00     1.893 C  
HETATM   15  C   UNL     1     -10.130   8.296  70.824  1.00  0.00    -0.218 C  
HETATM   16  C   UNL     1      -7.634   9.814  71.340  1.00  0.00     0.866 C  
HETATM   17  C   UNL     1      -8.954   7.647  71.588  1.00  0.00    -0.127 C  
HETATM   18  C   UNL     1      -6.951   8.029  73.102  1.00  0.00    -0.117 C  
HETATM   19  C   UNL     1      -8.147   8.728  72.415  1.00  0.00     0.055 C  
HETATM   20  C   UNL     1      -9.119   9.136  73.549  1.00  0.00     2.250 C  
HETATM   21  C   UNL     1     -10.047   8.290  74.077  1.00  0.00     1.960 C  
ENDROOT
BRANCH   1  22
HETATM   22  C   UNL     1      -8.432  15.008  67.881  1.00  0.00    -0.147 C  
HETATM   23  N   UNL     1      -8.153  15.415  66.586  1.00  0.00    -0.332 N  
HETATM   24  O   UNL     1      -8.979  15.826  68.653  1.00  0.00    -0.184 OA 
HETATM   25  H   UNL     1      -7.825  14.694  65.943  1.00  0.00     0.000 HD 
BRANCH  23  26
HETATM   26  C   UNL     1      -8.282  16.790  66.035  1.00  0.00    -0.135 A  
HETATM   27  C   UNL     1      -9.357  17.146  65.180  1.00  0.00     1.813 A  
HETATM   28  F   UNL     1      -5.379  19.887  66.723  1.00  0.00    -0.163 F  
HETATM   29  F   UNL     1     -10.543  16.105  63.404  1.00  0.00     1.973 F  
HETATM   30  F   UNL     1     -11.690  16.650  65.167  1.00  0.00     0.159 F  
HETATM   31  F   UNL     1     -10.338  14.939  65.225  1.00  0.00    -0.315 F  
HETATM   32  F   UNL     1      -6.977  21.351  66.508  1.00  0.00    -0.272 F  
HETATM   33  F   UNL     1      -5.875  20.671  64.757  1.00  0.00    -0.223 F  
HETATM   34  C   UNL     1      -9.473  18.459  64.643  1.00  0.00     5.249 A  
HETATM   35  C   UNL     1      -8.533  19.452  64.901  1.00  0.00     2.538 A  
HETATM   36  C   UNL     1      -6.426  20.243  65.928  1.00  0.00    -0.224 C  
HETATM   37  C   UNL     1      -7.445  19.147  65.711  1.00  0.00    -0.205 A  
HETATM   38  C   UNL     1      -7.334  17.823  66.273  1.00  0.00    -0.334 A  
HETATM   39  C   UNL     1     -10.465  16.213  64.754  1.00  0.00     0.146 C  
ENDBRANCH  23  26
ENDBRANCH   1  22
TORSDOF 2
ENDMDL
MODEL      108
REMARK 921   NORMALIZED FREE ENERGY PREDICTED BY IDOCK:   20.08 KCAL/MOL
REMARK 922        TOTAL FREE ENERGY PREDICTED BY IDOCK:   21.79 KCAL/MOL
REMARK 923 INTER-LIGAND FREE ENERGY PREDICTED BY IDOCK:   22.36 KCAL/MOL
REMARK 924 INTRA-LIGAND FREE ENERGY PREDICTED BY IDOCK:   -0.56 KCAL/MOL
REMARK 927      BINDING AFFINITY PREDICTED BY RF-SCORE:    0.00 PKD
ROOT
HETATM    1  C   UNL     1      -7.892  10.290  69.498  1.00  0.00    -0.172 C  
HETATM    2  H   UNL     1      -4.586   2.708  66.268  1.00  0.00     0.000 HD 
HETATM    3  C   UNL     1      -6.373  10.435  69.335  1.00  0.00    -0.053 C  
HETATM    4  C   UNL     1      -6.134   9.450  68.211  1.00  0.00    -0.048 C  
HETATM    5  C   UNL     1      -6.591   2.573  65.708  1.00  0.00    -0.031 C  
HETATM    6  O   UNL     1      -6.453   1.716  64.847  1.00  0.00    -0.021 OA 
HETATM    7  C   UNL     1      -9.551   8.519  69.958  1.00  0.00    -0.170 C  
HETATM    8  C   UNL     1      -6.900   8.223  68.708  1.00  0.00    -0.062 C  
HETATM    9  N   UNL     1      -5.500   3.156  66.331  1.00  0.00    -0.016 N  
HETATM   10  C   UNL     1      -8.035   8.668  69.772  1.00  0.00    -0.095 C  
HETATM   11  C   UNL     1      -7.047   6.949  67.877  1.00  0.00    -0.086 C  
HETATM   12  C   UNL     1      -5.941   6.906  66.802  1.00  0.00    -0.029 C  
HETATM   13  C   UNL     1      -7.559   7.553  70.839  1.00  0.00    -0.081 C  
HETATM   14  C   UNL     1      -7.682   6.020  70.185  1.00  0.00    -0.096 C  
HETATM   15  C   UNL     1      -5.813   5.576  66.087  1.00  0.00    -0.018 C  
HETATM   16  C   UNL     1      -6.863   5.754  68.855  1.00  0.00    -0.066 C  
HETATM   17  C   UNL     1      -5.639   4.401  67.076  1.00  0.00    -0.017 C  
HETATM   18  C   UNL     1      -6.582   3.181  69.094  1.00  0.00    -0.033 C  
HETATM   19  C   UNL     1      -6.846   4.333  68.096  1.00  0.00    -0.048 C  
HETATM   20  C   UNL     1      -8.046   3.885  67.228  1.00  0.00    -0.091 C  
HETATM   21  C   UNL     1      -7.917   3.095  66.126  1.00  0.00    -0.085 C  
ENDROOT
BRANCH   1  22
HETATM   22  C   UNL     1      -8.580  11.791  69.298  1.00  0.00     0.579 C  
HETATM   23  N   UNL     1      -7.911  12.993  69.464  1.00  0.00     0.257 N  
HETATM   24  O   UNL     1      -9.823  11.819  69.160  1.00  0.00     0.020 OA 
HETATM   25  H   UNL     1      -6.892  12.954  69.448  1.00  0.00     0.000 HD 
BRANCH  23  26
HETATM   26  C   UNL     1      -8.522  14.334  69.664  1.00  0.00     0.661 A  
HETATM   27  C   UNL     1      -8.432  15.009  70.910  1.00  0.00     2.422 A  
HETATM   28  F   UNL     1     -10.831  16.347  66.646  1.00  0.00    -0.307 F  
HETATM   29  F   UNL     1      -8.550  14.390  73.200  1.00  0.00     4.453 F  
HETATM   30  F   UNL     1      -6.692  15.284  72.516  1.00  0.00     1.562 F  
HETATM   31  F   UNL     1      -7.186  13.232  71.968  1.00  0.00     3.602 F  
HETATM   32  F   UNL     1     -10.210  18.243  67.520  1.00  0.00    -0.305 F  
HETATM   33  F   UNL     1     -11.997  17.236  68.251  1.00  0.00     0.391 F  
HETATM   34  C   UNL     1      -9.028  16.287  71.104  1.00  0.00     4.808 A  
HETATM   35  C   UNL     1      -9.750  16.929  70.102  1.00  0.00     1.223 A  
HETATM   36  C   UNL     1     -10.721  17.013  67.829  1.00  0.00    -0.318 C  
HETATM   37  C   UNL     1      -9.891  16.299  68.872  1.00  0.00    -0.246 A  
HETATM   38  C   UNL     1      -9.272  15.012  68.664  1.00  0.00    -0.198 A  
HETATM   39  C   UNL     1      -7.721  14.476  72.129  1.00  0.00     5.076 C  
ENDBRANCH  23  26
ENDBRANCH   1  22
TORSDOF 2
ENDMDL
MODEL      109
REMARK 921   NORMALIZED FREE ENERGY PREDICTED BY IDOCK:   32.54 KCAL/MOL
REMARK 922        TOTAL FREE ENERGY PREDICTED BY IDOCK:   35.71 KCAL/MOL
REMARK 923 INTER-LIGAND FREE ENERGY PREDICTED BY IDOCK:   35.90 KCAL/MOL
REMARK 924 INTRA-LIGAND FREE ENERGY PREDICTED BY IDOCK:   -0.19 KCAL/MOL
REMARK 927      BINDING AFFINITY PREDICTED BY RF-SCORE:    0.00 PKD
ROOT
HETATM    1  C   UNL     1      -8.552  11.182  67.598  1.00  0.00    -0.126 C  
HETATM    2  H   UNL     1     -11.273  17.398  73.326  1.00  0.00     0.000 HD 
HETATM    3  C   UNL     1      -7.964  10.879  68.983  1.00  0.00    -0.131 C  
HETATM    4  C   UNL     1      -9.015  11.522  69.861  1.00  0.00     1.876 C  
HETATM    5  C   UNL     1     -12.709  17.546  71.820  1.00  0.00     7.445 C  
HETATM    6  O   UNL     1     -13.555  18.141  72.471  1.00  0.00    10.376 OA 
HETATM    7  C   UNL     1      -9.257  13.139  66.266  1.00  0.00    -0.074 C  
HETATM    8  C   UNL     1      -9.173  12.892  69.200  1.00  0.00     0.684 C  
HETATM    9  N   UNL     1     -11.554  17.056  72.407  1.00  0.00     0.210 N  
HETATM   10  C   UNL     1      -8.691  12.826  67.657  1.00  0.00    -0.180 C  
HETATM   11  C   UNL     1     -10.204  13.920  69.666  1.00  0.00     0.505 C  
HETATM   12  C   UNL     1     -10.633  13.598  71.112  1.00  0.00     3.798 C  
HETATM   13  C   UNL     1      -7.759  14.135  67.828  1.00  0.00    -0.175 C  
HETATM   14  C   UNL     1      -8.675  15.455  68.288  1.00  0.00    -0.164 C  
HETATM   15  C   UNL     1     -11.448  14.687  71.782  1.00  0.00     0.041 C  
HETATM   16  C   UNL     1      -9.500  15.306  69.632  1.00  0.00    -0.171 C  
HETATM   17  C   UNL     1     -10.735  16.057  71.731  1.00  0.00     1.073 C  
HETATM   18  C   UNL     1      -9.655  17.824  70.260  1.00  0.00     2.186 C  
HETATM   19  C   UNL     1     -10.421  16.480  70.239  1.00  0.00     0.169 C  
HETATM   20  C   UNL     1     -11.813  16.787  69.636  1.00  0.00     0.967 C  
HETATM   21  C   UNL     1     -12.859  17.256  70.371  1.00  0.00     8.052 C  
ENDROOT
BRANCH   1  22
HETATM   22  C   UNL     1      -8.756   9.740  66.795  1.00  0.00    -0.131 C  
HETATM   23  N   UNL     1      -8.848   8.501  67.410  1.00  0.00    -0.133 N  
HETATM   24  O   UNL     1      -8.642   9.776  65.550  1.00  0.00    -0.134 OA 
HETATM   25  H   UNL     1      -9.066   8.502  68.406  1.00  0.00     0.000 HD 
BRANCH  23  26
HETATM   26  C   UNL     1      -8.663   7.172  66.770  1.00  0.00    -0.127 A  
HETATM   27  C   UNL     1      -8.166   6.061  67.503  1.00  0.00    -0.106 A  
HETATM   28  F   UNL     1      -9.377   6.444  62.592  1.00  0.00     0.511 F  
HETATM   29  F   UNL     1      -6.506   5.719  69.167  1.00  0.00    -0.037 F  
HETATM   30  F   UNL     1      -8.553   5.230  69.704  1.00  0.00    -0.093 F  
HETATM   31  F   UNL     1      -7.928   7.314  69.554  1.00  0.00    -0.114 F  
HETATM   32  F   UNL     1      -9.852   4.378  63.094  1.00  0.00    -0.152 F  
HETATM   33  F   UNL     1      -7.795   4.955  62.669  1.00  0.00    -0.056 F  
HETATM   34  C   UNL     1      -7.977   4.792  66.887  1.00  0.00    -0.103 A  
HETATM   35  C   UNL     1      -8.240   4.576  65.538  1.00  0.00    -0.110 A  
HETATM   36  C   UNL     1      -8.931   5.368  63.298  1.00  0.00     0.251 C  
HETATM   37  C   UNL     1      -8.702   5.637  64.768  1.00  0.00    -0.005 A  
HETATM   38  C   UNL     1      -8.913   6.921  65.393  1.00  0.00     0.173 A  
HETATM   39  C   UNL     1      -7.795   6.091  68.965  1.00  0.00    -0.096 C  
ENDBRANCH  23  26
ENDBRANCH   1  22
TORSDOF 2
ENDMDL
MODEL      110
REMARK 921   NORMALIZED FREE ENERGY PREDICTED BY IDOCK:   40.38 KCAL/MOL
REMARK 922        TOTAL FREE ENERGY PREDICTED BY IDOCK:   44.47 KCAL/MOL
REMARK 923 INTER-LIGAND FREE ENERGY PREDICTED BY IDOCK:   44.52 KCAL/MOL
REMARK 924 INTRA-LIGAND FREE ENERGY PREDICTED BY IDOCK:   -0.05 KCAL/MOL
REMARK 927      BINDING AFFINITY PREDICTED BY RF-SCORE:    0.00 PKD
ROOT
HETATM    1  C   UNL     1      -6.979   8.743  70.640  1.00  0.00    -0.053 C  
HETATM    2  H   UNL     1      -8.132  17.541  70.960  1.00  0.00     0.000 HD 
HETATM    3  C   UNL     1      -6.856   9.211  72.096  1.00  0.00     0.224 C  
HETATM    4  C   UNL     1      -7.723  10.451  72.047  1.00  0.00     4.835 C  
HETATM    5  C   UNL     1      -9.051  17.055  69.151  1.00  0.00    -0.058 C  
HETATM    6  O   UNL     1      -9.706  18.080  69.031  1.00  0.00    -0.289 OA 
HETATM    7  C   UNL     1      -6.564   9.613  68.366  1.00  0.00    -0.053 C  
HETATM    8  C   UNL     1      -7.187  11.153  70.799  1.00  0.00     2.112 C  
HETATM    9  N   UNL     1      -8.331  16.786  70.304  1.00  0.00     2.135 N  
HETATM   10  C   UNL     1      -6.466  10.083  69.823  1.00  0.00    -0.064 C  
HETATM   11  C   UNL     1      -7.800  12.440  70.248  1.00  0.00     3.383 C  
HETATM   12  C   UNL     1      -8.608  13.141  71.360  1.00  0.00    12.590 C  
HETATM   13  C   UNL     1      -5.149  11.008  69.681  1.00  0.00    -0.041 C  
HETATM   14  C   UNL     1      -5.542  12.496  69.028  1.00  0.00    -0.065 C  
HETATM   15  C   UNL     1      -9.044  14.554  71.024  1.00  0.00     3.517 C  
HETATM   16  C   UNL     1      -6.615  13.351  69.819  1.00  0.00     0.028 C  
HETATM   17  C   UNL     1      -7.854  15.440  70.593  1.00  0.00     1.559 C  
HETATM   18  C   UNL     1      -5.887  15.711  69.009  1.00  0.00    -0.105 C  
HETATM   19  C   UNL     1      -7.100  14.815  69.350  1.00  0.00    -0.170 C  
HETATM   20  C   UNL     1      -8.101  14.980  68.182  1.00  0.00    -0.131 C  
HETATM   21  C   UNL     1      -9.003  15.998  68.109  1.00  0.00    -0.183 C  
ENDROOT
BRANCH   1  22
HETATM   22  C   UNL     1      -7.567   7.187  70.644  1.00  0.00    -0.092 C  
HETATM   23  N   UNL     1      -7.467   6.304  69.580  1.00  0.00    -0.090 N  
HETATM   24  O   UNL     1      -8.295   6.869  71.610  1.00  0.00    -0.109 OA 
HETATM   25  H   UNL     1      -6.773   6.527  68.866  1.00  0.00     0.000 HD 
BRANCH  23  26
HETATM   26  C   UNL     1      -8.265   5.067  69.369  1.00  0.00    -0.082 A  
HETATM   27  C   UNL     1      -8.093   4.264  68.211  1.00  0.00    -0.081 A  
HETATM   28  F   UNL     1     -11.358   3.769  72.060  1.00  0.00     0.419 F  
HETATM   29  F   UNL     1      -7.720   4.661  65.899  1.00  0.00    -0.088 F  
HETATM   30  F   UNL     1      -6.189   3.551  66.966  1.00  0.00    -0.031 F  
HETATM   31  F   UNL     1      -6.395   5.701  67.269  1.00  0.00    -0.035 F  
HETATM   32  F   UNL     1     -10.948   1.719  71.448  1.00  0.00     0.392 F  
HETATM   33  F   UNL     1     -12.383   2.924  70.339  1.00  0.00    10.606 F  
HETATM   34  C   UNL     1      -8.866   3.087  68.004  1.00  0.00    -0.162 A  
HETATM   35  C   UNL     1      -9.844   2.674  68.903  1.00  0.00     0.314 A  
HETATM   36  C   UNL     1     -11.174   2.978  70.967  1.00  0.00     4.087 C  
HETATM   37  C   UNL     1     -10.072   3.440  70.041  1.00  0.00     0.565 A  
HETATM   38  C   UNL     1      -9.277   4.624  70.264  1.00  0.00    -0.195 A  
HETATM   39  C   UNL     1      -7.108   4.549  67.104  1.00  0.00    -0.068 C  
ENDBRANCH  23  26
ENDBRANCH   1  22
TORSDOF 2
ENDMDL
MODEL      111
REMARK 921   NORMALIZED FREE ENERGY PREDICTED BY IDOCK:   44.60 KCAL/MOL
REMARK 922        TOTAL FREE ENERGY PREDICTED BY IDOCK:   49.18 KCAL/MOL
REMARK 923 INTER-LIGAND FREE ENERGY PREDICTED BY IDOCK:   39.51 KCAL/MOL
REMARK 924 INTRA-LIGAND FREE ENERGY PREDICTED BY IDOCK:    9.68 KCAL/MOL
REMARK 927      BINDING AFFINITY PREDICTED BY RF-SCORE:    0.00 PKD
ROOT
HETATM    1  C   UNL     1     -10.876  11.685  66.426  1.00  0.00    -0.333 C  
HETATM    2  H   UNL     1     -11.000  19.891  63.033  1.00  0.00     0.000 HD 
HETATM    3  C   UNL     1     -11.678  11.674  65.118  1.00  0.00    -0.046 C  
HETATM    4  C   UNL     1     -11.026  12.837  64.400  1.00  0.00    -0.393 C  
HETATM    5  C   UNL     1      -9.331  19.970  64.284  1.00  0.00     5.176 C  
HETATM    6  O   UNL     1      -8.812  20.958  63.785  1.00  0.00     2.478 OA 
HETATM    7  C   UNL     1     -10.348  13.242  68.270  1.00  0.00    -0.252 C  
HETATM    8  C   UNL     1     -11.037  13.914  65.485  1.00  0.00    -0.304 C  
HETATM    9  N   UNL     1     -10.448  19.375  63.719  1.00  0.00     8.836 N  
HETATM   10  C   UNL     1     -11.129  13.231  66.949  1.00  0.00    -0.310 C  
HETATM   11  C   UNL     1     -10.397  15.289  65.291  1.00  0.00    -0.430 C  
HETATM   12  C   UNL     1     -10.245  15.576  63.782  1.00  0.00     4.443 C  
HETATM   13  C   UNL     1     -12.346  14.197  67.391  1.00  0.00    -0.136 C  
HETATM   14  C   UNL     1     -11.881  15.801  67.322  1.00  0.00     0.440 C  
HETATM   15  C   UNL     1      -9.871  17.007  63.450  1.00  0.00    12.416 C  
HETATM   16  C   UNL     1     -11.370  16.327  65.919  1.00  0.00     0.400 C  
HETATM   17  C   UNL     1     -10.845  18.023  64.090  1.00  0.00     5.025 C  
HETATM   18  C   UNL     1     -11.935  18.845  66.232  1.00  0.00     3.357 C  
HETATM   19  C   UNL     1     -10.900  17.847  65.661  1.00  0.00     0.058 C  
HETATM   20  C   UNL     1      -9.514  18.339  66.143  1.00  0.00    -0.165 C  
HETATM   21  C   UNL     1      -8.795  19.298  65.495  1.00  0.00     0.785 C  
ENDROOT
BRANCH   1  22
HETATM   22  C   UNL     1     -10.174  10.189  66.617  1.00  0.00    -0.224 C  
HETATM   23  N   UNL     1      -9.683   9.411  65.580  1.00  0.00    -0.356 N  
HETATM   24  O   UNL     1     -10.262   9.674  67.753  1.00  0.00    -0.179 OA 
HETATM   25  H   UNL     1      -9.503   9.889  64.697  1.00  0.00     0.000 HD 
BRANCH  23  26
HETATM   26  C   UNL     1      -9.390   7.954  65.620  1.00  0.00     0.202 A  
HETATM   27  C   UNL     1      -9.761   7.156  66.734  1.00  0.00    -0.252 A  
HETATM   28  F   UNL     1      -7.219   5.899  62.529  1.00  0.00    -0.043 F  
HETATM   29  F   UNL     1      -9.782   7.423  69.094  1.00  0.00    -0.160 F  
HETATM   30  F   UNL     1     -11.693   7.063  68.128  1.00  0.00     0.109 F  
HETATM   31  F   UNL     1     -10.724   9.008  67.948  1.00  0.00    -0.276 F  
HETATM   32  F   UNL     1      -8.316   4.089  63.044  1.00  0.00    -0.080 F  
HETATM   33  F   UNL     1      -6.455   4.568  64.068  1.00  0.00    -0.033 F  
HETATM   34  C   UNL     1      -9.470   5.763  66.777  1.00  0.00    -0.154 A  
HETATM   35  C   UNL     1      -8.787   5.116  65.751  1.00  0.00    -0.143 A  
HETATM   36  C   UNL     1      -7.600   5.123  63.581  1.00  0.00    -0.069 C  
HETATM   37  C   UNL     1      -8.378   5.858  64.649  1.00  0.00    -0.086 A  
HETATM   38  C   UNL     1      -8.688   7.266  64.593  1.00  0.00     0.393 A  
HETATM   39  C   UNL     1     -10.482   7.666  67.958  1.00  0.00    -0.189 C  
ENDBRANCH  23  26
ENDBRANCH   1  22
TORSDOF 2
ENDMDL
MODEL      112
REMARK 921   NORMALIZED FREE ENERGY PREDICTED BY IDOCK:   70.20 KCAL/MOL
REMARK 922        TOTAL FREE ENERGY PREDICTED BY IDOCK:   77.77 KCAL/MOL
REMARK 923 INTER-LIGAND FREE ENERGY PREDICTED BY IDOCK:   78.27 KCAL/MOL
REMARK 924 INTRA-LIGAND FREE ENERGY PREDICTED BY IDOCK:   -0.50 KCAL/MOL
REMARK 927      BINDING AFFINITY PREDICTED BY RF-SCORE:    0.00 PKD
ROOT
HETATM    1  C   UNL     1     -10.334  11.174  71.218  1.00  0.00     4.557 C  
HETATM    2  H   UNL     1      -8.910  18.469  66.359  1.00  0.00     0.000 HD 
HETATM    3  C   UNL     1     -11.179  12.324  71.782  1.00  0.00     5.049 C  
HETATM    4  C   UNL     1     -11.360  13.156  70.529  1.00  0.00     0.636 C  
HETATM    5  C   UNL     1      -8.322  16.959  65.045  1.00  0.00     3.639 C  
HETATM    6  O   UNL     1      -8.375  17.620  64.018  1.00  0.00     8.659 OA 
HETATM    7  C   UNL     1      -8.192  10.850  70.030  1.00  0.00     0.894 C  
HETATM    8  C   UNL     1      -9.927  13.231  70.000  1.00  0.00     2.248 C  
HETATM    9  N   UNL     1      -8.768  17.465  66.255  1.00  0.00    -0.236 N  
HETATM   10  C   UNL     1      -9.054  11.997  70.576  1.00  0.00     6.073 C  
HETATM   11  C   UNL     1      -9.570  13.905  68.676  1.00  0.00    -0.142 C  
HETATM   12  C   UNL     1     -10.697  14.880  68.276  1.00  0.00    -0.249 C  
HETATM   13  C   UNL     1      -7.861  12.979  71.047  1.00  0.00     6.863 C  
HETATM   14  C   UNL     1      -7.236  13.816  69.742  1.00  0.00     0.376 C  
HETATM   15  C   UNL     1     -10.349  15.803  67.125  1.00  0.00    -0.291 C  
HETATM   16  C   UNL     1      -8.258  14.703  68.920  1.00  0.00    -0.145 C  
HETATM   17  C   UNL     1      -9.039  16.582  67.383  1.00  0.00    -0.204 C  
HETATM   18  C   UNL     1      -6.569  16.430  67.958  1.00  0.00    -0.146 C  
HETATM   19  C   UNL     1      -7.832  15.593  67.645  1.00  0.00    -0.173 C  
HETATM   20  C   UNL     1      -7.581  14.933  66.268  1.00  0.00     1.809 C  
HETATM   21  C   UNL     1      -7.827  15.559  65.084  1.00  0.00     6.146 C  
ENDROOT
BRANCH   1  22
HETATM   22  C   UNL     1     -11.134   9.747  71.518  1.00  0.00    -0.152 C  
HETATM   23  N   UNL     1     -10.649   8.489  71.197  1.00  0.00    -0.210 N  
HETATM   24  O   UNL     1     -12.321   9.844  71.900  1.00  0.00    -0.380 OA 
HETATM   25  H   UNL     1      -9.648   8.421  71.011  1.00  0.00     0.000 HD 
BRANCH  23  26
HETATM   26  C   UNL     1     -11.433   7.230  71.093  1.00  0.00    -0.283 A  
HETATM   27  C   UNL     1     -12.262   6.965  69.972  1.00  0.00     0.106 A  
HETATM   28  F   UNL     1     -11.533   4.253  74.194  1.00  0.00    -0.178 F  
HETATM   29  F   UNL     1     -13.727   8.231  68.595  1.00  0.00     9.493 F  
HETATM   30  F   UNL     1     -12.020   7.305  67.624  1.00  0.00     0.676 F  
HETATM   31  F   UNL     1     -11.742   9.060  68.888  1.00  0.00     0.351 F  
HETATM   32  F   UNL     1     -11.902   2.752  72.659  1.00  0.00     0.333 F  
HETATM   33  F   UNL     1     -13.570   3.805  73.581  1.00  0.00     1.308 F  
HETATM   34  C   UNL     1     -13.022   5.766  69.879  1.00  0.00     6.265 A  
HETATM   35  C   UNL     1     -13.018   4.805  70.886  1.00  0.00     9.346 A  
HETATM   36  C   UNL     1     -12.304   3.979  73.106  1.00  0.00     0.709 C  
HETATM   37  C   UNL     1     -12.243   5.028  72.019  1.00  0.00     1.394 A  
HETATM   38  C   UNL     1     -11.456   6.235  72.108  1.00  0.00    -0.354 A  
HETATM   39  C   UNL     1     -12.429   7.886  68.787  1.00  0.00     4.485 C  
ENDBRANCH  23  26
ENDBRANCH   1  22
TORSDOF 2
ENDMDL
