MODEL        1
REMARK 921   NORMALIZED FREE ENERGY PREDICTED BY IDOCK:   -8.68 KCAL/MOL
REMARK 922        TOTAL FREE ENERGY PREDICTED BY IDOCK:  -11.59 KCAL/MOL
REMARK 923 INTER-LIGAND FREE ENERGY PREDICTED BY IDOCK:  -10.72 KCAL/MOL
REMARK 924 INTRA-LIGAND FREE ENERGY PREDICTED BY IDOCK:   -0.87 KCAL/MOL
REMARK 927      BINDING AFFINITY PREDICTED BY RF-SCORE:    0.00 PKD
ROOT
HETATM    1  C   UNL     1      -9.355  15.538  66.384  1.00  0.00    -0.330 C  
HETATM    2  C   UNL     1     -10.670  15.731  67.138  1.00  0.00    -0.312 C  
ENDROOT
BRANCH   2   3
HETATM    3  N   UNL     1     -10.749  16.993  67.862  1.00  0.00    -0.362 NA 
HETATM    4  H   UNL     1     -11.217  17.043  68.766  1.00  0.00     0.000 HD 
BRANCH   3   5
HETATM    5  C   UNL     1     -10.176  18.130  67.298  1.00  0.00    -0.367 A  
HETATM    6  C   UNL     1      -8.462  19.776  67.139  1.00  0.00    -0.317 A  
HETATM    7  N   UNL     1      -9.004  20.450  66.116  1.00  0.00    -0.094 NA 
HETATM    8  C   UNL     1      -7.110  19.115  68.750  1.00  0.00    -0.331 A  
HETATM    9  H   UNL     1      -8.216  17.459  69.421  1.00  0.00     0.000 HD 
HETATM   10  N   UNL     1      -8.103  18.251  68.787  1.00  0.00    -0.281 NA 
HETATM   11  C   UNL     1     -10.168  19.881  65.746  1.00  0.00    -0.386 A  
HETATM   12  C   UNL     1      -8.959  18.654  67.779  1.00  0.00    -0.282 A  
HETATM   13  N   UNL     1      -7.282  20.050  67.764  1.00  0.00    -0.282 NA 
HETATM   14  N   UNL     1     -10.770  18.786  66.263  1.00  0.00    -0.334 NA 
ENDBRANCH   3   5
ENDBRANCH   2   3
BRANCH   2  15
HETATM   15  C   UNL     1     -11.181  14.603  68.051  1.00  0.00    -0.293 C  
HETATM   16  O   UNL     1     -12.043  11.111  68.344  1.00  0.00    -0.605 OA 
HETATM   17  C   UNL     1     -11.460  14.996  69.310  1.00  0.00    -0.326 C  
HETATM   18  C   UNL     1     -12.073  14.119  70.287  1.00  0.00    -0.412 A  
HETATM   19  N   UNL     1     -11.437  13.267  67.668  1.00  0.00    -0.302 N  
HETATM   20  C   UNL     1     -12.475  14.661  71.517  1.00  0.00    -0.411 A  
HETATM   21  C   UNL     1     -11.914  12.303  68.617  1.00  0.00    -0.227 C  
HETATM   22  C   UNL     1     -12.279  12.770  69.991  1.00  0.00    -0.279 A  
HETATM   23 CL   UNL     1     -13.129  10.250  70.819  1.00  0.00    -0.424 Cl 
HETATM   24  C   UNL     1     -13.083  13.857  72.471  1.00  0.00    -0.533 A  
HETATM   25  C   UNL     1     -13.262  12.504  72.205  1.00  0.00    -0.508 A  
HETATM   26  C   UNL     1     -12.856  11.952  70.979  1.00  0.00    -0.198 A  
BRANCH  19  27
HETATM   27  C   UNL     1     -11.298  12.761  66.328  1.00  0.00    -0.320 A  
HETATM   28  C   UNL     1     -12.368  12.910  65.426  1.00  0.00    -0.538 A  
HETATM   29  C   UNL     1     -12.276  12.443  64.110  1.00  0.00    -0.558 A  
HETATM   30  C   UNL     1     -11.113  11.812  63.677  1.00  0.00    -0.518 A  
HETATM   31  C   UNL     1     -10.056  11.627  64.571  1.00  0.00    -0.321 A  
HETATM   32  C   UNL     1     -10.156  12.081  65.895  1.00  0.00    -0.264 A  
ENDBRANCH  19  27
ENDBRANCH   2  15
TORSDOF 4
ENDMDL
MODEL        2
REMARK 921   NORMALIZED FREE ENERGY PREDICTED BY IDOCK:   -8.50 KCAL/MOL
REMARK 922        TOTAL FREE ENERGY PREDICTED BY IDOCK:  -11.36 KCAL/MOL
REMARK 923 INTER-LIGAND FREE ENERGY PREDICTED BY IDOCK:  -10.57 KCAL/MOL
REMARK 924 INTRA-LIGAND FREE ENERGY PREDICTED BY IDOCK:   -0.79 KCAL/MOL
REMARK 927      BINDING AFFINITY PREDICTED BY RF-SCORE:    0.00 PKD
ROOT
HETATM    1  C   UNL     1      -7.536  13.625  67.513  1.00  0.00    -0.180 C  
HETATM    2  C   UNL     1      -9.009  13.679  67.112  1.00  0.00    -0.231 C  
ENDROOT
BRANCH   2   3
HETATM    3  N   UNL     1      -9.278  14.572  65.992  1.00  0.00    -0.514 NA 
HETATM    4  H   UNL     1      -8.675  15.374  65.812  1.00  0.00     0.000 HD 
BRANCH   3   5
HETATM    5  C   UNL     1     -10.373  14.312  65.171  1.00  0.00    -0.415 A  
HETATM    6  C   UNL     1     -11.684  12.889  63.783  1.00  0.00    -0.492 A  
HETATM    7  N   UNL     1     -12.635  13.792  63.510  1.00  0.00    -0.808 NA 
HETATM    8  C   UNL     1     -10.499  11.033  63.866  1.00  0.00    -0.354 A  
HETATM    9  H   UNL     1      -8.943  11.715  65.103  1.00  0.00     0.000 HD 
HETATM   10  N   UNL     1      -9.819  11.883  64.607  1.00  0.00    -0.221 NA 
HETATM   11  C   UNL     1     -12.359  14.961  64.119  1.00  0.00    -0.185 A  
HETATM   12  C   UNL     1     -10.554  13.053  64.565  1.00  0.00    -0.393 A  
HETATM   13  N   UNL     1     -11.637  11.596  63.354  1.00  0.00    -0.339 NA 
HETATM   14  N   UNL     1     -11.310  15.266  64.917  1.00  0.00    -0.399 NA 
ENDBRANCH   3   5
ENDBRANCH   2   3
BRANCH   2  15
HETATM   15  C   UNL     1     -10.073  13.912  68.198  1.00  0.00    -0.250 C  
HETATM   16  O   UNL     1     -11.832  16.317  70.236  1.00  0.00    -0.214 OA 
HETATM   17  C   UNL     1     -10.656  12.785  68.651  1.00  0.00    -0.256 C  
HETATM   18  C   UNL     1     -11.587  12.775  69.761  1.00  0.00    -0.288 A  
HETATM   19  N   UNL     1     -10.417  15.154  68.780  1.00  0.00    -0.227 N  
HETATM   20  C   UNL     1     -12.016  11.539  70.267  1.00  0.00    -0.455 A  
HETATM   21  C   UNL     1     -11.433  15.242  69.789  1.00  0.00    -0.313 C  
HETATM   22  C   UNL     1     -12.022  13.977  70.325  1.00  0.00    -0.409 A  
HETATM   23 CL   UNL     1     -13.643  15.297  72.166  1.00  0.00    -0.516 Cl 
HETATM   24  C   UNL     1     -12.893  11.488  71.342  1.00  0.00    -0.489 A  
HETATM   25  C   UNL     1     -13.364  12.677  71.891  1.00  0.00    -0.485 A  
HETATM   26  C   UNL     1     -12.945  13.918  71.386  1.00  0.00    -0.355 A  
BRANCH  19  27
HETATM   27  C   UNL     1      -9.779  16.406  68.469  1.00  0.00    -0.228 A  
HETATM   28  C   UNL     1     -10.465  17.344  67.677  1.00  0.00    -0.368 A  
HETATM   29  C   UNL     1      -9.890  18.579  67.356  1.00  0.00    -0.330 A  
HETATM   30  C   UNL     1      -8.614  18.892  67.820  1.00  0.00    -0.318 A  
HETATM   31  C   UNL     1      -7.909  17.956  68.580  1.00  0.00    -0.301 A  
HETATM   32  C   UNL     1      -8.480  16.712  68.885  1.00  0.00    -0.233 A  
ENDBRANCH  19  27
ENDBRANCH   2  15
TORSDOF 4
ENDMDL
MODEL        3
REMARK 921   NORMALIZED FREE ENERGY PREDICTED BY IDOCK:   -8.40 KCAL/MOL
REMARK 922        TOTAL FREE ENERGY PREDICTED BY IDOCK:  -11.24 KCAL/MOL
REMARK 923 INTER-LIGAND FREE ENERGY PREDICTED BY IDOCK:  -10.37 KCAL/MOL
REMARK 924 INTRA-LIGAND FREE ENERGY PREDICTED BY IDOCK:   -0.87 KCAL/MOL
REMARK 927      BINDING AFFINITY PREDICTED BY RF-SCORE:    0.00 PKD
ROOT
HETATM    1  C   UNL     1     -11.286  16.081  64.667  1.00  0.00    -0.340 C  
HETATM    2  C   UNL     1     -10.648  16.265  66.043  1.00  0.00    -0.281 C  
ENDROOT
BRANCH   2   3
HETATM    3  N   UNL     1      -9.194  16.353  66.007  1.00  0.00    -0.429 NA 
HETATM    4  H   UNL     1      -8.640  15.603  65.594  1.00  0.00     0.000 HD 
BRANCH   3   5
HETATM    5  C   UNL     1      -8.573  17.477  66.545  1.00  0.00    -0.263 A  
HETATM    6  C   UNL     1      -7.175  18.559  68.141  1.00  0.00    -0.255 A  
HETATM    7  N   UNL     1      -7.289  19.789  67.622  1.00  0.00    -0.263 NA 
HETATM    8  C   UNL     1      -6.599  16.849  69.406  1.00  0.00    -0.228 A  
HETATM    9  H   UNL     1      -7.679  15.348  68.407  1.00  0.00     0.000 HD 
HETATM   10  N   UNL     1      -7.395  16.325  68.498  1.00  0.00    -0.160 NA 
HETATM   11  C   UNL     1      -8.095  19.768  66.542  1.00  0.00    -0.327 A  
HETATM   12  C   UNL     1      -7.763  17.389  67.696  1.00  0.00    -0.193 A  
HETATM   13  N   UNL     1      -6.431  18.195  69.224  1.00  0.00    -0.260 NA 
HETATM   14  N   UNL     1      -8.726  18.709  65.986  1.00  0.00    -0.488 NA 
ENDBRANCH   3   5
ENDBRANCH   2   3
BRANCH   2  15
HETATM   15  C   UNL     1     -11.059  15.327  67.191  1.00  0.00    -0.323 C  
HETATM   16  O   UNL     1     -11.860  11.954  68.195  1.00  0.00    -0.424 OA 
HETATM   17  C   UNL     1     -11.217  15.944  68.379  1.00  0.00    -0.368 C  
HETATM   18  C   UNL     1     -11.726  15.266  69.553  1.00  0.00    -0.359 A  
HETATM   19  N   UNL     1     -11.340  13.946  67.084  1.00  0.00    -0.313 N  
HETATM   20  C   UNL     1     -12.010  16.025  70.698  1.00  0.00    -0.300 A  
HETATM   21  C   UNL     1     -11.715  13.175  68.234  1.00  0.00    -0.349 C  
HETATM   22  C   UNL     1     -11.949  13.886  69.528  1.00  0.00    -0.396 A  
HETATM   23 CL   UNL     1     -12.694  11.567  70.879  1.00  0.00    -0.404 Cl 
HETATM   24  C   UNL     1     -12.516  15.414  71.837  1.00  0.00    -0.452 A  
HETATM   25  C   UNL     1     -12.709  14.036  71.839  1.00  0.00    -0.388 A  
HETATM   26  C   UNL     1     -12.420  13.267  70.700  1.00  0.00    -0.298 A  
BRANCH  19  27
HETATM   27  C   UNL     1     -11.328  13.204  65.850  1.00  0.00    -0.311 A  
HETATM   28  C   UNL     1     -12.536  13.016  65.154  1.00  0.00    -0.552 A  
HETATM   29  C   UNL     1     -12.573  12.310  63.946  1.00  0.00    -0.544 A  
HETATM   30  C   UNL     1     -11.400  11.774  63.419  1.00  0.00    -0.437 A  
HETATM   31  C   UNL     1     -10.200  11.925  64.117  1.00  0.00    -0.364 A  
HETATM   32  C   UNL     1     -10.168  12.618  65.336  1.00  0.00    -0.301 A  
ENDBRANCH  19  27
ENDBRANCH   2  15
TORSDOF 4
ENDMDL
MODEL        4
REMARK 921   NORMALIZED FREE ENERGY PREDICTED BY IDOCK:   -8.29 KCAL/MOL
REMARK 922        TOTAL FREE ENERGY PREDICTED BY IDOCK:  -11.10 KCAL/MOL
REMARK 923 INTER-LIGAND FREE ENERGY PREDICTED BY IDOCK:  -10.05 KCAL/MOL
REMARK 924 INTRA-LIGAND FREE ENERGY PREDICTED BY IDOCK:   -1.04 KCAL/MOL
REMARK 927      BINDING AFFINITY PREDICTED BY RF-SCORE:    0.00 PKD
ROOT
HETATM    1  C   UNL     1      -9.150  12.923  68.185  1.00  0.00    -0.207 C  
HETATM    2  C   UNL     1     -10.295  13.848  68.594  1.00  0.00    -0.237 C  
ENDROOT
BRANCH   2   3
HETATM    3  N   UNL     1     -11.600  13.200  68.592  1.00  0.00    -0.298 NA 
HETATM    4  H   UNL     1     -12.096  13.036  67.716  1.00  0.00     0.000 HD 
BRANCH   3   5
HETATM    5  C   UNL     1     -12.160  12.808  69.806  1.00  0.00    -0.237 A  
HETATM    6  C   UNL     1     -13.305  13.250  71.847  1.00  0.00    -0.451 A  
HETATM    7  N   UNL     1     -13.322  11.983  72.279  1.00  0.00    -0.364 NA 
HETATM    8  C   UNL     1     -13.599  15.429  71.686  1.00  0.00    -0.509 A  
HETATM    9  H   UNL     1     -12.652  15.732  69.835  1.00  0.00     0.000 HD 
HETATM   10  N   UNL     1     -12.949  15.109  70.586  1.00  0.00    -0.385 NA 
HETATM   11  C   UNL     1     -12.710  11.176  71.390  1.00  0.00    -0.418 A  
HETATM   12  C   UNL     1     -12.759  13.742  70.674  1.00  0.00    -0.260 A  
HETATM   13  N   UNL     1     -13.841  14.335  72.474  1.00  0.00    -0.570 NA 
HETATM   14  N   UNL     1     -12.146  11.506  70.206  1.00  0.00    -0.352 NA 
ENDBRANCH   3   5
ENDBRANCH   2   3
BRANCH   2  15
HETATM   15  C   UNL     1     -10.425  15.224  67.918  1.00  0.00    -0.253 C  
HETATM   16  O   UNL     1     -11.331  17.054  64.943  1.00  0.00    -0.481 OA 
HETATM   17  C   UNL     1     -10.059  16.259  68.699  1.00  0.00    -0.233 C  
HETATM   18  C   UNL     1      -9.983  17.621  68.212  1.00  0.00    -0.339 A  
HETATM   19  N   UNL     1     -10.811  15.466  66.581  1.00  0.00    -0.311 N  
HETATM   20  C   UNL     1      -9.438  18.606  69.049  1.00  0.00    -0.226 A  
HETATM   21  C   UNL     1     -10.895  16.802  66.065  1.00  0.00    -0.026 C  
HETATM   22  C   UNL     1     -10.425  17.933  66.923  1.00  0.00    -0.334 A  
HETATM   23 CL   UNL     1     -10.909  19.859  64.970  1.00  0.00     0.158 Cl 
HETATM   24  C   UNL     1      -9.332  19.918  68.611  1.00  0.00    -0.259 A  
HETATM   25  C   UNL     1      -9.800  20.251  67.343  1.00  0.00    -0.586 A  
HETATM   26  C   UNL     1     -10.354  19.273  66.502  1.00  0.00    -0.450 A  
BRANCH  19  27
HETATM   27  C   UNL     1     -11.103  14.439  65.616  1.00  0.00    -0.321 A  
HETATM   28  C   UNL     1     -12.437  14.026  65.440  1.00  0.00    -0.520 A  
HETATM   29  C   UNL     1     -12.772  13.038  64.508  1.00  0.00    -0.318 A  
HETATM   30  C   UNL     1     -11.775  12.441  63.740  1.00  0.00    -0.566 A  
HETATM   31  C   UNL     1     -10.443  12.818  63.927  1.00  0.00    -0.402 A  
HETATM   32  C   UNL     1     -10.107  13.796  64.875  1.00  0.00    -0.297 A  
ENDBRANCH  19  27
ENDBRANCH   2  15
TORSDOF 4
ENDMDL
MODEL        5
REMARK 921   NORMALIZED FREE ENERGY PREDICTED BY IDOCK:   -8.28 KCAL/MOL
REMARK 922        TOTAL FREE ENERGY PREDICTED BY IDOCK:  -11.09 KCAL/MOL
REMARK 923 INTER-LIGAND FREE ENERGY PREDICTED BY IDOCK:  -10.78 KCAL/MOL
REMARK 924 INTRA-LIGAND FREE ENERGY PREDICTED BY IDOCK:   -0.31 KCAL/MOL
REMARK 927      BINDING AFFINITY PREDICTED BY RF-SCORE:    0.00 PKD
ROOT
HETATM    1  C   UNL     1     -11.159  15.862  64.954  1.00  0.00    -0.400 C  
HETATM    2  C   UNL     1     -10.644  15.920  66.391  1.00  0.00    -0.297 C  
ENDROOT
BRANCH   2   3
HETATM    3  N   UNL     1      -9.199  16.072  66.489  1.00  0.00    -0.250 NA 
HETATM    4  H   UNL     1      -8.600  15.257  66.616  1.00  0.00     0.000 HD 
BRANCH   3   5
HETATM    5  C   UNL     1      -8.648  17.348  66.406  1.00  0.00    -0.247 A  
HETATM    6  C   UNL     1      -8.648  19.685  66.865  1.00  0.00    -0.315 A  
HETATM    7  N   UNL     1      -7.492  19.954  66.244  1.00  0.00    -0.285 NA 
HETATM    8  C   UNL     1     -10.522  19.875  68.011  1.00  0.00    -0.350 A  
HETATM    9  H   UNL     1     -11.130  17.865  67.944  1.00  0.00     0.000 HD 
HETATM   10  N   UNL     1     -10.459  18.596  67.704  1.00  0.00    -0.410 NA 
HETATM   11  C   UNL     1      -6.975  18.830  65.711  1.00  0.00    -0.256 A  
HETATM   12  C   UNL     1      -9.286  18.463  66.985  1.00  0.00    -0.281 A  
HETATM   13  N   UNL     1      -9.444  20.570  67.530  1.00  0.00    -0.401 NA 
HETATM   14  N   UNL     1      -7.472  17.573  65.756  1.00  0.00    -0.473 NA 
ENDBRANCH   3   5
ENDBRANCH   2   3
BRANCH   2  15
HETATM   15  C   UNL     1     -11.099  14.845  67.393  1.00  0.00    -0.325 C  
HETATM   16  O   UNL     1     -11.923  11.372  67.929  1.00  0.00    -0.626 OA 
HETATM   17  C   UNL     1     -11.310  15.307  68.641  1.00  0.00    -0.327 C  
HETATM   18  C   UNL     1     -11.863  14.486  69.698  1.00  0.00    -0.367 A  
HETATM   19  N   UNL     1     -11.368  13.488  67.100  1.00  0.00    -0.309 N  
HETATM   20  C   UNL     1     -12.199  15.095  70.916  1.00  0.00    -0.398 A  
HETATM   21  C   UNL     1     -11.786  12.579  68.127  1.00  0.00    -0.317 C  
HETATM   22  C   UNL     1     -12.077  13.121  69.490  1.00  0.00    -0.296 A  
HETATM   23 CL   UNL     1     -12.866  10.650  70.505  1.00  0.00    -0.400 Cl 
HETATM   24  C   UNL     1     -12.749  14.345  71.947  1.00  0.00    -0.426 A  
HETATM   25  C   UNL     1     -12.935  12.977  71.767  1.00  0.00    -0.420 A  
HETATM   26  C   UNL     1     -12.595  12.358  70.554  1.00  0.00    -0.089 A  
BRANCH  19  27
HETATM   27  C   UNL     1     -11.300  12.908  65.785  1.00  0.00    -0.315 A  
HETATM   28  C   UNL     1     -10.055  12.474  65.293  1.00  0.00    -0.275 A  
HETATM   29  C   UNL     1      -9.940  11.894  64.024  1.00  0.00    -0.318 A  
HETATM   30  C   UNL     1     -11.071  11.745  63.224  1.00  0.00    -0.370 A  
HETATM   31  C   UNL     1     -12.307  12.202  63.687  1.00  0.00    -0.673 A  
HETATM   32  C   UNL     1     -12.417  12.798  64.952  1.00  0.00    -0.563 A  
ENDBRANCH  19  27
ENDBRANCH   2  15
TORSDOF 4
ENDMDL
MODEL        6
REMARK 921   NORMALIZED FREE ENERGY PREDICTED BY IDOCK:   -8.25 KCAL/MOL
REMARK 922        TOTAL FREE ENERGY PREDICTED BY IDOCK:  -11.05 KCAL/MOL
REMARK 923 INTER-LIGAND FREE ENERGY PREDICTED BY IDOCK:  -10.23 KCAL/MOL
REMARK 924 INTRA-LIGAND FREE ENERGY PREDICTED BY IDOCK:   -0.82 KCAL/MOL
REMARK 927      BINDING AFFINITY PREDICTED BY RF-SCORE:    0.00 PKD
ROOT
HETATM    1  C   UNL     1     -11.389  15.928  64.664  1.00  0.00    -0.328 C  
HETATM    2  C   UNL     1     -10.564  15.905  65.949  1.00  0.00    -0.337 C  
ENDROOT
BRANCH   2   3
HETATM    3  N   UNL     1      -9.138  15.706  65.726  1.00  0.00    -0.345 NA 
HETATM    4  H   UNL     1      -8.811  15.045  65.021  1.00  0.00     0.000 HD 
BRANCH   3   5
HETATM    5  C   UNL     1      -8.228  16.431  66.491  1.00  0.00    -0.306 A  
HETATM    6  C   UNL     1      -7.392  18.456  67.425  1.00  0.00    -0.217 A  
HETATM    7  N   UNL     1      -6.366  17.899  68.081  1.00  0.00    -0.181 NA 
HETATM    8  C   UNL     1      -8.845  19.906  66.622  1.00  0.00    -0.358 A  
HETATM    9  H   UNL     1     -10.033  18.572  65.516  1.00  0.00     0.000 HD 
HETATM   10  N   UNL     1      -9.237  18.750  66.130  1.00  0.00    -0.472 NA 
HETATM   11  C   UNL     1      -6.343  16.568  67.871  1.00  0.00    -0.137 A  
HETATM   12  C   UNL     1      -8.333  17.830  66.627  1.00  0.00    -0.259 A  
HETATM   13  N   UNL     1      -7.737  19.774  67.417  1.00  0.00    -0.263 NA 
HETATM   14  N   UNL     1      -7.195  15.819  67.134  1.00  0.00    -0.213 NA 
ENDBRANCH   3   5
ENDBRANCH   2   3
BRANCH   2  15
HETATM   15  C   UNL     1     -11.014  15.004  67.112  1.00  0.00    -0.329 C  
HETATM   16  O   UNL     1     -11.859  11.666  68.194  1.00  0.00    -0.481 OA 
HETATM   17  C   UNL     1     -11.206  15.658  68.275  1.00  0.00    -0.353 C  
HETATM   18  C   UNL     1     -11.753  15.018  69.453  1.00  0.00    -0.351 A  
HETATM   19  N   UNL     1     -11.297  13.622  67.038  1.00  0.00    -0.312 N  
HETATM   20  C   UNL     1     -12.069  15.813  70.565  1.00  0.00    -0.407 A  
HETATM   21  C   UNL     1     -11.711  12.888  68.199  1.00  0.00    -0.352 C  
HETATM   22  C   UNL     1     -11.981  13.639  69.464  1.00  0.00    -0.397 A  
HETATM   23 CL   UNL     1     -12.777  11.365  70.861  1.00  0.00    -0.422 Cl 
HETATM   24  C   UNL     1     -12.613  15.239  71.706  1.00  0.00    -0.434 A  
HETATM   25  C   UNL     1     -12.811  13.862  71.744  1.00  0.00    -0.421 A  
HETATM   26  C   UNL     1     -12.491  13.058  70.639  1.00  0.00    -0.268 A  
BRANCH  19  27
HETATM   27  C   UNL     1     -11.250  12.842  65.829  1.00  0.00    -0.307 A  
HETATM   28  C   UNL     1     -10.040  12.227  65.459  1.00  0.00    -0.279 A  
HETATM   29  C   UNL     1      -9.947  11.451  64.298  1.00  0.00    -0.329 A  
HETATM   30  C   UNL     1     -11.065  11.283  63.485  1.00  0.00    -0.261 A  
HETATM   31  C   UNL     1     -12.264  11.915  63.823  1.00  0.00    -0.549 A  
HETATM   32  C   UNL     1     -12.350  12.706  64.977  1.00  0.00    -0.561 A  
ENDBRANCH  19  27
ENDBRANCH   2  15
TORSDOF 4
ENDMDL
MODEL        7
REMARK 921   NORMALIZED FREE ENERGY PREDICTED BY IDOCK:   -8.23 KCAL/MOL
REMARK 922        TOTAL FREE ENERGY PREDICTED BY IDOCK:  -11.03 KCAL/MOL
REMARK 923 INTER-LIGAND FREE ENERGY PREDICTED BY IDOCK:   -9.80 KCAL/MOL
REMARK 924 INTRA-LIGAND FREE ENERGY PREDICTED BY IDOCK:   -1.23 KCAL/MOL
REMARK 927      BINDING AFFINITY PREDICTED BY RF-SCORE:    0.00 PKD
ROOT
HETATM    1  C   UNL     1     -13.696   8.609  71.995  1.00  0.00    -0.470 C  
HETATM    2  C   UNL     1     -12.429   9.160  71.342  1.00  0.00    -0.328 C  
ENDROOT
BRANCH   2   3
HETATM    3  N   UNL     1     -11.208   8.838  72.071  1.00  0.00    -0.364 NA 
HETATM    4  H   UNL     1     -10.606   9.580  72.427  1.00  0.00     0.000 HD 
BRANCH   3   5
HETATM    5  C   UNL     1     -10.877   7.500  72.272  1.00  0.00    -0.258 A  
HETATM    6  C   UNL     1     -10.289   5.327  71.495  1.00  0.00    -0.221 A  
HETATM    7  N   UNL     1     -10.178   4.767  72.706  1.00  0.00    -0.175 NA 
HETATM    8  C   UNL     1     -10.295   5.658  69.316  1.00  0.00    -0.270 A  
HETATM    9  H   UNL     1     -10.846   7.686  69.313  1.00  0.00     0.000 HD 
HETATM   10  N   UNL     1     -10.631   6.827  69.820  1.00  0.00    -0.215 NA 
HETATM   11  C   UNL     1     -10.452   5.670  73.667  1.00  0.00    -0.263 A  
HETATM   12  C   UNL     1     -10.630   6.633  71.189  1.00  0.00    -0.228 A  
HETATM   13  N   UNL     1     -10.072   4.724  70.292  1.00  0.00    -0.247 NA 
HETATM   14  N   UNL     1     -10.784   6.974  73.525  1.00  0.00    -0.360 NA 
ENDBRANCH   3   5
ENDBRANCH   2   3
BRANCH   2  15
HETATM   15  C   UNL     1     -12.382  10.641  70.929  1.00  0.00    -0.401 C  
HETATM   16  O   UNL     1     -11.121  13.086  68.593  1.00  0.00    -0.245 OA 
HETATM   17  C   UNL     1     -13.088  11.461  71.732  1.00  0.00    -0.523 C  
HETATM   18  C   UNL     1     -13.069  12.903  71.593  1.00  0.00    -0.430 A  
HETATM   19  N   UNL     1     -11.633  11.190  69.864  1.00  0.00    -0.310 N  
HETATM   20  C   UNL     1     -13.703  13.681  72.573  1.00  0.00    -0.663 A  
HETATM   21  C   UNL     1     -11.673  12.594  69.576  1.00  0.00    -0.308 C  
HETATM   22  C   UNL     1     -12.409  13.497  70.515  1.00  0.00    -0.412 A  
HETATM   23 CL   UNL     1     -11.733  15.807  69.113  1.00  0.00    -0.394 Cl 
HETATM   24  C   UNL     1     -13.690  15.066  72.484  1.00  0.00    -0.572 A  
HETATM   25  C   UNL     1     -13.067  15.671  71.397  1.00  0.00    -0.559 A  
HETATM   26  C   UNL     1     -12.437  14.900  70.408  1.00  0.00    -0.350 A  
BRANCH  19  27
HETATM   27  C   UNL     1     -10.746  10.436  69.016  1.00  0.00    -0.228 A  
HETATM   28  C   UNL     1      -9.401  10.284  69.399  1.00  0.00    -0.217 A  
HETATM   29  C   UNL     1      -8.503   9.552  68.613  1.00  0.00    -0.119 A  
HETATM   30  C   UNL     1      -8.937   8.967  67.426  1.00  0.00    -0.143 A  
HETATM   31  C   UNL     1     -10.262   9.138  67.018  1.00  0.00    -0.333 A  
HETATM   32  C   UNL     1     -11.155   9.886  67.798  1.00  0.00    -0.196 A  
ENDBRANCH  19  27
ENDBRANCH   2  15
TORSDOF 4
ENDMDL
MODEL        8
REMARK 921   NORMALIZED FREE ENERGY PREDICTED BY IDOCK:   -8.20 KCAL/MOL
REMARK 922        TOTAL FREE ENERGY PREDICTED BY IDOCK:  -10.99 KCAL/MOL
REMARK 923 INTER-LIGAND FREE ENERGY PREDICTED BY IDOCK:  -10.47 KCAL/MOL
REMARK 924 INTRA-LIGAND FREE ENERGY PREDICTED BY IDOCK:   -0.52 KCAL/MOL
REMARK 927      BINDING AFFINITY PREDICTED BY RF-SCORE:    0.00 PKD
ROOT
HETATM    1  C   UNL     1     -12.014  15.580  68.547  1.00  0.00    -0.179 C  
HETATM    2  C   UNL     1     -10.947  14.491  68.652  1.00  0.00    -0.251 C  
ENDROOT
BRANCH   2   3
HETATM    3  N   UNL     1     -10.249  14.232  67.400  1.00  0.00    -0.247 NA 
HETATM    4  H   UNL     1      -9.405  13.661  67.386  1.00  0.00     0.000 HD 
BRANCH   3   5
HETATM    5  C   UNL     1     -10.753  14.778  66.222  1.00  0.00    -0.313 A  
HETATM    6  C   UNL     1     -11.887  14.619  64.134  1.00  0.00    -0.241 A  
HETATM    7  N   UNL     1     -11.800  15.919  63.824  1.00  0.00    -0.625 NA 
HETATM    8  C   UNL     1     -12.348  12.464  64.083  1.00  0.00    -0.467 A  
HETATM    9  H   UNL     1     -11.464  11.916  65.909  1.00  0.00     0.000 HD 
HETATM   10  N   UNL     1     -11.699  12.629  65.217  1.00  0.00    -0.358 NA 
HETATM   11  C   UNL     1     -11.147  16.589  64.793  1.00  0.00    -0.186 A  
HETATM   12  C   UNL     1     -11.404  13.979  65.262  1.00  0.00    -0.321 A  
HETATM   13  N   UNL     1     -12.491  13.642  63.400  1.00  0.00    -0.800 NA 
HETATM   14  N   UNL     1     -10.633  16.107  65.948  1.00  0.00    -0.328 NA 
ENDBRANCH   3   5
ENDBRANCH   2   3
BRANCH   2  15
HETATM   15  C   UNL     1     -11.313  13.145  69.302  1.00  0.00    -0.253 C  
HETATM   16  O   UNL     1     -13.052  11.456  71.976  1.00  0.00    -0.487 OA 
HETATM   17  C   UNL     1     -10.803  12.070  68.670  1.00  0.00    -0.273 C  
HETATM   18  C   UNL     1     -10.922  10.724  69.192  1.00  0.00    -0.293 A  
HETATM   19  N   UNL     1     -12.047  12.964  70.497  1.00  0.00    -0.339 N  
HETATM   20  C   UNL     1     -10.221   9.691  68.552  1.00  0.00    -0.216 A  
HETATM   21  C   UNL     1     -12.325  11.651  71.003  1.00  0.00    -0.301 C  
HETATM   22  C   UNL     1     -11.699  10.474  70.326  1.00  0.00    -0.420 A  
HETATM   23 CL   UNL     1     -12.768   8.638  72.127  1.00  0.00    -0.417 Cl 
HETATM   24  C   UNL     1     -10.295   8.391  69.034  1.00  0.00    -0.231 A  
HETATM   25  C   UNL     1     -11.094   8.121  70.140  1.00  0.00    -0.187 A  
HETATM   26  C   UNL     1     -11.804   9.148  70.783  1.00  0.00    -0.227 A  
BRANCH  19  27
HETATM   27  C   UNL     1     -12.535  14.035  71.326  1.00  0.00    -0.369 A  
HETATM   28  C   UNL     1     -13.888  14.411  71.231  1.00  0.00    -0.333 A  
HETATM   29  C   UNL     1     -14.410  15.440  72.023  1.00  0.00    -0.653 A  
HETATM   30  C   UNL     1     -13.584  16.114  72.919  1.00  0.00    -0.326 A  
HETATM   31  C   UNL     1     -12.232  15.773  72.999  1.00  0.00    -0.593 A  
HETATM   32  C   UNL     1     -11.706  14.754  72.192  1.00  0.00    -0.239 A  
ENDBRANCH  19  27
ENDBRANCH   2  15
TORSDOF 4
ENDMDL
MODEL        9
REMARK 921   NORMALIZED FREE ENERGY PREDICTED BY IDOCK:   -8.13 KCAL/MOL
REMARK 922        TOTAL FREE ENERGY PREDICTED BY IDOCK:  -10.90 KCAL/MOL
REMARK 923 INTER-LIGAND FREE ENERGY PREDICTED BY IDOCK:  -10.44 KCAL/MOL
REMARK 924 INTRA-LIGAND FREE ENERGY PREDICTED BY IDOCK:   -0.46 KCAL/MOL
REMARK 927      BINDING AFFINITY PREDICTED BY RF-SCORE:    0.00 PKD
ROOT
HETATM    1  C   UNL     1      -9.698  15.284  66.054  1.00  0.00    -0.367 C  
HETATM    2  C   UNL     1     -10.903  15.454  66.977  1.00  0.00    -0.320 C  
ENDROOT
BRANCH   2   3
HETATM    3  N   UNL     1     -10.874  16.684  67.757  1.00  0.00    -0.325 NA 
HETATM    4  H   UNL     1     -11.736  17.083  68.128  1.00  0.00     0.000 HD 
BRANCH   3   5
HETATM    5  C   UNL     1      -9.650  17.307  67.989  1.00  0.00    -0.274 A  
HETATM    6  C   UNL     1      -8.148  19.147  67.816  1.00  0.00    -0.278 A  
HETATM    7  N   UNL     1      -7.143  18.575  68.492  1.00  0.00    -0.267 NA 
HETATM    8  C   UNL     1      -9.384  20.578  66.683  1.00  0.00    -0.191 A  
HETATM    9  H   UNL     1     -11.101  19.388  66.454  1.00  0.00     0.000 HD 
HETATM   10  N   UNL     1     -10.152  19.515  66.806  1.00  0.00    -0.377 NA 
HETATM   11  C   UNL     1      -7.487  17.332  68.880  1.00  0.00    -0.240 A  
HETATM   12  C   UNL     1      -9.387  18.608  67.517  1.00  0.00    -0.283 A  
HETATM   13  N   UNL     1      -8.167  20.402  67.285  1.00  0.00    -0.343 NA 
HETATM   14  N   UNL     1      -8.655  16.681  68.675  1.00  0.00    -0.244 NA 
ENDBRANCH   3   5
ENDBRANCH   2   3
BRANCH   2  15
HETATM   15  C   UNL     1     -11.309  14.291  67.900  1.00  0.00    -0.297 C  
HETATM   16  O   UNL     1     -11.804  10.732  68.234  1.00  0.00    -0.504 OA 
HETATM   17  C   UNL     1     -11.648  14.670  69.148  1.00  0.00    -0.331 C  
HETATM   18  C   UNL     1     -12.183  13.748  70.129  1.00  0.00    -0.425 A  
HETATM   19  N   UNL     1     -11.417  12.931  67.534  1.00  0.00    -0.314 N  
HETATM   20  C   UNL     1     -12.659  14.262  71.344  1.00  0.00    -0.434 A  
HETATM   21  C   UNL     1     -11.807  11.935  68.491  1.00  0.00    -0.297 C  
HETATM   22  C   UNL     1     -12.241  12.380  69.851  1.00  0.00    -0.227 A  
HETATM   23 CL   UNL     1     -12.836   9.797  70.706  1.00  0.00    -0.281 Cl 
HETATM   24  C   UNL     1     -13.196  13.412  72.302  1.00  0.00    -0.570 A  
HETATM   25  C   UNL     1     -13.227  12.043  72.054  1.00  0.00    -0.481 A  
HETATM   26  C   UNL     1     -12.746  11.520  70.843  1.00  0.00    -0.278 A  
BRANCH  19  27
HETATM   27  C   UNL     1     -11.203  12.423  66.204  1.00  0.00    -0.322 A  
HETATM   28  C   UNL     1     -12.184  12.648  65.221  1.00  0.00    -0.532 A  
HETATM   29  C   UNL     1     -12.017  12.183  63.912  1.00  0.00    -0.581 A  
HETATM   30  C   UNL     1     -10.866  11.477  63.567  1.00  0.00    -0.473 A  
HETATM   31  C   UNL     1      -9.900  11.219  64.542  1.00  0.00    -0.317 A  
HETATM   32  C   UNL     1     -10.077  11.671  65.857  1.00  0.00    -0.267 A  
ENDBRANCH  19  27
ENDBRANCH   2  15
TORSDOF 4
ENDMDL
MODEL       10
REMARK 921   NORMALIZED FREE ENERGY PREDICTED BY IDOCK:   -8.08 KCAL/MOL
REMARK 922        TOTAL FREE ENERGY PREDICTED BY IDOCK:  -10.84 KCAL/MOL
REMARK 923 INTER-LIGAND FREE ENERGY PREDICTED BY IDOCK:   -9.91 KCAL/MOL
REMARK 924 INTRA-LIGAND FREE ENERGY PREDICTED BY IDOCK:   -0.94 KCAL/MOL
REMARK 927      BINDING AFFINITY PREDICTED BY RF-SCORE:    0.00 PKD
ROOT
HETATM    1  C   UNL     1      -8.577  16.003  67.326  1.00  0.00    -0.205 C  
HETATM    2  C   UNL     1      -9.892  16.532  67.898  1.00  0.00    -0.240 C  
ENDROOT
BRANCH   2   3
HETATM    3  N   UNL     1      -9.809  17.903  68.384  1.00  0.00    -0.335 NA 
HETATM    4  H   UNL     1     -10.348  18.198  69.198  1.00  0.00     0.000 HD 
BRANCH   3   5
HETATM    5  C   UNL     1      -8.982  18.805  67.718  1.00  0.00    -0.286 A  
HETATM    6  C   UNL     1      -7.061  20.206  67.580  1.00  0.00    -0.276 A  
HETATM    7  N   UNL     1      -7.286  20.635  66.331  1.00  0.00    -0.169 NA 
HETATM    8  C   UNL     1      -6.169  19.874  69.568  1.00  0.00    -0.335 A  
HETATM    9  H   UNL     1      -7.606  18.545  70.333  1.00  0.00     0.000 HD 
HETATM   10  N   UNL     1      -7.258  19.135  69.575  1.00  0.00    -0.168 NA 
HETATM   11  C   UNL     1      -8.418  20.089  65.845  1.00  0.00    -0.126 A  
HETATM   12  C   UNL     1      -7.828  19.333  68.331  1.00  0.00    -0.341 A  
HETATM   13  N   UNL     1      -6.007  20.534  68.379  1.00  0.00    -0.288 NA 
HETATM   14  N   UNL     1      -9.257  19.218  66.450  1.00  0.00    -0.344 NA 
ENDBRANCH   3   5
ENDBRANCH   2   3
BRANCH   2  15
HETATM   15  C   UNL     1     -10.652  15.685  68.934  1.00  0.00    -0.228 C  
HETATM   16  O   UNL     1     -12.380  12.593  69.623  1.00  0.00    -0.143 OA 
HETATM   17  C   UNL     1     -10.785  16.274  70.138  1.00  0.00    -0.246 C  
HETATM   18  C   UNL     1     -11.577  15.702  71.208  1.00  0.00    -0.485 A  
HETATM   19  N   UNL     1     -11.256  14.428  68.706  1.00  0.00    -0.247 N  
HETATM   20  C   UNL     1     -11.790  16.463  72.367  1.00  0.00    -0.548 A  
HETATM   21  C   UNL     1     -11.940  13.733  69.758  1.00  0.00    -0.344 C  
HETATM   22  C   UNL     1     -12.133  14.428  71.068  1.00  0.00    -0.417 A  
HETATM   23 CL   UNL     1     -13.583  12.325  72.178  1.00  0.00    -0.493 Cl 
HETATM   24  C   UNL     1     -12.558  15.956  73.406  1.00  0.00    -0.666 A  
HETATM   25  C   UNL     1     -13.089  14.675  73.296  1.00  0.00    -0.505 A  
HETATM   26  C   UNL     1     -12.875  13.904  72.143  1.00  0.00    -0.298 A  
BRANCH  19  27
HETATM   27  C   UNL     1     -11.290  13.757  67.432  1.00  0.00    -0.324 A  
HETATM   28  C   UNL     1     -10.335  12.761  67.159  1.00  0.00    -0.237 A  
HETATM   29  C   UNL     1     -10.334  12.074  65.940  1.00  0.00    -0.278 A  
HETATM   30  C   UNL     1     -11.286  12.379  64.970  1.00  0.00    -0.363 A  
HETATM   31  C   UNL     1     -12.220  13.389  65.216  1.00  0.00    -0.478 A  
HETATM   32  C   UNL     1     -12.208  14.088  66.432  1.00  0.00    -0.492 A  
ENDBRANCH  19  27
ENDBRANCH   2  15
TORSDOF 4
ENDMDL
MODEL       11
REMARK 921   NORMALIZED FREE ENERGY PREDICTED BY IDOCK:   -7.99 KCAL/MOL
REMARK 922        TOTAL FREE ENERGY PREDICTED BY IDOCK:  -10.73 KCAL/MOL
REMARK 923 INTER-LIGAND FREE ENERGY PREDICTED BY IDOCK:   -9.44 KCAL/MOL
REMARK 924 INTRA-LIGAND FREE ENERGY PREDICTED BY IDOCK:   -1.28 KCAL/MOL
REMARK 927      BINDING AFFINITY PREDICTED BY RF-SCORE:    0.00 PKD
ROOT
HETATM    1  C   UNL     1      -8.940  13.445  68.414  1.00  0.00    -0.136 C  
HETATM    2  C   UNL     1     -10.097  12.570  67.933  1.00  0.00    -0.214 C  
ENDROOT
BRANCH   2   3
HETATM    3  N   UNL     1     -11.321  13.314  67.665  1.00  0.00    -0.280 NA 
HETATM    4  H   UNL     1     -11.883  13.681  68.433  1.00  0.00     0.000 HD 
BRANCH   3   5
HETATM    5  C   UNL     1     -11.710  13.517  66.343  1.00  0.00    -0.369 A  
HETATM    6  C   UNL     1     -11.888  14.840  64.371  1.00  0.00    -0.380 A  
HETATM    7  N   UNL     1     -12.495  13.907  63.627  1.00  0.00    -0.805 NA 
HETATM    8  C   UNL     1     -10.935  16.710  65.047  1.00  0.00    -0.162 A  
HETATM    9  H   UNL     1     -10.498  16.138  67.021  1.00  0.00     0.000 HD 
HETATM   10  N   UNL     1     -10.888  15.924  66.102  1.00  0.00    -0.260 NA 
HETATM   11  C   UNL     1     -12.683  12.784  64.346  1.00  0.00    -0.289 A  
HETATM   12  C   UNL     1     -11.482  14.745  65.691  1.00  0.00    -0.327 A  
HETATM   13  N   UNL     1     -11.525  16.093  63.976  1.00  0.00    -0.856 NA 
HETATM   14  N   UNL     1     -12.332  12.539  65.629  1.00  0.00    -0.638 NA 
ENDBRANCH   3   5
ENDBRANCH   2   3
BRANCH   2  15
HETATM   15  C   UNL     1     -10.454  11.300  68.724  1.00  0.00    -0.208 C  
HETATM   16  O   UNL     1      -9.985   7.740  69.091  1.00  0.00    -0.174 OA 
HETATM   17  C   UNL     1     -11.314  11.505  69.741  1.00  0.00    -0.303 C  
HETATM   18  C   UNL     1     -11.874  10.423  70.524  1.00  0.00    -0.430 A  
HETATM   19  N   UNL     1     -10.024   9.985  68.433  1.00  0.00    -0.156 N  
HETATM   20  C   UNL     1     -12.883  10.719  71.453  1.00  0.00    -0.557 A  
HETATM   21  C   UNL     1     -10.427   8.877  69.250  1.00  0.00    -0.224 C  
HETATM   22  C   UNL     1     -11.430   9.112  70.333  1.00  0.00    -0.228 A  
HETATM   23 CL   UNL     1     -11.520   6.432  71.086  1.00  0.00    -0.372 Cl 
HETATM   24  C   UNL     1     -13.458   9.707  72.209  1.00  0.00    -0.488 A  
HETATM   25  C   UNL     1     -13.001   8.402  72.056  1.00  0.00    -0.388 A  
HETATM   26  C   UNL     1     -11.987   8.098  71.134  1.00  0.00    -0.273 A  
BRANCH  19  27
HETATM   27  C   UNL     1      -9.209   9.623  67.303  1.00  0.00    -0.134 A  
HETATM   28  C   UNL     1      -7.808   9.681  67.425  1.00  0.00    -0.095 A  
HETATM   29  C   UNL     1      -6.974   9.329  66.358  1.00  0.00    -0.084 A  
HETATM   30  C   UNL     1      -7.529   8.921  65.148  1.00  0.00    -0.097 A  
HETATM   31  C   UNL     1      -8.918   8.891  65.003  1.00  0.00    -0.160 A  
HETATM   32  C   UNL     1      -9.752   9.260  66.068  1.00  0.00    -0.359 A  
ENDBRANCH  19  27
ENDBRANCH   2  15
TORSDOF 4
ENDMDL
MODEL       12
REMARK 921   NORMALIZED FREE ENERGY PREDICTED BY IDOCK:   -7.96 KCAL/MOL
REMARK 922        TOTAL FREE ENERGY PREDICTED BY IDOCK:  -10.69 KCAL/MOL
REMARK 923 INTER-LIGAND FREE ENERGY PREDICTED BY IDOCK:  -10.32 KCAL/MOL
REMARK 924 INTRA-LIGAND FREE ENERGY PREDICTED BY IDOCK:   -0.37 KCAL/MOL
REMARK 927      BINDING AFFINITY PREDICTED BY RF-SCORE:    0.00 PKD
ROOT
HETATM    1  C   UNL     1      -9.818  15.712  65.820  1.00  0.00    -0.386 C  
HETATM    2  C   UNL     1     -10.798  16.192  66.888  1.00  0.00    -0.175 C  
ENDROOT
BRANCH   2   3
HETATM    3  N   UNL     1     -10.391  17.428  67.543  1.00  0.00    -0.339 NA 
HETATM    4  H   UNL     1     -11.083  18.132  67.798  1.00  0.00     0.000 HD 
BRANCH   3   5
HETATM    5  C   UNL     1      -9.040  17.632  67.816  1.00  0.00    -0.247 A  
HETATM    6  C   UNL     1      -6.938  18.678  67.420  1.00  0.00    -0.205 A  
HETATM    7  N   UNL     1      -6.279  18.055  68.405  1.00  0.00    -0.186 NA 
HETATM    8  C   UNL     1      -7.448  19.987  65.720  1.00  0.00    -0.295 A  
HETATM    9  H   UNL     1      -9.469  19.453  65.515  1.00  0.00     0.000 HD 
HETATM   10  N   UNL     1      -8.571  19.355  65.990  1.00  0.00    -0.444 NA 
HETATM   11  C   UNL     1      -7.101  17.207  69.055  1.00  0.00    -0.232 A  
HETATM   12  C   UNL     1      -8.265  18.531  67.057  1.00  0.00    -0.247 A  
HETATM   13  N   UNL     1      -6.436  19.614  66.565  1.00  0.00    -0.182 NA 
HETATM   14  N   UNL     1      -8.412  16.967  68.825  1.00  0.00    -0.255 NA 
ENDBRANCH   3   5
ENDBRANCH   2   3
BRANCH   2  15
HETATM   15  C   UNL     1     -11.283  15.200  67.960  1.00  0.00    -0.323 C  
HETATM   16  O   UNL     1     -12.072  11.771  68.766  1.00  0.00    -0.358 OA 
HETATM   17  C   UNL     1     -11.564  15.766  69.150  1.00  0.00    -0.399 C  
HETATM   18  C   UNL     1     -12.155  15.030  70.249  1.00  0.00    -0.378 A  
HETATM   19  N   UNL     1     -11.513  13.817  67.778  1.00  0.00    -0.303 N  
HETATM   20  C   UNL     1     -12.561  15.738  71.390  1.00  0.00    -0.516 A  
HETATM   21  C   UNL     1     -11.966  12.993  68.861  1.00  0.00    -0.263 C  
HETATM   22  C   UNL     1     -12.334  13.648  70.154  1.00  0.00    -0.372 A  
HETATM   23 CL   UNL     1     -13.129  11.260  71.348  1.00  0.00    -0.454 Cl 
HETATM   24  C   UNL     1     -13.149  15.070  72.456  1.00  0.00    -0.480 A  
HETATM   25  C   UNL     1     -13.301  13.689  72.391  1.00  0.00    -0.641 A  
HETATM   26  C   UNL     1     -12.890  12.972  71.256  1.00  0.00    -0.281 A  
BRANCH  19  27
HETATM   27  C   UNL     1     -11.370  13.123  66.525  1.00  0.00    -0.315 A  
HETATM   28  C   UNL     1     -12.436  13.144  65.607  1.00  0.00    -0.485 A  
HETATM   29  C   UNL     1     -12.340  12.493  64.372  1.00  0.00    -0.537 A  
HETATM   30  C   UNL     1     -11.176  11.803  64.039  1.00  0.00    -0.461 A  
HETATM   31  C   UNL     1     -10.123  11.747  64.955  1.00  0.00    -0.298 A  
HETATM   32  C   UNL     1     -10.228  12.386  66.199  1.00  0.00    -0.262 A  
ENDBRANCH  19  27
ENDBRANCH   2  15
TORSDOF 4
ENDMDL
MODEL       13
REMARK 921   NORMALIZED FREE ENERGY PREDICTED BY IDOCK:   -7.86 KCAL/MOL
REMARK 922        TOTAL FREE ENERGY PREDICTED BY IDOCK:  -10.57 KCAL/MOL
REMARK 923 INTER-LIGAND FREE ENERGY PREDICTED BY IDOCK:   -9.75 KCAL/MOL
REMARK 924 INTRA-LIGAND FREE ENERGY PREDICTED BY IDOCK:   -0.82 KCAL/MOL
REMARK 927      BINDING AFFINITY PREDICTED BY RF-SCORE:    0.00 PKD
ROOT
HETATM    1  C   UNL     1     -11.632  14.695  66.842  1.00  0.00    -0.374 C  
HETATM    2  C   UNL     1     -11.333  14.556  68.334  1.00  0.00    -0.289 C  
ENDROOT
BRANCH   2   3
HETATM    3  N   UNL     1     -10.028  15.076  68.720  1.00  0.00    -0.221 NA 
HETATM    4  H   UNL     1      -9.579  14.761  69.579  1.00  0.00     0.000 HD 
BRANCH   3   5
HETATM    5  C   UNL     1      -9.405  16.010  67.896  1.00  0.00    -0.208 A  
HETATM    6  C   UNL     1      -8.890  18.241  67.241  1.00  0.00    -0.255 A  
HETATM    7  N   UNL     1      -8.101  17.910  66.211  1.00  0.00    -0.415 NA 
HETATM    8  C   UNL     1     -10.025  19.381  68.749  1.00  0.00    -0.444 A  
HETATM    9  H   UNL     1     -10.863  17.762  69.793  1.00  0.00     0.000 HD 
HETATM   10  N   UNL     1     -10.275  18.122  69.041  1.00  0.00    -0.329 NA 
HETATM   11  C   UNL     1      -8.027  16.570  66.090  1.00  0.00    -0.156 A  
HETATM   12  C   UNL     1      -9.568  17.395  68.101  1.00  0.00    -0.287 A  
HETATM   13  N   UNL     1      -9.186  19.500  67.673  1.00  0.00    -0.307 NA 
HETATM   14  N   UNL     1      -8.616  15.624  66.855  1.00  0.00    -0.225 NA 
ENDBRANCH   3   5
ENDBRANCH   2   3
BRANCH   2  15
HETATM   15  C   UNL     1     -11.545  13.193  69.016  1.00  0.00    -0.312 C  
HETATM   16  O   UNL     1     -12.804  11.421  71.897  1.00  0.00    -0.396 OA 
HETATM   17  C   UNL     1     -11.090  12.143  68.305  1.00  0.00    -0.288 C  
HETATM   18  C   UNL     1     -11.075  10.791  68.825  1.00  0.00    -0.312 A  
HETATM   19  N   UNL     1     -12.089  12.976  70.303  1.00  0.00    -0.350 N  
HETATM   20  C   UNL     1     -10.434   9.791  68.078  1.00  0.00    -0.271 A  
HETATM   21  C   UNL     1     -12.236  11.651  70.830  1.00  0.00    -0.298 C  
HETATM   22  C   UNL     1     -11.668  10.504  70.057  1.00  0.00    -0.394 A  
HETATM   23 CL   UNL     1     -12.385   8.616  71.975  1.00  0.00    -0.404 Cl 
HETATM   24  C   UNL     1     -10.383   8.487  68.552  1.00  0.00    -0.230 A  
HETATM   25  C   UNL     1     -11.001   8.179  69.760  1.00  0.00    -0.133 A  
HETATM   26  C   UNL     1     -11.650   9.172  70.510  1.00  0.00    -0.197 A  
BRANCH  19  27
HETATM   27  C   UNL     1     -12.493  14.022  71.205  1.00  0.00    -0.369 A  
HETATM   28  C   UNL     1     -13.853  14.378  71.274  1.00  0.00    -0.333 A  
HETATM   29  C   UNL     1     -14.295  15.381  72.143  1.00  0.00    -0.642 A  
HETATM   30  C   UNL     1     -13.382  16.051  72.953  1.00  0.00    -0.537 A  
HETATM   31  C   UNL     1     -12.025  15.730  72.871  1.00  0.00    -0.599 A  
HETATM   32  C   UNL     1     -11.581  14.737  71.987  1.00  0.00    -0.178 A  
ENDBRANCH  19  27
ENDBRANCH   2  15
TORSDOF 4
ENDMDL
MODEL       14
REMARK 921   NORMALIZED FREE ENERGY PREDICTED BY IDOCK:   -7.85 KCAL/MOL
REMARK 922        TOTAL FREE ENERGY PREDICTED BY IDOCK:  -10.56 KCAL/MOL
REMARK 923 INTER-LIGAND FREE ENERGY PREDICTED BY IDOCK:  -10.34 KCAL/MOL
REMARK 924 INTRA-LIGAND FREE ENERGY PREDICTED BY IDOCK:   -0.23 KCAL/MOL
REMARK 927      BINDING AFFINITY PREDICTED BY RF-SCORE:    0.00 PKD
ROOT
HETATM    1  C   UNL     1     -12.108  15.273  68.648  1.00  0.00    -0.160 C  
HETATM    2  C   UNL     1     -11.095  14.137  68.776  1.00  0.00    -0.262 C  
ENDROOT
BRANCH   2   3
HETATM    3  N   UNL     1     -10.427  13.805  67.524  1.00  0.00    -0.244 NA 
HETATM    4  H   UNL     1      -9.450  13.513  67.519  1.00  0.00     0.000 HD 
BRANCH   3   5
HETATM    5  C   UNL     1     -11.145  13.892  66.334  1.00  0.00    -0.309 A  
HETATM    6  C   UNL     1     -11.921  15.069  64.414  1.00  0.00    -0.353 A  
HETATM    7  N   UNL     1     -12.603  14.046  63.884  1.00  0.00    -0.746 NA 
HETATM    8  C   UNL     1     -11.008  17.047  64.752  1.00  0.00     0.219 A  
HETATM    9  H   UNL     1     -10.051  16.638  66.577  1.00  0.00     0.000 HD 
HETATM   10  N   UNL     1     -10.632  16.336  65.794  1.00  0.00    -0.343 NA 
HETATM   11  C   UNL     1     -12.506  12.959  64.674  1.00  0.00    -0.434 A  
HETATM   12  C   UNL     1     -11.198  15.091  65.594  1.00  0.00    -0.327 A  
HETATM   13  N   UNL     1     -11.783  16.319  63.889  1.00  0.00    -0.978 NA 
HETATM   14  N   UNL     1     -11.831  12.825  65.838  1.00  0.00    -0.416 NA 
ENDBRANCH   3   5
ENDBRANCH   2   3
BRANCH   2  15
HETATM   15  C   UNL     1     -11.517  12.832  69.473  1.00  0.00    -0.225 C  
HETATM   16  O   UNL     1     -13.334  11.315  72.198  1.00  0.00    -0.457 OA 
HETATM   17  C   UNL     1     -11.049  11.714  68.883  1.00  0.00    -0.287 C  
HETATM   18  C   UNL     1     -11.224  10.394  69.454  1.00  0.00    -0.314 A  
HETATM   19  N   UNL     1     -12.263  12.725  70.669  1.00  0.00    -0.357 N  
HETATM   20  C   UNL     1     -10.563   9.311  68.856  1.00  0.00    -0.222 A  
HETATM   21  C   UNL     1     -12.596  11.444  71.222  1.00  0.00    -0.374 C  
HETATM   22  C   UNL     1     -12.015  10.219  70.592  1.00  0.00    -0.436 A  
HETATM   23 CL   UNL     1     -13.164   8.495  72.454  1.00  0.00    -0.344 Cl 
HETATM   24  C   UNL     1     -10.691   8.034  69.385  1.00  0.00    -0.167 A  
HETATM   25  C   UNL     1     -11.505   7.838  70.497  1.00  0.00    -0.219 A  
HETATM   26  C   UNL     1     -12.175   8.915  71.097  1.00  0.00    -0.255 A  
BRANCH  19  27
HETATM   27  C   UNL     1     -12.711  13.845  71.455  1.00  0.00    -0.365 A  
HETATM   28  C   UNL     1     -11.844  14.393  72.418  1.00  0.00     0.180 A  
HETATM   29  C   UNL     1     -12.230  15.488  73.200  1.00  0.00    -0.580 A  
HETATM   30  C   UNL     1     -13.494  16.048  73.034  1.00  0.00    -0.567 A  
HETATM   31  C   UNL     1     -14.377  15.493  72.104  1.00  0.00    -0.598 A  
HETATM   32  C   UNL     1     -13.994  14.385  71.334  1.00  0.00    -0.395 A  
ENDBRANCH  19  27
ENDBRANCH   2  15
TORSDOF 4
ENDMDL
MODEL       15
REMARK 921   NORMALIZED FREE ENERGY PREDICTED BY IDOCK:   -7.85 KCAL/MOL
REMARK 922        TOTAL FREE ENERGY PREDICTED BY IDOCK:  -10.56 KCAL/MOL
REMARK 923 INTER-LIGAND FREE ENERGY PREDICTED BY IDOCK:  -10.30 KCAL/MOL
REMARK 924 INTRA-LIGAND FREE ENERGY PREDICTED BY IDOCK:   -0.25 KCAL/MOL
REMARK 927      BINDING AFFINITY PREDICTED BY RF-SCORE:    0.00 PKD
ROOT
HETATM    1  C   UNL     1     -13.229  11.740  71.587  1.00  0.00    -0.368 C  
HETATM    2  C   UNL     1     -12.370  11.307  70.400  1.00  0.00    -0.329 C  
ENDROOT
BRANCH   2   3
HETATM    3  N   UNL     1     -11.188  10.544  70.781  1.00  0.00    -0.387 NA 
HETATM    4  H   UNL     1     -10.291  11.010  70.916  1.00  0.00     0.000 HD 
BRANCH   3   5
HETATM    5  C   UNL     1     -11.304   9.168  70.959  1.00  0.00    -0.309 A  
HETATM    6  C   UNL     1     -11.151   6.917  70.195  1.00  0.00    -0.299 A  
HETATM    7  N   UNL     1     -11.524   6.348  71.349  1.00  0.00    -0.299 NA 
HETATM    8  C   UNL     1     -10.487   7.236  68.118  1.00  0.00    -0.198 A  
HETATM    9  H   UNL     1     -10.438   9.336  68.128  1.00  0.00     0.000 HD 
HETATM   10  N   UNL     1     -10.610   8.452  68.607  1.00  0.00    -0.163 NA 
HETATM   11  C   UNL     1     -11.784   7.293  72.274  1.00  0.00    -0.265 A  
HETATM   12  C   UNL     1     -11.026   8.266  69.912  1.00  0.00    -0.166 A  
HETATM   13  N   UNL     1     -10.796   6.277  69.045  1.00  0.00    -0.302 NA 
HETATM   14  N   UNL     1     -11.696   8.637  72.150  1.00  0.00    -0.364 NA 
ENDBRANCH   3   5
ENDBRANCH   2   3
BRANCH   2  15
HETATM   15  C   UNL     1     -11.965  12.354  69.347  1.00  0.00    -0.260 C  
HETATM   16  O   UNL     1     -11.469  15.850  68.600  1.00  0.00    -0.363 OA 
HETATM   17  C   UNL     1     -11.640  11.833  68.148  1.00  0.00    -0.391 C  
HETATM   18  C   UNL     1     -11.357  12.653  66.988  1.00  0.00    -0.377 A  
HETATM   19  N   UNL     1     -11.977  13.757  69.515  1.00  0.00    -0.328 N  
HETATM   20  C   UNL     1     -11.189  12.024  65.745  1.00  0.00    -0.383 A  
HETATM   21  C   UNL     1     -11.574  14.633  68.452  1.00  0.00    -0.323 C  
HETATM   22  C   UNL     1     -11.280  14.043  67.110  1.00  0.00    -0.327 A  
HETATM   23 CL   UNL     1     -10.780  16.516  65.930  1.00  0.00    -0.246 Cl 
HETATM   24  C   UNL     1     -10.935  12.778  64.607  1.00  0.00    -0.355 A  
HETATM   25  C   UNL     1     -10.820  14.160  64.720  1.00  0.00    -0.426 A  
HETATM   26  C   UNL     1     -10.979  14.797  65.961  1.00  0.00    -0.328 A  
BRANCH  19  27
HETATM   27  C   UNL     1     -12.423  14.434  70.704  1.00  0.00    -0.350 A  
HETATM   28  C   UNL     1     -13.791  14.723  70.854  1.00  0.00    -0.144 A  
HETATM   29  C   UNL     1     -14.274  15.370  71.997  1.00  0.00    -0.650 A  
HETATM   30  C   UNL     1     -13.391  15.746  73.007  1.00  0.00    -0.679 A  
HETATM   31  C   UNL     1     -12.025  15.495  72.856  1.00  0.00    -0.575 A  
HETATM   32  C   UNL     1     -11.542  14.862  71.702  1.00  0.00    -0.347 A  
ENDBRANCH  19  27
ENDBRANCH   2  15
TORSDOF 4
ENDMDL
MODEL       16
REMARK 921   NORMALIZED FREE ENERGY PREDICTED BY IDOCK:   -7.84 KCAL/MOL
REMARK 922        TOTAL FREE ENERGY PREDICTED BY IDOCK:  -10.55 KCAL/MOL
REMARK 923 INTER-LIGAND FREE ENERGY PREDICTED BY IDOCK:  -10.46 KCAL/MOL
REMARK 924 INTRA-LIGAND FREE ENERGY PREDICTED BY IDOCK:   -0.09 KCAL/MOL
REMARK 927      BINDING AFFINITY PREDICTED BY RF-SCORE:    0.00 PKD
ROOT
HETATM    1  C   UNL     1     -13.192  11.768  71.910  1.00  0.00    -0.468 C  
HETATM    2  C   UNL     1     -12.389  11.252  70.717  1.00  0.00    -0.398 C  
ENDROOT
BRANCH   2   3
HETATM    3  N   UNL     1     -11.230  10.454  71.093  1.00  0.00    -0.226 NA 
HETATM    4  H   UNL     1     -10.300  10.872  71.122  1.00  0.00     0.000 HD 
BRANCH   3   5
HETATM    5  C   UNL     1     -11.411   9.111  71.413  1.00  0.00    -0.350 A  
HETATM    6  C   UNL     1     -10.689   7.045  72.352  1.00  0.00    -0.231 A  
HETATM    7  N   UNL     1     -11.811   6.364  72.081  1.00  0.00    -0.324 NA 
HETATM    8  C   UNL     1      -8.676   7.599  73.059  1.00  0.00    -0.163 A  
HETATM    9  H   UNL     1      -8.668   9.603  72.426  1.00  0.00     0.000 HD 
HETATM   10  N   UNL     1      -9.139   8.701  72.506  1.00  0.00    -0.367 NA 
HETATM   11  C   UNL     1     -12.698   7.157  71.449  1.00  0.00    -0.391 A  
HETATM   12  C   UNL     1     -10.404   8.367  72.059  1.00  0.00    -0.304 A  
HETATM   13  N   UNL     1      -9.583   6.575  72.995  1.00  0.00    -0.149 NA 
HETATM   14  N   UNL     1     -12.568   8.460  71.110  1.00  0.00    -0.209 NA 
ENDBRANCH   3   5
ENDBRANCH   2   3
BRANCH   2  15
HETATM   15  C   UNL     1     -11.974  12.239  69.612  1.00  0.00    -0.279 C  
HETATM   16  O   UNL     1     -11.450  15.686  68.681  1.00  0.00    -0.338 OA 
HETATM   17  C   UNL     1     -11.650  11.653  68.442  1.00  0.00    -0.376 C  
HETATM   18  C   UNL     1     -11.358  12.408  67.241  1.00  0.00    -0.384 A  
HETATM   19  N   UNL     1     -11.976  13.649  69.704  1.00  0.00    -0.329 N  
HETATM   20  C   UNL     1     -11.191  11.713  66.034  1.00  0.00    -0.299 A  
HETATM   21  C   UNL     1     -11.564  14.464  68.598  1.00  0.00    -0.314 C  
HETATM   22  C   UNL     1     -11.270  13.802  67.290  1.00  0.00    -0.329 A  
HETATM   23 CL   UNL     1     -10.749  16.205  65.982  1.00  0.00    -0.283 Cl 
HETATM   24  C   UNL     1     -10.929  12.403  64.859  1.00  0.00    -0.341 A  
HETATM   25  C   UNL     1     -10.803  13.788  64.898  1.00  0.00    -0.398 A  
HETATM   26  C   UNL     1     -10.961  14.491  66.103  1.00  0.00    -0.322 A  
BRANCH  19  27
HETATM   27  C   UNL     1     -12.419  14.391  70.855  1.00  0.00    -0.354 A  
HETATM   28  C   UNL     1     -13.785  14.704  70.982  1.00  0.00    -0.281 A  
HETATM   29  C   UNL     1     -14.265  15.415  72.087  1.00  0.00    -0.660 A  
HETATM   30  C   UNL     1     -13.383  15.831  73.082  1.00  0.00    -0.685 A  
HETATM   31  C   UNL     1     -12.020  15.556  72.952  1.00  0.00    -0.575 A  
HETATM   32  C   UNL     1     -11.538  14.858  71.835  1.00  0.00    -0.335 A  
ENDBRANCH  19  27
ENDBRANCH   2  15
TORSDOF 4
ENDMDL
MODEL       17
REMARK 921   NORMALIZED FREE ENERGY PREDICTED BY IDOCK:   -7.84 KCAL/MOL
REMARK 922        TOTAL FREE ENERGY PREDICTED BY IDOCK:  -10.55 KCAL/MOL
REMARK 923 INTER-LIGAND FREE ENERGY PREDICTED BY IDOCK:   -9.56 KCAL/MOL
REMARK 924 INTRA-LIGAND FREE ENERGY PREDICTED BY IDOCK:   -0.99 KCAL/MOL
REMARK 927      BINDING AFFINITY PREDICTED BY RF-SCORE:    0.00 PKD
ROOT
HETATM    1  C   UNL     1     -13.398  10.187  72.011  1.00  0.00    -0.492 C  
HETATM    2  C   UNL     1     -12.500  11.074  71.151  1.00  0.00    -0.397 C  
ENDROOT
BRANCH   2   3
HETATM    3  N   UNL     1     -13.131  12.319  70.736  1.00  0.00     0.126 NA 
HETATM    4  H   UNL     1     -13.809  12.328  69.974  1.00  0.00     0.000 HD 
BRANCH   3   5
HETATM    5  C   UNL     1     -12.795  13.498  71.397  1.00  0.00    -0.355 A  
HETATM    6  C   UNL     1     -11.761  15.641  71.505  1.00  0.00    -0.433 A  
HETATM    7  N   UNL     1     -12.135  15.918  72.760  1.00  0.00    -0.461 NA 
HETATM    8  C   UNL     1     -10.888  15.774  69.485  1.00  0.00    -0.287 A  
HETATM    9  H   UNL     1     -11.505  13.902  68.758  1.00  0.00     0.000 HD 
HETATM   10  N   UNL     1     -11.471  14.594  69.507  1.00  0.00    -0.281 NA 
HETATM   11  C   UNL     1     -12.847  14.896  73.273  1.00  0.00    -0.530 A  
HETATM   12  C   UNL     1     -12.025  14.498  70.770  1.00  0.00    -0.322 A  
HETATM   13  N   UNL     1     -11.044  16.444  70.669  1.00  0.00    -0.268 NA 
HETATM   14  N   UNL     1     -13.193  13.731  72.679  1.00  0.00    -0.505 NA 
ENDBRANCH   3   5
ENDBRANCH   2   3
BRANCH   2  15
HETATM   15  C   UNL     1     -11.776  10.458  69.941  1.00  0.00    -0.264 C  
HETATM   16  O   UNL     1      -9.788   7.721  68.682  1.00  0.00    -0.161 OA 
HETATM   17  C   UNL     1     -11.865  11.190  68.814  1.00  0.00    -0.388 C  
HETATM   18  C   UNL     1     -11.149  10.853  67.601  1.00  0.00    -0.376 A  
HETATM   19  N   UNL     1     -11.003   9.275  69.941  1.00  0.00    -0.230 N  
HETATM   20  C   UNL     1     -11.173  11.760  66.531  1.00  0.00    -0.380 A  
HETATM   21  C   UNL     1     -10.375   8.801  68.741  1.00  0.00    -0.213 C  
HETATM   22  C   UNL     1     -10.430   9.657  67.517  1.00  0.00    -0.321 A  
HETATM   23 CL   UNL     1      -8.886   7.905  65.999  1.00  0.00    -0.186 Cl 
HETATM   24  C   UNL     1     -10.483  11.481  65.359  1.00  0.00    -0.333 A  
HETATM   25  C   UNL     1      -9.793  10.278  65.248  1.00  0.00    -0.372 A  
HETATM   26  C   UNL     1      -9.769   9.361  66.311  1.00  0.00    -0.264 A  
BRANCH  19  27
HETATM   27  C   UNL     1     -10.732   8.476  71.108  1.00  0.00    -0.234 A  
HETATM   28  C   UNL     1     -11.524   7.341  71.358  1.00  0.00    -0.294 A  
HETATM   29  C   UNL     1     -11.293   6.528  72.473  1.00  0.00    -0.299 A  
HETATM   30  C   UNL     1     -10.267   6.844  73.361  1.00  0.00    -0.314 A  
HETATM   31  C   UNL     1      -9.494   7.986  73.142  1.00  0.00    -0.349 A  
HETATM   32  C   UNL     1      -9.739   8.809  72.034  1.00  0.00    -0.370 A  
ENDBRANCH  19  27
ENDBRANCH   2  15
TORSDOF 4
ENDMDL
MODEL       18
REMARK 921   NORMALIZED FREE ENERGY PREDICTED BY IDOCK:   -7.81 KCAL/MOL
REMARK 922        TOTAL FREE ENERGY PREDICTED BY IDOCK:  -10.51 KCAL/MOL
REMARK 923 INTER-LIGAND FREE ENERGY PREDICTED BY IDOCK:   -9.52 KCAL/MOL
REMARK 924 INTRA-LIGAND FREE ENERGY PREDICTED BY IDOCK:   -0.99 KCAL/MOL
REMARK 927      BINDING AFFINITY PREDICTED BY RF-SCORE:    0.00 PKD
ROOT
HETATM    1  C   UNL     1     -11.866  14.639  66.845  1.00  0.00    -0.345 C  
HETATM    2  C   UNL     1     -11.405  14.521  68.297  1.00  0.00    -0.297 C  
ENDROOT
BRANCH   2   3
HETATM    3  N   UNL     1     -10.046  14.995  68.520  1.00  0.00    -0.219 NA 
HETATM    4  H   UNL     1      -9.311  14.348  68.802  1.00  0.00     0.000 HD 
BRANCH   3   5
HETATM    5  C   UNL     1      -9.767  16.348  68.343  1.00  0.00    -0.229 A  
HETATM    6  C   UNL     1      -8.467  18.143  67.471  1.00  0.00    -0.248 A  
HETATM    7  N   UNL     1      -9.224  19.126  67.972  1.00  0.00    -0.303 NA 
HETATM    8  C   UNL     1      -6.893  17.025  66.407  1.00  0.00    -0.213 A  
HETATM    9  H   UNL     1      -7.532  15.077  66.866  1.00  0.00     0.000 HD 
HETATM   10  N   UNL     1      -7.652  16.088  66.936  1.00  0.00    -0.232 NA 
HETATM   11  C   UNL     1     -10.255  18.613  68.673  1.00  0.00    -0.313 A  
HETATM   12  C   UNL     1      -8.645  16.777  67.606  1.00  0.00    -0.206 A  
HETATM   13  N   UNL     1      -7.352  18.282  66.699  1.00  0.00    -0.212 NA 
HETATM   14  N   UNL     1     -10.564  17.313  68.881  1.00  0.00    -0.314 NA 
ENDBRANCH   3   5
ENDBRANCH   2   3
BRANCH   2  15
HETATM   15  C   UNL     1     -11.590  13.183  69.034  1.00  0.00    -0.312 C  
HETATM   16  O   UNL     1     -12.853  11.500  71.967  1.00  0.00    -0.350 OA 
HETATM   17  C   UNL     1     -11.090  12.117  68.378  1.00  0.00    -0.289 C  
HETATM   18  C   UNL     1     -11.046  10.790  68.957  1.00  0.00    -0.308 A  
HETATM   19  N   UNL     1     -12.152  13.006  70.319  1.00  0.00    -0.350 N  
HETATM   20  C   UNL     1     -10.362   9.778  68.267  1.00  0.00    -0.231 A  
HETATM   21  C   UNL     1     -12.271  11.700  70.902  1.00  0.00    -0.298 C  
HETATM   22  C   UNL     1     -11.654  10.539  70.190  1.00  0.00    -0.408 A  
HETATM   23 CL   UNL     1     -12.354   8.715  72.175  1.00  0.00    -0.427 Cl 
HETATM   24  C   UNL     1     -10.282   8.498  68.798  1.00  0.00    -0.217 A  
HETATM   25  C   UNL     1     -10.913   8.225  70.007  1.00  0.00    -0.197 A  
HETATM   26  C   UNL     1     -11.606   9.229  70.701  1.00  0.00    -0.252 A  
BRANCH  19  27
HETATM   27  C   UNL     1     -12.605  14.077  71.167  1.00  0.00    -0.371 A  
HETATM   28  C   UNL     1     -11.653  14.854  71.853  1.00  0.00    -0.335 A  
HETATM   29  C   UNL     1     -12.044  15.912  72.682  1.00  0.00    -0.615 A  
HETATM   30  C   UNL     1     -13.396  16.205  72.842  1.00  0.00    -0.389 A  
HETATM   31  C   UNL     1     -14.353  15.421  72.192  1.00  0.00    -0.642 A  
HETATM   32  C   UNL     1     -13.960  14.350  71.377  1.00  0.00    -0.395 A  
ENDBRANCH  19  27
ENDBRANCH   2  15
TORSDOF 4
ENDMDL
MODEL       19
REMARK 921   NORMALIZED FREE ENERGY PREDICTED BY IDOCK:   -7.80 KCAL/MOL
REMARK 922        TOTAL FREE ENERGY PREDICTED BY IDOCK:  -10.49 KCAL/MOL
REMARK 923 INTER-LIGAND FREE ENERGY PREDICTED BY IDOCK:   -9.35 KCAL/MOL
REMARK 924 INTRA-LIGAND FREE ENERGY PREDICTED BY IDOCK:   -1.14 KCAL/MOL
REMARK 927      BINDING AFFINITY PREDICTED BY RF-SCORE:    0.00 PKD
ROOT
HETATM    1  C   UNL     1     -11.593  14.377  70.165  1.00  0.00    -0.327 C  
HETATM    2  C   UNL     1     -11.447  13.275  69.117  1.00  0.00    -0.305 C  
ENDROOT
BRANCH   2   3
HETATM    3  N   UNL     1     -12.347  13.424  67.982  1.00  0.00    -0.180 NA 
HETATM    4  H   UNL     1     -13.279  13.011  68.002  1.00  0.00     0.000 HD 
BRANCH   3   5
HETATM    5  C   UNL     1     -11.915  14.140  66.868  1.00  0.00    -0.449 A  
HETATM    6  C   UNL     1     -11.714  14.477  64.519  1.00  0.00    -0.410 A  
HETATM    7  N   UNL     1     -11.039  15.631  64.597  1.00  0.00    -0.421 NA 
HETATM    8  C   UNL     1     -12.772  12.698  63.759  1.00  0.00    -0.241 A  
HETATM    9  H   UNL     1     -13.262  11.820  65.604  1.00  0.00     0.000 HD 
HETATM   10  N   UNL     1     -12.828  12.572  65.069  1.00  0.00    -0.758 NA 
HETATM   11  C   UNL     1     -10.833  15.967  65.885  1.00  0.00    -0.233 A  
HETATM   12  C   UNL     1     -12.168  13.684  65.558  1.00  0.00    -0.443 A  
HETATM   13  N   UNL     1     -12.114  13.839  63.383  1.00  0.00    -0.523 NA 
HETATM   14  N   UNL     1     -11.224  15.306  66.998  1.00  0.00    -0.312 NA 
ENDBRANCH   3   5
ENDBRANCH   2   3
BRANCH   2  15
HETATM   15  C   UNL     1     -11.459  11.804  69.570  1.00  0.00    -0.295 C  
HETATM   16  O   UNL     1     -10.159   8.476  69.059  1.00  0.00    -0.189 OA 
HETATM   17  C   UNL     1     -12.293  11.550  70.597  1.00  0.00    -0.457 C  
HETATM   18  C   UNL     1     -12.549  10.211  71.086  1.00  0.00    -0.486 A  
HETATM   19  N   UNL     1     -10.751  10.738  68.970  1.00  0.00    -0.213 N  
HETATM   20  C   UNL     1     -13.552  10.027  72.049  1.00  0.00    -0.366 A  
HETATM   21  C   UNL     1     -10.845   9.404  69.487  1.00  0.00    -0.213 C  
HETATM   22  C   UNL     1     -11.822   9.127  70.585  1.00  0.00    -0.222 A  
HETATM   23 CL   UNL     1     -11.250   6.403  70.658  1.00  0.00    -0.373 Cl 
HETATM   24  C   UNL     1     -13.839   8.757  72.529  1.00  0.00    -0.431 A  
HETATM   25  C   UNL     1     -13.099   7.673  72.066  1.00  0.00    -0.214 A  
HETATM   26  C   UNL     1     -12.088   7.849  71.108  1.00  0.00    -0.276 A  
BRANCH  19  27
HETATM   27  C   UNL     1      -9.930  10.862  67.794  1.00  0.00    -0.176 A  
HETATM   28  C   UNL     1     -10.467  10.503  66.545  1.00  0.00    -0.276 A  
HETATM   29  C   UNL     1      -9.711  10.615  65.372  1.00  0.00    -0.306 A  
HETATM   30  C   UNL     1      -8.401  11.083  65.434  1.00  0.00     0.010 A  
HETATM   31  C   UNL     1      -7.844  11.412  66.672  1.00  0.00    -0.137 A  
HETATM   32  C   UNL     1      -8.598  11.282  67.847  1.00  0.00    -0.134 A  
ENDBRANCH  19  27
ENDBRANCH   2  15
TORSDOF 4
ENDMDL
MODEL       20
REMARK 921   NORMALIZED FREE ENERGY PREDICTED BY IDOCK:   -7.76 KCAL/MOL
REMARK 922        TOTAL FREE ENERGY PREDICTED BY IDOCK:  -10.45 KCAL/MOL
REMARK 923 INTER-LIGAND FREE ENERGY PREDICTED BY IDOCK:   -8.95 KCAL/MOL
REMARK 924 INTRA-LIGAND FREE ENERGY PREDICTED BY IDOCK:   -1.50 KCAL/MOL
REMARK 927      BINDING AFFINITY PREDICTED BY RF-SCORE:    0.00 PKD
ROOT
HETATM    1  C   UNL     1     -13.710   8.650  71.965  1.00  0.00    -0.470 C  
HETATM    2  C   UNL     1     -12.408   9.189  71.375  1.00  0.00    -0.333 C  
ENDROOT
BRANCH   2   3
HETATM    3  N   UNL     1     -11.233   8.896  72.186  1.00  0.00    -0.345 NA 
HETATM    4  H   UNL     1     -11.105   9.342  73.094  1.00  0.00     0.000 HD 
BRANCH   3   5
HETATM    5  C   UNL     1     -10.288   7.995  71.701  1.00  0.00    -0.214 A  
HETATM    6  C   UNL     1      -8.141   6.964  71.728  1.00  0.00    -0.101 A  
HETATM    7  N   UNL     1      -8.370   6.128  70.707  1.00  0.00    -0.125 NA 
HETATM    8  C   UNL     1      -7.195   8.035  73.406  1.00  0.00    -0.129 A  
HETATM    9  H   UNL     1      -8.791   9.310  73.898  1.00  0.00     0.000 HD 
HETATM   10  N   UNL     1      -8.396   8.569  73.319  1.00  0.00    -0.395 NA 
HETATM   11  C   UNL     1      -9.615   6.308  70.225  1.00  0.00    -0.164 A  
HETATM   12  C   UNL     1      -9.001   7.904  72.269  1.00  0.00    -0.156 A  
HETATM   13  N   UNL     1      -7.001   7.056  72.469  1.00  0.00    -0.065 NA 
HETATM   14  N   UNL     1     -10.566   7.170  70.653  1.00  0.00    -0.222 NA 
ENDBRANCH   3   5
ENDBRANCH   2   3
BRANCH   2  15
HETATM   15  C   UNL     1     -12.342  10.658  70.923  1.00  0.00    -0.401 C  
HETATM   16  O   UNL     1     -11.010  13.031  68.551  1.00  0.00    -0.243 OA 
HETATM   17  C   UNL     1     -13.061  11.504  71.686  1.00  0.00    -0.478 C  
HETATM   18  C   UNL     1     -13.029  12.941  71.508  1.00  0.00    -0.388 A  
HETATM   19  N   UNL     1     -11.564  11.173  69.861  1.00  0.00    -0.310 N  
HETATM   20  C   UNL     1     -13.681  13.750  72.451  1.00  0.00    -0.692 A  
HETATM   21  C   UNL     1     -11.588  12.569  69.534  1.00  0.00    -0.281 C  
HETATM   22  C   UNL     1     -12.340  13.502  70.429  1.00  0.00    -0.397 A  
HETATM   23 CL   UNL     1     -11.616  15.768  68.981  1.00  0.00    -0.386 Cl 
HETATM   24  C   UNL     1     -13.657  15.132  72.324  1.00  0.00    -0.566 A  
HETATM   25  C   UNL     1     -13.005  15.703  71.236  1.00  0.00    -0.556 A  
HETATM   26  C   UNL     1     -12.356  14.901  70.284  1.00  0.00    -0.341 A  
BRANCH  19  27
HETATM   27  C   UNL     1     -10.662  10.391  69.056  1.00  0.00    -0.228 A  
HETATM   28  C   UNL     1      -9.305  10.323  69.420  1.00  0.00    -0.217 A  
HETATM   29  C   UNL     1      -8.392   9.568  68.675  1.00  0.00    -0.117 A  
HETATM   30  C   UNL     1      -8.823   8.874  67.546  1.00  0.00    -0.135 A  
HETATM   31  C   UNL     1     -10.161   8.960  67.155  1.00  0.00    -0.339 A  
HETATM   32  C   UNL     1     -11.070   9.731  67.893  1.00  0.00    -0.161 A  
ENDBRANCH  19  27
ENDBRANCH   2  15
TORSDOF 4
ENDMDL
MODEL       21
REMARK 921   NORMALIZED FREE ENERGY PREDICTED BY IDOCK:   -7.63 KCAL/MOL
REMARK 922        TOTAL FREE ENERGY PREDICTED BY IDOCK:  -10.29 KCAL/MOL
REMARK 923 INTER-LIGAND FREE ENERGY PREDICTED BY IDOCK:   -9.43 KCAL/MOL
REMARK 924 INTRA-LIGAND FREE ENERGY PREDICTED BY IDOCK:   -0.86 KCAL/MOL
REMARK 927      BINDING AFFINITY PREDICTED BY RF-SCORE:    0.00 PKD
ROOT
HETATM    1  C   UNL     1      -8.797  12.223  67.763  1.00  0.00    -0.174 C  
HETATM    2  C   UNL     1      -9.826  13.172  68.375  1.00  0.00    -0.206 C  
ENDROOT
BRANCH   2   3
HETATM    3  N   UNL     1     -11.173  12.619  68.425  1.00  0.00    -0.258 NA 
HETATM    4  H   UNL     1     -11.577  12.162  67.608  1.00  0.00     0.000 HD 
BRANCH   3   5
HETATM    5  C   UNL     1     -11.902  12.727  69.607  1.00  0.00    -0.317 A  
HETATM    6  C   UNL     1     -12.969  11.800  71.524  1.00  0.00    -0.341 A  
HETATM    7  N   UNL     1     -13.376  12.967  72.040  1.00  0.00    -0.494 NA 
HETATM    8  C   UNL     1     -12.581   9.653  71.210  1.00  0.00    -0.352 A  
HETATM    9  H   UNL     1     -11.533   9.792  69.394  1.00  0.00     0.000 HD 
HETATM   10  N   UNL     1     -12.027  10.237  70.168  1.00  0.00    -0.254 NA 
HETATM   11  C   UNL     1     -12.999  13.987  71.245  1.00  0.00    -0.347 A  
HETATM   12  C   UNL     1     -12.263  11.587  70.354  1.00  0.00    -0.355 A  
HETATM   13  N   UNL     1     -13.156  10.561  72.059  1.00  0.00    -0.464 NA 
HETATM   14  N   UNL     1     -12.301  13.937  70.088  1.00  0.00    -0.342 NA 
ENDBRANCH   3   5
ENDBRANCH   2   3
BRANCH   2  15
HETATM   15  C   UNL     1      -9.904  14.622  67.865  1.00  0.00    -0.217 C  
HETATM   16  O   UNL     1     -11.000  16.846  65.243  1.00  0.00    -0.413 OA 
HETATM   17  C   UNL     1      -9.340  15.527  68.688  1.00  0.00    -0.201 C  
HETATM   18  C   UNL     1      -9.194  16.924  68.335  1.00  0.00    -0.253 A  
HETATM   19  N   UNL     1     -10.433  15.046  66.625  1.00  0.00    -0.278 N  
HETATM   20  C   UNL     1      -8.450  17.758  69.183  1.00  0.00     0.117 A  
HETATM   21  C   UNL     1     -10.450  16.434  66.263  1.00  0.00    -0.293 C  
HETATM   22  C   UNL     1      -9.764  17.416  67.157  1.00  0.00    -0.267 A  
HETATM   23 CL   UNL     1     -10.302  19.584  65.494  1.00  0.00    -0.296 Cl 
HETATM   24  C   UNL     1      -8.271  19.098  68.869  1.00  0.00    -0.330 A  
HETATM   25  C   UNL     1      -8.863  19.610  67.718  1.00  0.00    -0.379 A  
HETATM   26  C   UNL     1      -9.615  18.785  66.867  1.00  0.00    -0.309 A  
BRANCH  19  27
HETATM   27  C   UNL     1     -10.948  14.162  65.612  1.00  0.00    -0.308 A  
HETATM   28  C   UNL     1     -10.049  13.548  64.720  1.00  0.00    -0.267 A  
HETATM   29  C   UNL     1     -10.500  12.674  63.725  1.00  0.00    -0.411 A  
HETATM   30  C   UNL     1     -11.862  12.406  63.601  1.00  0.00    -0.610 A  
HETATM   31  C   UNL     1     -12.768  13.035  64.459  1.00  0.00    -0.318 A  
HETATM   32  C   UNL     1     -12.315  13.924  65.444  1.00  0.00    -0.494 A  
ENDBRANCH  19  27
ENDBRANCH   2  15
TORSDOF 4
ENDMDL
MODEL       22
REMARK 921   NORMALIZED FREE ENERGY PREDICTED BY IDOCK:   -7.62 KCAL/MOL
REMARK 922        TOTAL FREE ENERGY PREDICTED BY IDOCK:  -10.27 KCAL/MOL
REMARK 923 INTER-LIGAND FREE ENERGY PREDICTED BY IDOCK:   -8.90 KCAL/MOL
REMARK 924 INTRA-LIGAND FREE ENERGY PREDICTED BY IDOCK:   -1.38 KCAL/MOL
REMARK 927      BINDING AFFINITY PREDICTED BY RF-SCORE:    0.00 PKD
ROOT
HETATM    1  C   UNL     1     -10.413  14.013  64.945  1.00  0.00    -0.453 C  
HETATM    2  C   UNL     1      -9.906  14.621  66.251  1.00  0.00    -0.300 C  
ENDROOT
BRANCH   2   3
HETATM    3  N   UNL     1      -8.512  14.310  66.539  1.00  0.00    -0.387 NA 
HETATM    4  H   UNL     1      -8.072  13.483  66.137  1.00  0.00     0.000 HD 
BRANCH   3   5
HETATM    5  C   UNL     1      -7.790  15.161  67.371  1.00  0.00    -0.198 A  
HETATM    6  C   UNL     1      -6.733  17.237  67.869  1.00  0.00    -0.164 A  
HETATM    7  N   UNL     1      -6.328  16.900  69.101  1.00  0.00    -0.191 NA 
HETATM    8  C   UNL     1      -7.120  18.349  66.006  1.00  0.00    -0.272 A  
HETATM    9  H   UNL     1      -8.158  16.850  64.962  1.00  0.00     0.000 HD 
HETATM   10  N   UNL     1      -7.668  17.170  65.798  1.00  0.00    -0.335 NA 
HETATM   11  C   UNL     1      -6.700  15.638  69.387  1.00  0.00    -0.180 A  
HETATM   12  C   UNL     1      -7.433  16.462  66.961  1.00  0.00    -0.215 A  
HETATM   13  N   UNL     1      -6.550  18.436  67.248  1.00  0.00    -0.193 NA 
HETATM   14  N   UNL     1      -7.393  14.770  68.614  1.00  0.00    -0.116 NA 
ENDBRANCH   3   5
ENDBRANCH   2   3
BRANCH   2  15
HETATM   15  C   UNL     1     -10.731  14.430  67.536  1.00  0.00    -0.271 C  
HETATM   16  O   UNL     1     -12.354  16.010  70.345  1.00  0.00    -0.297 OA 
HETATM   17  C   UNL     1     -11.018  13.145  67.821  1.00  0.00    -0.272 C  
HETATM   18  C   UNL     1     -11.672  12.742  69.050  1.00  0.00    -0.371 A  
HETATM   19  N   UNL     1     -11.128  15.446  68.434  1.00  0.00    -0.285 N  
HETATM   20  C   UNL     1     -11.783  11.372  69.334  1.00  0.00    -0.406 A  
HETATM   21  C   UNL     1     -11.901  15.140  69.604  1.00  0.00    -0.334 C  
HETATM   22  C   UNL     1     -12.155  13.705  69.939  1.00  0.00    -0.406 A  
HETATM   23 CL   UNL     1     -13.521  14.307  72.291  1.00  0.00    -0.501 Cl 
HETATM   24  C   UNL     1     -12.386  10.947  70.510  1.00  0.00    -0.463 A  
HETATM   25  C   UNL     1     -12.905  11.894  71.387  1.00  0.00    -0.411 A  
HETATM   26  C   UNL     1     -12.804  13.266  71.108  1.00  0.00    -0.280 A  
BRANCH  19  27
HETATM   27  C   UNL     1     -10.776  16.835  68.304  1.00  0.00    -0.364 A  
HETATM   28  C   UNL     1     -11.086  17.510  67.108  1.00  0.00     0.194 A  
HETATM   29  C   UNL     1     -10.771  18.863  66.938  1.00  0.00    -0.447 A  
HETATM   30  C   UNL     1     -10.134  19.562  67.961  1.00  0.00    -0.531 A  
HETATM   31  C   UNL     1      -9.792  18.896  69.140  1.00  0.00    -0.292 A  
HETATM   32  C   UNL     1     -10.092  17.535  69.302  1.00  0.00    -0.157 A  
ENDBRANCH  19  27
ENDBRANCH   2  15
TORSDOF 4
ENDMDL
MODEL       23
REMARK 921   NORMALIZED FREE ENERGY PREDICTED BY IDOCK:   -7.60 KCAL/MOL
REMARK 922        TOTAL FREE ENERGY PREDICTED BY IDOCK:  -10.25 KCAL/MOL
REMARK 923 INTER-LIGAND FREE ENERGY PREDICTED BY IDOCK:   -9.36 KCAL/MOL
REMARK 924 INTRA-LIGAND FREE ENERGY PREDICTED BY IDOCK:   -0.89 KCAL/MOL
REMARK 927      BINDING AFFINITY PREDICTED BY RF-SCORE:    0.00 PKD
ROOT
HETATM    1  C   UNL     1      -7.384  12.017  67.220  1.00  0.00    -0.151 C  
HETATM    2  C   UNL     1      -8.862  12.283  66.935  1.00  0.00    -0.207 C  
ENDROOT
BRANCH   2   3
HETATM    3  N   UNL     1      -9.095  13.450  66.094  1.00  0.00    -0.468 NA 
HETATM    4  H   UNL     1      -8.446  14.236  66.107  1.00  0.00     0.000 HD 
BRANCH   3   5
HETATM    5  C   UNL     1     -10.219  13.474  65.273  1.00  0.00    -0.306 A  
HETATM    6  C   UNL     1     -11.953  14.606  64.095  1.00  0.00    -0.292 A  
HETATM    7  N   UNL     1     -12.510  13.507  63.569  1.00  0.00    -0.748 NA 
HETATM    8  C   UNL     1     -11.504  16.699  64.620  1.00  0.00     0.152 A  
HETATM    9  H   UNL     1      -9.838  16.357  65.854  1.00  0.00     0.000 HD 
HETATM   10  N   UNL     1     -10.585  16.003  65.255  1.00  0.00    -0.504 NA 
HETATM   11  C   UNL     1     -11.843  12.407  63.969  1.00  0.00    -0.439 A  
HETATM   12  C   UNL     1     -10.854  14.686  64.933  1.00  0.00    -0.419 A  
HETATM   13  N   UNL     1     -12.347  15.896  63.900  1.00  0.00    -0.705 NA 
HETATM   14  N   UNL     1     -10.755  12.328  64.768  1.00  0.00    -0.287 NA 
ENDBRANCH   3   5
ENDBRANCH   2   3
BRANCH   2  15
HETATM   15  C   UNL     1      -9.858  12.310  68.107  1.00  0.00    -0.212 C  
HETATM   16  O   UNL     1     -11.730  10.391  70.524  1.00  0.00    -0.291 OA 
HETATM   17  C   UNL     1     -10.271  13.545  68.452  1.00  0.00    -0.245 C  
HETATM   18  C   UNL     1     -11.303  13.778  69.441  1.00  0.00    -0.306 A  
HETATM   19  N   UNL     1     -10.400  11.186  68.771  1.00  0.00    -0.199 N  
HETATM   20  C   UNL     1     -11.783  15.085  69.616  1.00  0.00    -0.353 A  
HETATM   21  C   UNL     1     -11.324  11.342  69.857  1.00  0.00    -0.249 C  
HETATM   22  C   UNL     1     -11.822  12.714  70.183  1.00  0.00    -0.326 A  
HETATM   23 CL   UNL     1     -13.516  11.818  72.203  1.00  0.00    -0.453 Cl 
HETATM   24  C   UNL     1     -12.784  15.346  70.542  1.00  0.00    -0.455 A  
HETATM   25  C   UNL     1     -13.284  14.302  71.313  1.00  0.00    -0.412 A  
HETATM   26  C   UNL     1     -12.805  12.992  71.149  1.00  0.00    -0.245 A  
BRANCH  19  27
HETATM   27  C   UNL     1     -10.132   9.818  68.412  1.00  0.00    -0.166 A  
HETATM   28  C   UNL     1     -10.739   9.281  67.261  1.00  0.00    -0.244 A  
HETATM   29  C   UNL     1     -10.501   7.960  66.867  1.00  0.00    -0.388 A  
HETATM   30  C   UNL     1      -9.657   7.151  67.623  1.00  0.00    -0.152 A  
HETATM   31  C   UNL     1      -9.074   7.660  68.786  1.00  0.00    -0.139 A  
HETATM   32  C   UNL     1      -9.327   8.979  69.189  1.00  0.00    -0.148 A  
ENDBRANCH  19  27
ENDBRANCH   2  15
TORSDOF 4
ENDMDL
MODEL       24
REMARK 921   NORMALIZED FREE ENERGY PREDICTED BY IDOCK:   -7.56 KCAL/MOL
REMARK 922        TOTAL FREE ENERGY PREDICTED BY IDOCK:  -10.20 KCAL/MOL
REMARK 923 INTER-LIGAND FREE ENERGY PREDICTED BY IDOCK:   -8.87 KCAL/MOL
REMARK 924 INTRA-LIGAND FREE ENERGY PREDICTED BY IDOCK:   -1.33 KCAL/MOL
REMARK 927      BINDING AFFINITY PREDICTED BY RF-SCORE:    0.00 PKD
ROOT
HETATM    1  C   UNL     1     -13.633   7.245  71.381  1.00  0.00    -0.399 C  
HETATM    2  C   UNL     1     -12.340   8.027  71.609  1.00  0.00    -0.314 C  
ENDROOT
BRANCH   2   3
HETATM    3  N   UNL     1     -11.852   7.963  72.981  1.00  0.00    -0.633 NA 
HETATM    4  H   UNL     1     -12.386   8.384  73.741  1.00  0.00     0.000 HD 
BRANCH   3   5
HETATM    5  C   UNL     1     -10.644   7.319  73.236  1.00  0.00    -0.382 A  
HETATM    6  C   UNL     1      -9.320   5.371  73.587  1.00  0.00    -0.133 A  
HETATM    7  N   UNL     1      -8.155   6.014  73.739  1.00  0.00    -0.108 NA 
HETATM    8  C   UNL     1     -10.856   3.798  73.419  1.00  0.00    -0.222 A  
HETATM    9  H   UNL     1     -12.524   5.030  73.081  1.00  0.00     0.000 HD 
HETATM   10  N   UNL     1     -11.523   4.920  73.250  1.00  0.00    -0.333 NA 
HETATM   11  C   UNL     1      -8.338   7.345  73.631  1.00  0.00    -0.149 A  
HETATM   12  C   UNL     1     -10.570   5.916  73.352  1.00  0.00    -0.258 A  
HETATM   13  N   UNL     1      -9.520   4.023  73.619  1.00  0.00    -0.103 NA 
HETATM   14  N   UNL     1      -9.486   8.018  73.392  1.00  0.00    -0.271 NA 
ENDBRANCH   3   5
ENDBRANCH   2   3
BRANCH   2  15
HETATM   15  C   UNL     1     -12.249   9.483  71.118  1.00  0.00    -0.338 C  
HETATM   16  O   UNL     1     -10.719  11.802  68.814  1.00  0.00    -0.211 OA 
HETATM   17  C   UNL     1     -13.050  10.340  71.780  1.00  0.00    -0.570 C  
HETATM   18  C   UNL     1     -13.019  11.771  71.560  1.00  0.00    -0.446 A  
HETATM   19  N   UNL     1     -11.376   9.976  70.122  1.00  0.00    -0.274 N  
HETATM   20  C   UNL     1     -13.771  12.598  72.408  1.00  0.00    -0.377 A  
HETATM   21  C   UNL     1     -11.386  11.362  69.750  1.00  0.00    -0.255 C  
HETATM   22  C   UNL     1     -12.233  12.309  70.537  1.00  0.00    -0.387 A  
HETATM   23 CL   UNL     1     -11.399  14.542  69.096  1.00  0.00    -0.283 Cl 
HETATM   24  C   UNL     1     -13.752  13.976  72.240  1.00  0.00    -0.646 A  
HETATM   25  C   UNL     1     -13.003  14.524  71.203  1.00  0.00    -0.414 A  
HETATM   26  C   UNL     1     -12.253  13.703  70.346  1.00  0.00    -0.363 A  
BRANCH  19  27
HETATM   27  C   UNL     1     -10.390   9.185  69.435  1.00  0.00    -0.216 A  
HETATM   28  C   UNL     1      -9.107   9.052  69.998  1.00  0.00    -0.187 A  
HETATM   29  C   UNL     1      -8.118   8.285  69.372  1.00  0.00    -0.115 A  
HETATM   30  C   UNL     1      -8.395   7.643  68.167  1.00  0.00    -0.124 A  
HETATM   31  C   UNL     1      -9.654   7.794  67.581  1.00  0.00    -0.177 A  
HETATM   32  C   UNL     1     -10.638   8.577  68.201  1.00  0.00    -0.181 A  
ENDBRANCH  19  27
ENDBRANCH   2  15
TORSDOF 4
ENDMDL
MODEL       25
REMARK 921   NORMALIZED FREE ENERGY PREDICTED BY IDOCK:   -7.52 KCAL/MOL
REMARK 922        TOTAL FREE ENERGY PREDICTED BY IDOCK:  -10.16 KCAL/MOL
REMARK 923 INTER-LIGAND FREE ENERGY PREDICTED BY IDOCK:   -9.77 KCAL/MOL
REMARK 924 INTRA-LIGAND FREE ENERGY PREDICTED BY IDOCK:   -0.38 KCAL/MOL
REMARK 927      BINDING AFFINITY PREDICTED BY RF-SCORE:    0.00 PKD
ROOT
HETATM    1  C   UNL     1      -9.588  14.366  66.066  1.00  0.00    -0.292 C  
HETATM    2  C   UNL     1      -9.560  13.436  67.278  1.00  0.00    -0.234 C  
ENDROOT
BRANCH   2   3
HETATM    3  N   UNL     1      -9.643  12.023  66.933  1.00  0.00    -0.199 NA 
HETATM    4  H   UNL     1      -9.569  11.307  67.656  1.00  0.00     0.000 HD 
BRANCH   3   5
HETATM    5  C   UNL     1      -9.825  11.664  65.600  1.00  0.00    -0.240 A  
HETATM    6  C   UNL     1     -11.124  11.512  63.610  1.00  0.00    -0.385 A  
HETATM    7  N   UNL     1     -10.172  10.942  62.859  1.00  0.00    -0.155 NA 
HETATM    8  C   UNL     1     -13.018  12.412  64.290  1.00  0.00    -0.157 A  
HETATM    9  H   UNL     1     -12.475  12.808  66.280  1.00  0.00     0.000 HD 
HETATM   10  N   UNL     1     -12.244  12.447  65.354  1.00  0.00    -0.579 NA 
HETATM   11  C   UNL     1      -9.053  10.757  63.586  1.00  0.00    -0.212 A  
HETATM   12  C   UNL     1     -11.050  11.886  64.940  1.00  0.00    -0.307 A  
HETATM   13  N   UNL     1     -12.380  11.862  63.210  1.00  0.00    -0.507 NA 
HETATM   14  N   UNL     1      -8.828  11.079  64.880  1.00  0.00    -0.116 NA 
ENDBRANCH   3   5
ENDBRANCH   2   3
BRANCH   2  15
HETATM   15  C   UNL     1     -10.508  13.714  68.458  1.00  0.00    -0.244 C  
HETATM   16  O   UNL     1     -11.971  16.191  70.637  1.00  0.00    -0.320 OA 
HETATM   17  C   UNL     1     -11.089  12.612  68.970  1.00  0.00    -0.291 C  
HETATM   18  C   UNL     1     -11.912  12.642  70.162  1.00  0.00    -0.375 A  
HETATM   19  N   UNL     1     -10.746  14.969  69.061  1.00  0.00    -0.231 N  
HETATM   20  C   UNL     1     -12.340  11.425  70.714  1.00  0.00    -0.483 A  
HETATM   21  C   UNL     1     -11.659  15.100  70.161  1.00  0.00    -0.292 C  
HETATM   22  C   UNL     1     -12.245  13.861  70.758  1.00  0.00    -0.441 A  
HETATM   23 CL   UNL     1     -13.633  15.249  72.734  1.00  0.00    -0.587 Cl 
HETATM   24  C   UNL     1     -13.114  11.412  71.866  1.00  0.00    -0.505 A  
HETATM   25  C   UNL     1     -13.484  12.620  72.449  1.00  0.00    -0.450 A  
HETATM   26  C   UNL     1     -13.065  13.842  71.900  1.00  0.00    -0.388 A  
BRANCH  19  27
HETATM   27  C   UNL     1     -10.091  16.194  68.685  1.00  0.00    -0.231 A  
HETATM   28  C   UNL     1      -8.743  16.385  69.041  1.00  0.00    -0.233 A  
HETATM   29  C   UNL     1      -8.061  17.555  68.689  1.00  0.00    -0.263 A  
HETATM   30  C   UNL     1      -8.720  18.557  67.980  1.00  0.00    -0.313 A  
HETATM   31  C   UNL     1     -10.067  18.394  67.650  1.00  0.00    -0.378 A  
HETATM   32  C   UNL     1     -10.754  17.229  68.019  1.00  0.00    -0.367 A  
ENDBRANCH  19  27
ENDBRANCH   2  15
TORSDOF 4
ENDMDL
MODEL       26
REMARK 921   NORMALIZED FREE ENERGY PREDICTED BY IDOCK:   -7.47 KCAL/MOL
REMARK 922        TOTAL FREE ENERGY PREDICTED BY IDOCK:  -10.09 KCAL/MOL
REMARK 923 INTER-LIGAND FREE ENERGY PREDICTED BY IDOCK:   -9.27 KCAL/MOL
REMARK 924 INTRA-LIGAND FREE ENERGY PREDICTED BY IDOCK:   -0.82 KCAL/MOL
REMARK 927      BINDING AFFINITY PREDICTED BY RF-SCORE:    0.00 PKD
ROOT
HETATM    1  C   UNL     1     -11.094  15.628  64.770  1.00  0.00    -0.426 C  
HETATM    2  C   UNL     1     -10.917  14.500  65.785  1.00  0.00    -0.319 C  
ENDROOT
BRANCH   2   3
HETATM    3  N   UNL     1     -11.583  13.261  65.404  1.00  0.00    -0.312 NA 
HETATM    4  H   UNL     1     -12.588  13.153  65.532  1.00  0.00     0.000 HD 
BRANCH   3   5
HETATM    5  C   UNL     1     -10.823  12.227  64.863  1.00  0.00    -0.302 A  
HETATM    6  C   UNL     1      -9.723  10.119  64.995  1.00  0.00    -0.318 A  
HETATM    7  N   UNL     1      -9.284  10.106  63.729  1.00  0.00    -0.264 NA 
HETATM    8  C   UNL     1     -10.153   9.564  67.084  1.00  0.00    -0.229 A  
HETATM    9  H   UNL     1     -11.244  11.272  67.639  1.00  0.00     0.000 HD 
HETATM   10  N   UNL     1     -10.723  10.742  66.939  1.00  0.00    -0.262 NA 
HETATM   11  C   UNL     1      -9.665  11.230  63.091  1.00  0.00    -0.386 A  
HETATM   12  C   UNL     1     -10.462  11.101  65.630  1.00  0.00    -0.248 A  
HETATM   13  N   UNL     1      -9.542   9.146  65.932  1.00  0.00    -0.271 NA 
HETATM   14  N   UNL     1     -10.393  12.264  63.571  1.00  0.00    -0.432 NA 
ENDBRANCH   3   5
ENDBRANCH   2   3
BRANCH   2  15
HETATM   15  C   UNL     1     -11.201  14.778  67.272  1.00  0.00    -0.346 C  
HETATM   16  O   UNL     1     -10.883  17.088  70.026  1.00  0.00    -0.130 OA 
HETATM   17  C   UNL     1     -11.842  13.778  67.907  1.00  0.00    -0.413 C  
HETATM   18  C   UNL     1     -12.087  13.787  69.335  1.00  0.00    -0.377 A  
HETATM   19  N   UNL     1     -10.796  15.918  68.002  1.00  0.00    -0.307 N  
HETATM   20  C   UNL     1     -12.614  12.632  69.934  1.00  0.00     0.166 A  
HETATM   21  C   UNL     1     -11.125  16.063  69.391  1.00  0.00    -0.331 C  
HETATM   22  C   UNL     1     -11.778  14.917  70.096  1.00  0.00    -0.340 A  
HETATM   23 CL   UNL     1     -11.802  16.210  72.562  1.00  0.00    -0.624 Cl 
HETATM   24  C   UNL     1     -12.846  12.596  71.302  1.00  0.00    -0.344 A  
HETATM   25  C   UNL     1     -12.577  13.727  72.066  1.00  0.00    -0.243 A  
HETATM   26  C   UNL     1     -12.056  14.888  71.475  1.00  0.00    -0.348 A  
BRANCH  19  27
HETATM   27  C   UNL     1     -10.001  16.992  67.466  1.00  0.00    -0.274 A  
HETATM   28  C   UNL     1     -10.640  18.176  67.056  1.00  0.00    -0.346 A  
HETATM   29  C   UNL     1      -9.909  19.251  66.538  1.00  0.00    -0.444 A  
HETATM   30  C   UNL     1      -8.525  19.154  66.415  1.00  0.00    -0.325 A  
HETATM   31  C   UNL     1      -7.881  17.972  66.788  1.00  0.00    -0.260 A  
HETATM   32  C   UNL     1      -8.618  16.889  67.290  1.00  0.00    -0.212 A  
ENDBRANCH  19  27
ENDBRANCH   2  15
TORSDOF 4
ENDMDL
MODEL       27
REMARK 921   NORMALIZED FREE ENERGY PREDICTED BY IDOCK:   -7.43 KCAL/MOL
REMARK 922        TOTAL FREE ENERGY PREDICTED BY IDOCK:  -10.04 KCAL/MOL
REMARK 923 INTER-LIGAND FREE ENERGY PREDICTED BY IDOCK:   -9.17 KCAL/MOL
REMARK 924 INTRA-LIGAND FREE ENERGY PREDICTED BY IDOCK:   -0.87 KCAL/MOL
REMARK 927      BINDING AFFINITY PREDICTED BY RF-SCORE:    0.00 PKD
ROOT
HETATM    1  C   UNL     1     -12.035  13.365  66.300  1.00  0.00    -0.460 C  
HETATM    2  C   UNL     1     -11.287  14.054  67.440  1.00  0.00    -0.329 C  
ENDROOT
BRANCH   2   3
HETATM    3  N   UNL     1     -12.160  14.571  68.485  1.00  0.00    -0.572 NA 
HETATM    4  H   UNL     1     -12.582  15.495  68.397  1.00  0.00     0.000 HD 
BRANCH   3   5
HETATM    5  C   UNL     1     -12.411  13.782  69.605  1.00  0.00    -0.232 A  
HETATM    6  C   UNL     1     -13.338  13.416  71.768  1.00  0.00    -0.394 A  
HETATM    7  N   UNL     1     -12.934  12.144  71.884  1.00  0.00    -0.362 NA 
HETATM    8  C   UNL     1     -14.259  15.381  72.156  1.00  0.00    -0.565 A  
HETATM    9  H   UNL     1     -13.704  16.339  70.370  1.00  0.00     0.000 HD 
HETATM   10  N   UNL     1     -13.705  15.513  70.968  1.00  0.00    -0.544 NA 
HETATM   11  C   UNL     1     -12.249  11.769  70.787  1.00  0.00    -0.326 A  
HETATM   12  C   UNL     1     -13.124  14.285  70.712  1.00  0.00    -0.259 A  
HETATM   13  N   UNL     1     -14.068  14.128  72.673  1.00  0.00    -0.614 NA 
HETATM   14  N   UNL     1     -11.972  12.496  69.680  1.00  0.00    -0.296 NA 
ENDBRANCH   3   5
ENDBRANCH   2   3
BRANCH   2  15
HETATM   15  C   UNL     1     -10.229  15.120  67.106  1.00  0.00    -0.247 C  
HETATM   16  O   UNL     1      -6.721  15.879  66.724  1.00  0.00    -0.249 OA 
HETATM   17  C   UNL     1     -10.740  16.334  66.822  1.00  0.00    -0.204 C  
HETATM   18  C   UNL     1      -9.911  17.503  66.609  1.00  0.00    -0.308 A  
HETATM   19  N   UNL     1      -8.826  14.948  67.143  1.00  0.00    -0.203 N  
HETATM   20  C   UNL     1     -10.533  18.754  66.481  1.00  0.00    -0.484 A  
HETATM   21  C   UNL     1      -7.940  16.025  66.808  1.00  0.00    -0.267 C  
HETATM   22  C   UNL     1      -8.520  17.380  66.559  1.00  0.00    -0.298 A  
HETATM   23 CL   UNL     1      -6.034  18.574  66.168  1.00  0.00    -0.194 Cl 
HETATM   24  C   UNL     1      -9.772  19.899  66.295  1.00  0.00    -0.551 A  
HETATM   25  C   UNL     1      -8.388  19.788  66.206  1.00  0.00    -0.383 A  
HETATM   26  C   UNL     1      -7.757  18.539  66.326  1.00  0.00    -0.254 A  
BRANCH  19  27
HETATM   27  C   UNL     1      -8.162  13.738  67.552  1.00  0.00    -0.188 A  
HETATM   28  C   UNL     1      -7.425  13.735  68.750  1.00  0.00    -0.098 A  
HETATM   29  C   UNL     1      -6.770  12.580  69.193  1.00  0.00    -0.089 A  
HETATM   30  C   UNL     1      -6.837  11.411  68.440  1.00  0.00    -0.068 A  
HETATM   31  C   UNL     1      -7.539  11.410  67.232  1.00  0.00    -0.138 A  
HETATM   32  C   UNL     1      -8.180  12.573  66.781  1.00  0.00     0.003 A  
ENDBRANCH  19  27
ENDBRANCH   2  15
TORSDOF 4
ENDMDL
MODEL       28
REMARK 921   NORMALIZED FREE ENERGY PREDICTED BY IDOCK:   -7.43 KCAL/MOL
REMARK 922        TOTAL FREE ENERGY PREDICTED BY IDOCK:  -10.04 KCAL/MOL
REMARK 923 INTER-LIGAND FREE ENERGY PREDICTED BY IDOCK:   -9.46 KCAL/MOL
REMARK 924 INTRA-LIGAND FREE ENERGY PREDICTED BY IDOCK:   -0.57 KCAL/MOL
REMARK 927      BINDING AFFINITY PREDICTED BY RF-SCORE:    0.00 PKD
ROOT
HETATM    1  C   UNL     1      -9.083  10.137  69.673  1.00  0.00    -0.195 C  
HETATM    2  C   UNL     1     -10.493  10.711  69.550  1.00  0.00    -0.204 C  
ENDROOT
BRANCH   2   3
HETATM    3  N   UNL     1     -11.545   9.715  69.703  1.00  0.00    -0.450 NA 
HETATM    4  H   UNL     1     -12.394   9.767  69.140  1.00  0.00     0.000 HD 
BRANCH   3   5
HETATM    5  C   UNL     1     -11.374   8.690  70.630  1.00  0.00    -0.247 A  
HETATM    6  C   UNL     1     -10.903   6.432  71.222  1.00  0.00    -0.257 A  
HETATM    7  N   UNL     1     -11.003   6.607  72.546  1.00  0.00    -0.237 NA 
HETATM    8  C   UNL     1     -10.598   5.542  69.228  1.00  0.00    -0.255 A  
HETATM    9  H   UNL     1     -10.945   7.259  68.068  1.00  0.00     0.000 HD 
HETATM   10  N   UNL     1     -10.881   6.804  68.979  1.00  0.00    -0.249 NA 
HETATM   11  C   UNL     1     -11.310   7.888  72.827  1.00  0.00    -0.393 A  
HETATM   12  C   UNL     1     -11.074   7.374  70.223  1.00  0.00    -0.258 A  
HETATM   13  N   UNL     1     -10.593   5.275  70.571  1.00  0.00    -0.242 NA 
HETATM   14  N   UNL     1     -11.494   8.916  71.967  1.00  0.00    -0.367 NA 
ENDBRANCH   3   5
ENDBRANCH   2   3
BRANCH   2  15
HETATM   15  C   UNL     1     -10.833  11.610  68.349  1.00  0.00    -0.219 C  
HETATM   16  O   UNL     1     -12.032  14.824  67.226  1.00  0.00    -0.362 OA 
HETATM   17  C   UNL     1     -10.631  11.030  67.150  1.00  0.00    -0.294 C  
HETATM   18  C   UNL     1     -11.010  11.658  65.901  1.00  0.00    -0.334 A  
HETATM   19  N   UNL     1     -11.384  12.911  68.406  1.00  0.00    -0.271 N  
HETATM   20  C   UNL     1     -10.911  10.912  64.716  1.00  0.00    -0.153 A  
HETATM   21  C   UNL     1     -11.657  13.653  67.209  1.00  0.00    -0.356 C  
HETATM   22  C   UNL     1     -11.488  12.971  65.889  1.00  0.00    -0.374 A  
HETATM   23 CL   UNL     1     -12.367  15.175  64.431  1.00  0.00    -0.359 Cl 
HETATM   24  C   UNL     1     -11.282  11.473  63.502  1.00  0.00    -0.412 A  
HETATM   25  C   UNL     1     -11.725  12.792  63.471  1.00  0.00    -0.597 A  
HETATM   26  C   UNL     1     -11.821  13.547  64.650  1.00  0.00    -0.394 A  
BRANCH  19  27
HETATM   27  C   UNL     1     -11.759  13.586  69.621  1.00  0.00    -0.314 A  
HETATM   28  C   UNL     1     -11.075  14.758  69.991  1.00  0.00    -0.240 A  
HETATM   29  C   UNL     1     -11.410  15.455  71.157  1.00  0.00    -0.427 A  
HETATM   30  C   UNL     1     -12.433  14.984  71.977  1.00  0.00    -0.409 A  
HETATM   31  C   UNL     1     -13.099  13.804  71.638  1.00  0.00    -0.456 A  
HETATM   32  C   UNL     1     -12.749  13.097  70.478  1.00  0.00    -0.140 A  
ENDBRANCH  19  27
ENDBRANCH   2  15
TORSDOF 4
ENDMDL
MODEL       29
REMARK 921   NORMALIZED FREE ENERGY PREDICTED BY IDOCK:   -7.40 KCAL/MOL
REMARK 922        TOTAL FREE ENERGY PREDICTED BY IDOCK:  -10.01 KCAL/MOL
REMARK 923 INTER-LIGAND FREE ENERGY PREDICTED BY IDOCK:   -8.90 KCAL/MOL
REMARK 924 INTRA-LIGAND FREE ENERGY PREDICTED BY IDOCK:   -1.11 KCAL/MOL
REMARK 927      BINDING AFFINITY PREDICTED BY RF-SCORE:    0.00 PKD
ROOT
HETATM    1  C   UNL     1     -11.021  15.713  65.111  1.00  0.00    -0.411 C  
HETATM    2  C   UNL     1     -10.307  15.530  66.449  1.00  0.00    -0.296 C  
ENDROOT
BRANCH   2   3
HETATM    3  N   UNL     1      -8.874  15.299  66.322  1.00  0.00    -0.442 NA 
HETATM    4  H   UNL     1      -8.480  14.961  65.445  1.00  0.00     0.000 HD 
BRANCH   3   5
HETATM    5  C   UNL     1      -8.052  15.549  67.418  1.00  0.00    -0.177 A  
HETATM    6  C   UNL     1      -6.686  14.848  69.239  1.00  0.00    -0.141 A  
HETATM    7  N   UNL     1      -6.350  16.079  69.648  1.00  0.00    -0.181 NA 
HETATM    8  C   UNL     1      -6.853  12.658  69.055  1.00  0.00    -0.083 A  
HETATM    9  H   UNL     1      -8.140  12.584  67.397  1.00  0.00     0.000 HD 
HETATM   10  N   UNL     1      -7.604  13.122  68.079  1.00  0.00    -0.129 NA 
HETATM   11  C   UNL     1      -6.935  17.008  68.866  1.00  0.00    -0.219 A  
HETATM   12  C   UNL     1      -7.507  14.497  68.182  1.00  0.00    -0.126 A  
HETATM   13  N   UNL     1      -6.273  13.667  69.778  1.00  0.00    -0.124 NA 
HETATM   14  N   UNL     1      -7.745  16.819  67.800  1.00  0.00    -0.166 NA 
ENDBRANCH   3   5
ENDBRANCH   2   3
BRANCH   2  15
HETATM   15  C   UNL     1     -10.880  14.534  67.473  1.00  0.00    -0.289 C  
HETATM   16  O   UNL     1     -11.852  11.125  68.152  1.00  0.00    -0.559 OA 
HETATM   17  C   UNL     1     -11.186  15.082  68.665  1.00  0.00    -0.289 C  
HETATM   18  C   UNL     1     -11.855  14.346  69.718  1.00  0.00    -0.375 A  
HETATM   19  N   UNL     1     -11.163  13.168  67.244  1.00  0.00    -0.276 N  
HETATM   20  C   UNL     1     -12.279  15.042  70.860  1.00  0.00    -0.386 A  
HETATM   21  C   UNL     1     -11.698  12.338  68.285  1.00  0.00    -0.336 C  
HETATM   22  C   UNL     1     -12.091  12.976  69.579  1.00  0.00    -0.289 A  
HETATM   23 CL   UNL     1     -13.040  10.597  70.673  1.00  0.00    -0.333 Cl 
HETATM   24  C   UNL     1     -12.940  14.375  71.882  1.00  0.00    -0.426 A  
HETATM   25  C   UNL     1     -13.150  13.004  71.773  1.00  0.00    -0.469 A  
HETATM   26  C   UNL     1     -12.723  12.298  70.638  1.00  0.00    -0.056 A  
BRANCH  19  27
HETATM   27  C   UNL     1     -10.997  12.500  65.979  1.00  0.00    -0.283 A  
HETATM   28  C   UNL     1     -12.063  12.502  65.061  1.00  0.00    -0.504 A  
HETATM   29  C   UNL     1     -11.946  11.875  63.815  1.00  0.00    -0.547 A  
HETATM   30  C   UNL     1     -10.760  11.229  63.472  1.00  0.00    -0.408 A  
HETATM   31  C   UNL     1      -9.706  11.192  64.387  1.00  0.00    -0.312 A  
HETATM   32  C   UNL     1      -9.832  11.806  65.642  1.00  0.00    -0.265 A  
ENDBRANCH  19  27
ENDBRANCH   2  15
TORSDOF 4
ENDMDL
MODEL       30
REMARK 921   NORMALIZED FREE ENERGY PREDICTED BY IDOCK:   -7.39 KCAL/MOL
REMARK 922        TOTAL FREE ENERGY PREDICTED BY IDOCK:   -9.99 KCAL/MOL
REMARK 923 INTER-LIGAND FREE ENERGY PREDICTED BY IDOCK:   -8.70 KCAL/MOL
REMARK 924 INTRA-LIGAND FREE ENERGY PREDICTED BY IDOCK:   -1.29 KCAL/MOL
REMARK 927      BINDING AFFINITY PREDICTED BY RF-SCORE:    0.00 PKD
ROOT
HETATM    1  C   UNL     1      -7.667   9.795  67.528  1.00  0.00    -0.095 C  
HETATM    2  C   UNL     1      -9.110  10.267  67.358  1.00  0.00    -0.138 C  
ENDROOT
BRANCH   2   3
HETATM    3  N   UNL     1      -9.226  11.601  66.784  1.00  0.00    -0.180 NA 
HETATM    4  H   UNL     1      -8.804  12.404  67.250  1.00  0.00     0.000 HD 
BRANCH   3   5
HETATM    5  C   UNL     1      -9.921  11.762  65.588  1.00  0.00    -0.240 A  
HETATM    6  C   UNL     1     -11.642  12.731  64.257  1.00  0.00    -0.376 A  
HETATM    7  N   UNL     1     -11.322  12.095  63.123  1.00  0.00    -0.282 NA 
HETATM    8  C   UNL     1     -12.618  14.038  65.741  1.00  0.00    -0.479 A  
HETATM    9  H   UNL     1     -11.417  13.572  67.400  1.00  0.00     0.000 HD 
HETATM   10  N   UNL     1     -11.653  13.448  66.415  1.00  0.00    -0.331 NA 
HETATM   11  C   UNL     1     -10.265  11.284  63.324  1.00  0.00    -0.368 A  
HETATM   12  C   UNL     1     -11.031  12.625  65.495  1.00  0.00    -0.279 A  
HETATM   13  N   UNL     1     -12.644  13.639  64.431  1.00  0.00    -0.654 NA 
HETATM   14  N   UNL     1      -9.562  11.086  64.462  1.00  0.00    -0.241 NA 
ENDBRANCH   3   5
ENDBRANCH   2   3
BRANCH   2  15
HETATM   15  C   UNL     1     -10.079  10.154  68.548  1.00  0.00    -0.169 C  
HETATM   16  O   UNL     1     -11.863   7.961  70.792  1.00  0.00    -0.269 OA 
HETATM   17  C   UNL     1     -10.507  11.339  69.026  1.00  0.00    -0.221 C  
HETATM   18  C   UNL     1     -11.521  11.449  70.055  1.00  0.00    -0.331 A  
HETATM   19  N   UNL     1     -10.587   8.957  69.103  1.00  0.00    -0.220 N  
HETATM   20  C   UNL     1     -12.019  12.721  70.373  1.00  0.00    -0.331 A  
HETATM   21  C   UNL     1     -11.490   8.983  70.217  1.00  0.00    -0.124 C  
HETATM   22  C   UNL     1     -12.003  10.304  70.694  1.00  0.00    -0.436 A  
HETATM   23 CL   UNL     1     -13.637   9.172  72.645  1.00  0.00    -0.479 Cl 
HETATM   24  C   UNL     1     -13.004  12.866  71.341  1.00  0.00    -0.362 A  
HETATM   25  C   UNL     1     -13.468  11.738  72.011  1.00  0.00    -0.319 A  
HETATM   26  C   UNL     1     -12.970  10.463  71.703  1.00  0.00    -0.475 A  
BRANCH  19  27
HETATM   27  C   UNL     1     -10.303   7.639  68.600  1.00  0.00    -0.200 A  
HETATM   28  C   UNL     1      -9.244   6.905  69.165  1.00  0.00    -0.141 A  
HETATM   29  C   UNL     1      -8.936   5.616  68.716  1.00  0.00    -0.117 A  
HETATM   30  C   UNL     1      -9.680   5.042  67.688  1.00  0.00    -0.188 A  
HETATM   31  C   UNL     1     -10.714   5.772  67.097  1.00  0.00    -0.358 A  
HETATM   32  C   UNL     1     -11.010   7.071  67.536  1.00  0.00    -0.299 A  
ENDBRANCH  19  27
ENDBRANCH   2  15
TORSDOF 4
ENDMDL
MODEL       31
REMARK 921   NORMALIZED FREE ENERGY PREDICTED BY IDOCK:   -7.37 KCAL/MOL
REMARK 922        TOTAL FREE ENERGY PREDICTED BY IDOCK:   -9.97 KCAL/MOL
REMARK 923 INTER-LIGAND FREE ENERGY PREDICTED BY IDOCK:   -8.99 KCAL/MOL
REMARK 924 INTRA-LIGAND FREE ENERGY PREDICTED BY IDOCK:   -0.98 KCAL/MOL
REMARK 927      BINDING AFFINITY PREDICTED BY RF-SCORE:    0.00 PKD
ROOT
HETATM    1  C   UNL     1     -12.535  14.142  66.593  1.00  0.00    -0.255 C  
HETATM    2  C   UNL     1     -11.488  13.927  67.685  1.00  0.00    -0.324 C  
ENDROOT
BRANCH   2   3
HETATM    3  N   UNL     1     -10.116  14.077  67.218  1.00  0.00    -0.247 NA 
HETATM    4  H   UNL     1      -9.735  13.443  66.516  1.00  0.00     0.000 HD 
BRANCH   3   5
HETATM    5  C   UNL     1      -9.333  15.101  67.745  1.00  0.00    -0.189 A  
HETATM    6  C   UNL     1      -8.681  17.385  67.926  1.00  0.00    -0.237 A  
HETATM    7  N   UNL     1      -7.734  17.191  68.853  1.00  0.00    -0.252 NA 
HETATM    8  C   UNL     1     -10.057  18.318  66.478  1.00  0.00    -0.385 A  
HETATM    9  H   UNL     1     -11.054  16.583  65.837  1.00  0.00     0.000 HD 
HETATM   10  N   UNL     1     -10.350  17.035  66.421  1.00  0.00    -0.318 NA 
HETATM   11  C   UNL     1      -7.648  15.884  69.167  1.00  0.00    -0.213 A  
HETATM   12  C   UNL     1      -9.494  16.438  67.327  1.00  0.00    -0.227 A  
HETATM   13  N   UNL     1      -9.059  18.575  67.379  1.00  0.00    -0.273 NA 
HETATM   14  N   UNL     1      -8.376  14.853  68.681  1.00  0.00    -0.156 NA 
ENDBRANCH   3   5
ENDBRANCH   2   3
BRANCH   2  15
HETATM   15  C   UNL     1     -11.575  12.670  68.569  1.00  0.00    -0.323 C  
HETATM   16  O   UNL     1     -12.475  11.296  71.783  1.00  0.00    -0.213 OA 
HETATM   17  C   UNL     1     -11.147  11.543  67.969  1.00  0.00    -0.313 C  
HETATM   18  C   UNL     1     -11.026  10.280  68.669  1.00  0.00    -0.289 A  
HETATM   19  N   UNL     1     -11.983  12.626  69.922  1.00  0.00    -0.323 N  
HETATM   20  C   UNL     1     -10.419   9.201  68.008  1.00  0.00    -0.276 A  
HETATM   21  C   UNL     1     -12.023  11.386  70.642  1.00  0.00    -0.314 C  
HETATM   22  C   UNL     1     -11.484  10.156  69.983  1.00  0.00    -0.344 A  
HETATM   23 CL   UNL     1     -11.934   8.544  72.209  1.00  0.00    -0.446 Cl 
HETATM   24  C   UNL     1     -10.268   7.981  68.652  1.00  0.00    -0.225 A  
HETATM   25  C   UNL     1     -10.752   7.832  69.948  1.00  0.00    -0.245 A  
HETATM   26  C   UNL     1     -11.367   8.904  70.614  1.00  0.00    -0.259 A  
BRANCH  19  27
HETATM   27  C   UNL     1     -12.342  13.778  70.705  1.00  0.00    -0.379 A  
HETATM   28  C   UNL     1     -11.349  14.722  71.027  1.00  0.00    -0.188 A  
HETATM   29  C   UNL     1     -11.651  15.864  71.778  1.00  0.00    -0.541 A  
HETATM   30  C   UNL     1     -12.953  16.075  72.225  1.00  0.00    -0.406 A  
HETATM   31  C   UNL     1     -13.942  15.130  71.941  1.00  0.00    -0.629 A  
HETATM   32  C   UNL     1     -13.633  13.978  71.203  1.00  0.00    -0.205 A  
ENDBRANCH  19  27
ENDBRANCH   2  15
TORSDOF 4
ENDMDL
MODEL       32
REMARK 921   NORMALIZED FREE ENERGY PREDICTED BY IDOCK:   -7.25 KCAL/MOL
REMARK 922        TOTAL FREE ENERGY PREDICTED BY IDOCK:   -9.83 KCAL/MOL
REMARK 923 INTER-LIGAND FREE ENERGY PREDICTED BY IDOCK:   -9.59 KCAL/MOL
REMARK 924 INTRA-LIGAND FREE ENERGY PREDICTED BY IDOCK:   -0.24 KCAL/MOL
REMARK 927      BINDING AFFINITY PREDICTED BY RF-SCORE:    0.00 PKD
ROOT
HETATM    1  C   UNL     1      -8.553   9.825  69.937  1.00  0.00    -0.236 C  
HETATM    2  C   UNL     1     -10.045  10.043  69.695  1.00  0.00    -0.236 C  
ENDROOT
BRANCH   2   3
HETATM    3  N   UNL     1     -10.814   8.807  69.627  1.00  0.00    -0.347 NA 
HETATM    4  H   UNL     1     -11.303   8.547  68.771  1.00  0.00     0.000 HD 
BRANCH   3   5
HETATM    5  C   UNL     1     -10.872   7.987  70.751  1.00  0.00    -0.232 A  
HETATM    6  C   UNL     1     -10.659   5.883  71.846  1.00  0.00    -0.231 A  
HETATM    7  N   UNL     1     -10.973   6.326  73.071  1.00  0.00    -0.255 NA 
HETATM    8  C   UNL     1     -10.075   4.599  70.153  1.00  0.00    -0.213 A  
HETATM    9  H   UNL     1     -10.105   6.054  68.637  1.00  0.00     0.000 HD 
HETATM   10  N   UNL     1     -10.228   5.791  69.616  1.00  0.00    -0.209 NA 
HETATM   11  C   UNL     1     -11.239   7.646  73.037  1.00  0.00    -0.333 A  
HETATM   12  C   UNL     1     -10.594   6.608  70.669  1.00  0.00    -0.227 A  
HETATM   13  N   UNL     1     -10.318   4.610  71.500  1.00  0.00    -0.151 NA 
HETATM   14  N   UNL     1     -11.205   8.483  71.975  1.00  0.00    -0.324 NA 
ENDBRANCH   3   5
ENDBRANCH   2   3
BRANCH   2  15
HETATM   15  C   UNL     1     -10.491  10.967  68.548  1.00  0.00    -0.188 C  
HETATM   16  O   UNL     1     -12.330  13.921  67.589  1.00  0.00    -0.265 OA 
HETATM   17  C   UNL     1     -10.056  10.585  67.331  1.00  0.00    -0.236 C  
HETATM   18  C   UNL     1     -10.470  11.242  66.108  1.00  0.00    -0.305 A  
HETATM   19  N   UNL     1     -11.341  12.091  68.660  1.00  0.00    -0.251 N  
HETATM   20  C   UNL     1     -10.097  10.675  64.881  1.00  0.00    -0.402 A  
HETATM   21  C   UNL     1     -11.684  12.877  67.510  1.00  0.00    -0.367 C  
HETATM   22  C   UNL     1     -11.247  12.403  66.161  1.00  0.00    -0.364 A  
HETATM   23 CL   UNL     1     -12.505  14.492  64.816  1.00  0.00    -0.402 Cl 
HETATM   24  C   UNL     1     -10.490  11.265  63.687  1.00  0.00    -0.464 A  
HETATM   25  C   UNL     1     -11.233  12.441  63.725  1.00  0.00    -0.520 A  
HETATM   26  C   UNL     1     -11.605  13.020  64.948  1.00  0.00    -0.326 A  
BRANCH  19  27
HETATM   27  C   UNL     1     -11.967  12.522  69.882  1.00  0.00    -0.301 A  
HETATM   28  C   UNL     1     -11.874  13.875  70.256  1.00  0.00    -0.360 A  
HETATM   29  C   UNL     1     -12.474  14.345  71.430  1.00  0.00    -0.433 A  
HETATM   30  C   UNL     1     -13.173  13.464  72.253  1.00  0.00    -0.570 A  
HETATM   31  C   UNL     1     -13.245  12.112  71.910  1.00  0.00    -0.474 A  
HETATM   32  C   UNL     1     -12.627  11.640  70.742  1.00  0.00    -0.365 A  
ENDBRANCH  19  27
ENDBRANCH   2  15
TORSDOF 4
ENDMDL
MODEL       33
REMARK 921   NORMALIZED FREE ENERGY PREDICTED BY IDOCK:   -7.25 KCAL/MOL
REMARK 922        TOTAL FREE ENERGY PREDICTED BY IDOCK:   -9.82 KCAL/MOL
REMARK 923 INTER-LIGAND FREE ENERGY PREDICTED BY IDOCK:   -8.56 KCAL/MOL
REMARK 924 INTRA-LIGAND FREE ENERGY PREDICTED BY IDOCK:   -1.26 KCAL/MOL
REMARK 927      BINDING AFFINITY PREDICTED BY RF-SCORE:    0.00 PKD
ROOT
HETATM    1  C   UNL     1     -13.715   7.451  71.368  1.00  0.00    -0.419 C  
HETATM    2  C   UNL     1     -12.388   8.194  71.518  1.00  0.00    -0.306 C  
ENDROOT
BRANCH   2   3
HETATM    3  N   UNL     1     -11.782   8.050  72.835  1.00  0.00    -0.566 NA 
HETATM    4  H   UNL     1     -12.045   8.674  73.597  1.00  0.00     0.000 HD 
BRANCH   3   5
HETATM    5  C   UNL     1     -10.838   7.046  73.037  1.00  0.00    -0.309 A  
HETATM    6  C   UNL     1      -8.618   6.280  73.431  1.00  0.00    -0.122 A  
HETATM    7  N   UNL     1      -8.921   4.976  73.471  1.00  0.00    -0.115 NA 
HETATM    8  C   UNL     1      -7.529   8.196  73.487  1.00  0.00    -0.149 A  
HETATM    9  H   UNL     1      -9.151   9.483  73.128  1.00  0.00     0.000 HD 
HETATM   10  N   UNL     1      -8.778   8.541  73.254  1.00  0.00    -0.348 NA 
HETATM   11  C   UNL     1     -10.241   4.796  73.269  1.00  0.00    -0.169 A  
HETATM   12  C   UNL     1      -9.473   7.347  73.218  1.00  0.00    -0.214 A  
HETATM   13  N   UNL     1      -7.388   6.839  73.608  1.00  0.00    -0.082 NA 
HETATM   14  N   UNL     1     -11.194   5.732  73.062  1.00  0.00    -0.268 NA 
ENDBRANCH   3   5
ENDBRANCH   2   3
BRANCH   2  15
HETATM   15  C   UNL     1     -12.304   9.670  71.093  1.00  0.00    -0.339 C  
HETATM   16  O   UNL     1     -10.834  12.089  68.853  1.00  0.00    -0.220 OA 
HETATM   17  C   UNL     1     -13.080  10.498  71.818  1.00  0.00    -0.570 C  
HETATM   18  C   UNL     1     -13.048  11.939  71.665  1.00  0.00    -0.433 A  
HETATM   19  N   UNL     1     -11.460  10.207  70.094  1.00  0.00    -0.279 N  
HETATM   20  C   UNL     1     -13.769  12.728  72.573  1.00  0.00    -0.333 A  
HETATM   21  C   UNL     1     -11.474  11.608  69.788  1.00  0.00    -0.264 C  
HETATM   22  C   UNL     1     -12.292  12.521  70.644  1.00  0.00    -0.369 A  
HETATM   23 CL   UNL     1     -11.490  14.815  69.283  1.00  0.00    -0.299 Cl 
HETATM   24  C   UNL     1     -13.748  14.112  72.469  1.00  0.00    -0.626 A  
HETATM   25  C   UNL     1     -13.029  14.704  71.437  1.00  0.00    -0.404 A  
HETATM   26  C   UNL     1     -12.310  13.922  70.519  1.00  0.00    -0.369 A  
BRANCH  19  27
HETATM   27  C   UNL     1     -10.499   9.444  69.341  1.00  0.00    -0.220 A  
HETATM   28  C   UNL     1     -10.880   8.901  68.100  1.00  0.00    -0.062 A  
HETATM   29  C   UNL     1      -9.979   8.161  67.327  1.00  0.00    -0.283 A  
HETATM   30  C   UNL     1      -8.681   7.947  67.787  1.00  0.00    -0.127 A  
HETATM   31  C   UNL     1      -8.300   8.454  69.031  1.00  0.00    -0.119 A  
HETATM   32  C   UNL     1      -9.210   9.180  69.813  1.00  0.00    -0.179 A  
ENDBRANCH  19  27
ENDBRANCH   2  15
TORSDOF 4
ENDMDL
MODEL       34
REMARK 921   NORMALIZED FREE ENERGY PREDICTED BY IDOCK:   -7.23 KCAL/MOL
REMARK 922        TOTAL FREE ENERGY PREDICTED BY IDOCK:   -9.80 KCAL/MOL
REMARK 923 INTER-LIGAND FREE ENERGY PREDICTED BY IDOCK:   -8.72 KCAL/MOL
REMARK 924 INTRA-LIGAND FREE ENERGY PREDICTED BY IDOCK:   -1.07 KCAL/MOL
REMARK 927      BINDING AFFINITY PREDICTED BY RF-SCORE:    0.00 PKD
ROOT
HETATM    1  C   UNL     1     -12.785  14.264  65.797  1.00  0.00    -0.365 C  
HETATM    2  C   UNL     1     -11.750  14.188  66.918  1.00  0.00    -0.414 C  
ENDROOT
BRANCH   2   3
HETATM    3  N   UNL     1     -10.427  14.658  66.526  1.00  0.00    -0.284 NA 
HETATM    4  H   UNL     1      -9.814  14.068  65.963  1.00  0.00     0.000 HD 
BRANCH   3   5
HETATM    5  C   UNL     1     -10.014  15.924  66.932  1.00  0.00    -0.249 A  
HETATM    6  C   UNL     1      -8.584  17.394  68.142  1.00  0.00    -0.248 A  
HETATM    7  N   UNL     1      -9.167  18.529  67.735  1.00  0.00    -0.278 NA 
HETATM    8  C   UNL     1      -7.240  15.945  69.118  1.00  0.00    -0.196 A  
HETATM    9  H   UNL     1      -8.100  14.178  68.374  1.00  0.00     0.000 HD 
HETATM   10  N   UNL     1      -8.080  15.196  68.434  1.00  0.00    -0.134 NA 
HETATM   11  C   UNL     1     -10.200  18.257  66.914  1.00  0.00    -0.375 A  
HETATM   12  C   UNL     1      -8.929  16.095  67.815  1.00  0.00    -0.192 A  
HETATM   13  N   UNL     1      -7.503  17.280  68.964  1.00  0.00    -0.232 NA 
HETATM   14  N   UNL     1     -10.645  17.050  66.496  1.00  0.00    -0.229 NA 
ENDBRANCH   3   5
ENDBRANCH   2   3
BRANCH   2  15
HETATM   15  C   UNL     1     -11.596  12.877  67.708  1.00  0.00    -0.343 C  
HETATM   16  O   UNL     1     -11.793  11.246  70.921  1.00  0.00    -0.280 OA 
HETATM   17  C   UNL     1     -11.224  11.821  66.958  1.00  0.00    -0.382 C  
HETATM   18  C   UNL     1     -10.899  10.530  67.528  1.00  0.00    -0.357 A  
HETATM   19  N   UNL     1     -11.738  12.720  69.105  1.00  0.00    -0.309 N  
HETATM   20  C   UNL     1     -10.366   9.540  66.689  1.00  0.00    -0.280 A  
HETATM   21  C   UNL     1     -11.570  11.438  69.727  1.00  0.00    -0.332 C  
HETATM   22  C   UNL     1     -11.094  10.293  68.891  1.00  0.00    -0.278 A  
HETATM   23 CL   UNL     1     -11.022   8.518  71.036  1.00  0.00    -0.280 Cl 
HETATM   24  C   UNL     1     -10.026   8.296  67.202  1.00  0.00    -0.307 A  
HETATM   25  C   UNL     1     -10.248   8.033  68.550  1.00  0.00    -0.231 A  
HETATM   26  C   UNL     1     -10.788   9.016  69.395  1.00  0.00    -0.138 A  
BRANCH  19  27
HETATM   27  C   UNL     1     -12.010  13.794  70.024  1.00  0.00    -0.338 A  
HETATM   28  C   UNL     1     -13.282  13.879  70.618  1.00  0.00    -0.036 A  
HETATM   29  C   UNL     1     -13.591  14.900  71.525  1.00  0.00    -0.511 A  
HETATM   30  C   UNL     1     -12.630  15.856  71.848  1.00  0.00    -0.502 A  
HETATM   31  C   UNL     1     -11.374  15.801  71.240  1.00  0.00    -0.437 A  
HETATM   32  C   UNL     1     -11.073  14.788  70.318  1.00  0.00    -0.185 A  
ENDBRANCH  19  27
ENDBRANCH   2  15
TORSDOF 4
ENDMDL
MODEL       35
REMARK 921   NORMALIZED FREE ENERGY PREDICTED BY IDOCK:   -7.22 KCAL/MOL
REMARK 922        TOTAL FREE ENERGY PREDICTED BY IDOCK:   -9.78 KCAL/MOL
REMARK 923 INTER-LIGAND FREE ENERGY PREDICTED BY IDOCK:   -8.43 KCAL/MOL
REMARK 924 INTRA-LIGAND FREE ENERGY PREDICTED BY IDOCK:   -1.35 KCAL/MOL
REMARK 927      BINDING AFFINITY PREDICTED BY RF-SCORE:    0.00 PKD
ROOT
HETATM    1  C   UNL     1     -10.339  13.764  65.367  1.00  0.00    -0.347 C  
HETATM    2  C   UNL     1      -9.687  13.734  66.748  1.00  0.00    -0.275 C  
ENDROOT
BRANCH   2   3
HETATM    3  N   UNL     1      -8.759  12.626  66.933  1.00  0.00    -0.286 NA 
HETATM    4  H   UNL     1      -8.857  11.772  66.386  1.00  0.00     0.000 HD 
BRANCH   3   5
HETATM    5  C   UNL     1      -7.737  12.753  67.870  1.00  0.00    -0.143 A  
HETATM    6  C   UNL     1      -6.439  11.962  69.704  1.00  0.00    -0.101 A  
HETATM    7  N   UNL     1      -5.621  13.020  69.768  1.00  0.00    -0.097 NA 
HETATM    8  C   UNL     1      -7.411  10.020  70.083  1.00  0.00    -0.163 A  
HETATM    9  H   UNL     1      -8.889  10.117  68.593  1.00  0.00     0.000 HD 
HETATM   10  N   UNL     1      -8.092  10.531  69.079  1.00  0.00    -0.134 NA 
HETATM   11  C   UNL     1      -5.951  13.924  68.825  1.00  0.00    -0.085 A  
HETATM   12  C   UNL     1      -7.491  11.751  68.830  1.00  0.00    -0.109 A  
HETATM   13  N   UNL     1      -6.398  10.848  70.488  1.00  0.00    -0.314 NA 
HETATM   14  N   UNL     1      -6.935  13.853  67.901  1.00  0.00    -0.141 NA 
ENDBRANCH   3   5
ENDBRANCH   2   3
BRANCH   2  15
HETATM   15  C   UNL     1     -10.576  13.850  67.999  1.00  0.00    -0.248 C  
HETATM   16  O   UNL     1     -12.051  16.034  70.465  1.00  0.00    -0.349 OA 
HETATM   17  C   UNL     1     -11.058  12.673  68.444  1.00  0.00    -0.297 C  
HETATM   18  C   UNL     1     -11.806  12.549  69.679  1.00  0.00    -0.382 A  
HETATM   19  N   UNL     1     -10.853  15.032  68.723  1.00  0.00    -0.240 N  
HETATM   20  C   UNL     1     -12.125  11.264  70.144  1.00  0.00    -0.448 A  
HETATM   21  C   UNL     1     -11.702  15.010  69.878  1.00  0.00    -0.307 C  
HETATM   22  C   UNL     1     -12.175  13.689  70.396  1.00  0.00    -0.434 A  
HETATM   23 CL   UNL     1     -13.521  14.812  72.561  1.00  0.00    -0.496 Cl 
HETATM   24  C   UNL     1     -12.825  11.104  71.332  1.00  0.00    -0.544 A  
HETATM   25  C   UNL     1     -13.231  12.232  72.039  1.00  0.00    -0.508 A  
HETATM   26  C   UNL     1     -12.921  13.520  71.577  1.00  0.00    -0.355 A  
BRANCH  19  27
HETATM   27  C   UNL     1     -10.297  16.324  68.419  1.00  0.00    -0.271 A  
HETATM   28  C   UNL     1     -11.047  17.225  67.640  1.00  0.00    -0.002 A  
HETATM   29  C   UNL     1     -10.553  18.496  67.327  1.00  0.00    -0.453 A  
HETATM   30  C   UNL     1      -9.296  18.885  67.784  1.00  0.00    -0.330 A  
HETATM   31  C   UNL     1      -8.528  17.989  68.531  1.00  0.00    -0.314 A  
HETATM   32  C   UNL     1      -9.017  16.709  68.829  1.00  0.00    -0.253 A  
ENDBRANCH  19  27
ENDBRANCH   2  15
TORSDOF 4
ENDMDL
MODEL       36
REMARK 921   NORMALIZED FREE ENERGY PREDICTED BY IDOCK:   -7.20 KCAL/MOL
REMARK 922        TOTAL FREE ENERGY PREDICTED BY IDOCK:   -9.75 KCAL/MOL
REMARK 923 INTER-LIGAND FREE ENERGY PREDICTED BY IDOCK:   -9.40 KCAL/MOL
REMARK 924 INTRA-LIGAND FREE ENERGY PREDICTED BY IDOCK:   -0.36 KCAL/MOL
REMARK 927      BINDING AFFINITY PREDICTED BY RF-SCORE:    0.00 PKD
ROOT
HETATM    1  C   UNL     1      -8.339  15.319  67.199  1.00  0.00    -0.244 C  
HETATM    2  C   UNL     1      -8.825  13.872  67.265  1.00  0.00    -0.221 C  
ENDROOT
BRANCH   2   3
HETATM    3  N   UNL     1      -9.262  13.342  65.980  1.00  0.00    -0.476 NA 
HETATM    4  H   UNL     1      -8.839  12.497  65.597  1.00  0.00     0.000 HD 
BRANCH   3   5
HETATM    5  C   UNL     1     -10.267  14.008  65.284  1.00  0.00    -0.360 A  
HETATM    6  C   UNL     1     -12.153  14.062  63.830  1.00  0.00    -0.311 A  
HETATM    7  N   UNL     1     -12.335  15.388  63.880  1.00  0.00    -0.572 NA 
HETATM    8  C   UNL     1     -12.375  11.918  63.370  1.00  0.00    -0.462 A  
HETATM    9  H   UNL     1     -10.754  11.192  64.493  1.00  0.00     0.000 HD 
HETATM   10  N   UNL     1     -11.328  11.970  64.167  1.00  0.00    -0.357 NA 
HETATM   11  C   UNL     1     -11.404  15.959  64.670  1.00  0.00    -0.322 A  
HETATM   12  C   UNL     1     -11.179  13.312  64.465  1.00  0.00    -0.362 A  
HETATM   13  N   UNL     1     -12.909  13.159  63.145  1.00  0.00    -0.303 NA 
HETATM   14  N   UNL     1     -10.407  15.361  65.360  1.00  0.00    -0.375 NA 
ENDBRANCH   3   5
ENDBRANCH   2   3
BRANCH   2  15
HETATM   15  C   UNL     1      -9.852  13.475  68.340  1.00  0.00    -0.225 C  
HETATM   16  O   UNL     1     -11.489  10.786  70.105  1.00  0.00    -0.289 OA 
HETATM   17  C   UNL     1     -10.460  14.519  68.935  1.00  0.00    -0.246 C  
HETATM   18  C   UNL     1     -11.548  14.360  69.878  1.00  0.00    -0.341 A  
HETATM   19  N   UNL     1     -10.238  12.159  68.682  1.00  0.00    -0.206 N  
HETATM   20  C   UNL     1     -12.227  15.505  70.321  1.00  0.00    -0.432 A  
HETATM   21  C   UNL     1     -11.211  11.917  69.708  1.00  0.00    -0.057 C  
HETATM   22  C   UNL     1     -11.923  13.086  70.312  1.00  0.00    -0.360 A  
HETATM   23 CL   UNL     1     -13.528  11.499  71.944  1.00  0.00    -0.393 Cl 
HETATM   24  C   UNL     1     -13.287  15.391  71.210  1.00  0.00    -0.598 A  
HETATM   25  C   UNL     1     -13.648  14.132  71.679  1.00  0.00    -0.446 A  
HETATM   26  C   UNL     1     -12.969  12.981  71.246  1.00  0.00    -0.243 A  
BRANCH  19  27
HETATM   27  C   UNL     1      -9.753  10.970  68.033  1.00  0.00    -0.172 A  
HETATM   28  C   UNL     1      -8.522  10.423  68.439  1.00  0.00    -0.124 A  
HETATM   29  C   UNL     1      -8.014   9.263  67.844  1.00  0.00    -0.100 A  
HETATM   30  C   UNL     1      -8.727   8.634  66.826  1.00  0.00    -0.135 A  
HETATM   31  C   UNL     1      -9.935   9.185  66.391  1.00  0.00    -0.358 A  
HETATM   32  C   UNL     1     -10.434  10.358  66.976  1.00  0.00    -0.309 A  
ENDBRANCH  19  27
ENDBRANCH   2  15
TORSDOF 4
ENDMDL
MODEL       37
REMARK 921   NORMALIZED FREE ENERGY PREDICTED BY IDOCK:   -7.19 KCAL/MOL
REMARK 922        TOTAL FREE ENERGY PREDICTED BY IDOCK:   -9.74 KCAL/MOL
REMARK 923 INTER-LIGAND FREE ENERGY PREDICTED BY IDOCK:   -9.88 KCAL/MOL
REMARK 924 INTRA-LIGAND FREE ENERGY PREDICTED BY IDOCK:    0.14 KCAL/MOL
REMARK 927      BINDING AFFINITY PREDICTED BY RF-SCORE:    0.00 PKD
ROOT
HETATM    1  C   UNL     1      -9.008   9.577  70.224  1.00  0.00    -0.288 C  
HETATM    2  C   UNL     1     -10.434  10.091  70.034  1.00  0.00    -0.287 C  
ENDROOT
BRANCH   2   3
HETATM    3  N   UNL     1     -11.446   9.045  70.101  1.00  0.00    -0.446 NA 
HETATM    4  H   UNL     1     -12.433   9.270  69.973  1.00  0.00     0.000 HD 
BRANCH   3   5
HETATM    5  C   UNL     1     -11.045   7.734  70.341  1.00  0.00    -0.251 A  
HETATM    6  C   UNL     1     -10.447   5.937  71.786  1.00  0.00    -0.227 A  
HETATM    7  N   UNL     1     -10.245   5.035  70.817  1.00  0.00    -0.239 NA 
HETATM    8  C   UNL     1     -10.631   6.916  73.752  1.00  0.00    -0.301 A  
HETATM    9  H   UNL     1     -11.194   8.830  73.093  1.00  0.00     0.000 HD 
HETATM   10  N   UNL     1     -10.935   7.864  72.890  1.00  0.00    -0.400 NA 
HETATM   11  C   UNL     1     -10.463   5.589  69.608  1.00  0.00    -0.309 A  
HETATM   12  C   UNL     1     -10.824   7.262  71.651  1.00  0.00    -0.220 A  
HETATM   13  N   UNL     1     -10.337   5.733  73.129  1.00  0.00    -0.193 NA 
HETATM   14  N   UNL     1     -10.844   6.855  69.321  1.00  0.00    -0.241 NA 
ENDBRANCH   3   5
ENDBRANCH   2   3
BRANCH   2  15
HETATM   15  C   UNL     1     -10.746  11.007  68.838  1.00  0.00    -0.211 C  
HETATM   16  O   UNL     1     -12.230  14.097  67.708  1.00  0.00    -0.334 OA 
HETATM   17  C   UNL     1     -10.323  10.530  67.651  1.00  0.00    -0.257 C  
HETATM   18  C   UNL     1     -10.632  11.175  66.391  1.00  0.00    -0.315 A  
HETATM   19  N   UNL     1     -11.473  12.219  68.879  1.00  0.00    -0.280 N  
HETATM   20  C   UNL     1     -10.289  10.519  65.199  1.00  0.00    -0.310 A  
HETATM   21  C   UNL     1     -11.698  12.988  67.689  1.00  0.00    -0.366 C  
HETATM   22  C   UNL     1     -11.279  12.413  66.374  1.00  0.00    -0.365 A  
HETATM   23 CL   UNL     1     -12.269  14.565  64.910  1.00  0.00    -0.419 Cl 
HETATM   24  C   UNL     1     -10.585  11.097  63.972  1.00  0.00    -0.436 A  
HETATM   25  C   UNL     1     -11.197  12.346  63.940  1.00  0.00    -0.487 A  
HETATM   26  C   UNL     1     -11.537  13.012  65.128  1.00  0.00    -0.324 A  
BRANCH  19  27
HETATM   27  C   UNL     1     -12.081  12.767  70.064  1.00  0.00    -0.285 A  
HETATM   28  C   UNL     1     -11.878  14.125  70.370  1.00  0.00    -0.367 A  
HETATM   29  C   UNL     1     -12.456  14.705  71.505  1.00  0.00    -0.411 A  
HETATM   30  C   UNL     1     -13.242  13.932  72.356  1.00  0.00    -0.587 A  
HETATM   31  C   UNL     1     -13.425  12.575  72.081  1.00  0.00    -0.523 A  
HETATM   32  C   UNL     1     -12.830  11.991  70.953  1.00  0.00    -0.205 A  
ENDBRANCH  19  27
ENDBRANCH   2  15
TORSDOF 4
ENDMDL
MODEL       38
REMARK 921   NORMALIZED FREE ENERGY PREDICTED BY IDOCK:   -7.18 KCAL/MOL
REMARK 922        TOTAL FREE ENERGY PREDICTED BY IDOCK:   -9.73 KCAL/MOL
REMARK 923 INTER-LIGAND FREE ENERGY PREDICTED BY IDOCK:   -9.12 KCAL/MOL
REMARK 924 INTRA-LIGAND FREE ENERGY PREDICTED BY IDOCK:   -0.61 KCAL/MOL
REMARK 927      BINDING AFFINITY PREDICTED BY RF-SCORE:    0.00 PKD
ROOT
HETATM    1  C   UNL     1     -12.921  10.538  71.607  1.00  0.00    -0.581 C  
HETATM    2  C   UNL     1     -12.030  11.249  70.591  1.00  0.00    -0.336 C  
ENDROOT
BRANCH   2   3
HETATM    3  N   UNL     1     -12.654  12.416  69.981  1.00  0.00     0.076 NA 
HETATM    4  H   UNL     1     -13.462  12.310  69.368  1.00  0.00     0.000 HD 
BRANCH   3   5
HETATM    5  C   UNL     1     -12.130  13.678  70.248  1.00  0.00    -0.357 A  
HETATM    6  C   UNL     1     -11.949  15.658  71.559  1.00  0.00    -0.417 A  
HETATM    7  N   UNL     1     -11.027  16.255  70.793  1.00  0.00    -0.187 NA 
HETATM    8  C   UNL     1     -13.390  15.215  73.168  1.00  0.00    -0.450 A  
HETATM    9  H   UNL     1     -14.027  13.328  72.500  1.00  0.00     0.000 HD 
HETATM   10  N   UNL     1     -13.446  14.158  72.384  1.00  0.00    -0.473 NA 
HETATM   11  C   UNL     1     -10.714  15.472  69.742  1.00  0.00    -0.295 A  
HETATM   12  C   UNL     1     -12.545  14.423  71.370  1.00  0.00    -0.354 A  
HETATM   13  N   UNL     1     -12.492  16.143  72.711  1.00  0.00    -0.473 NA 
HETATM   14  N   UNL     1     -11.198  14.247  69.433  1.00  0.00    -0.271 NA 
ENDBRANCH   3   5
ENDBRANCH   2   3
BRANCH   2  15
HETATM   15  C   UNL     1     -11.342  10.424  69.490  1.00  0.00    -0.265 C  
HETATM   16  O   UNL     1      -9.669   7.345  68.624  1.00  0.00    -0.149 OA 
HETATM   17  C   UNL     1     -11.290  11.036  68.291  1.00  0.00    -0.366 C  
HETATM   18  C   UNL     1     -10.572  10.486  67.159  1.00  0.00    -0.319 A  
HETATM   19  N   UNL     1     -10.726   9.162  69.651  1.00  0.00    -0.230 N  
HETATM   20  C   UNL     1     -10.436  11.270  66.004  1.00  0.00    -0.310 A  
HETATM   21  C   UNL     1     -10.116   8.488  68.542  1.00  0.00    -0.194 C  
HETATM   22  C   UNL     1     -10.010   9.209  67.236  1.00  0.00    -0.270 A  
HETATM   23 CL   UNL     1      -8.641   7.129  65.989  1.00  0.00    -0.151 Cl 
HETATM   24  C   UNL     1      -9.740  10.784  64.906  1.00  0.00    -0.330 A  
HETATM   25  C   UNL     1      -9.205   9.501  64.954  1.00  0.00    -0.284 A  
HETATM   26  C   UNL     1      -9.343   8.707  66.104  1.00  0.00    -0.226 A  
BRANCH  19  27
HETATM   27  C   UNL     1     -10.608   8.465  70.906  1.00  0.00    -0.204 A  
HETATM   28  C   UNL     1     -11.574   7.500  71.245  1.00  0.00    -0.305 A  
HETATM   29  C   UNL     1     -11.496   6.790  72.448  1.00  0.00    -0.302 A  
HETATM   30  C   UNL     1     -10.452   7.041  73.336  1.00  0.00    -0.383 A  
HETATM   31  C   UNL     1      -9.505   8.019  73.027  1.00  0.00    -0.345 A  
HETATM   32  C   UNL     1      -9.595   8.742  71.828  1.00  0.00    -0.371 A  
ENDBRANCH  19  27
ENDBRANCH   2  15
TORSDOF 4
ENDMDL
MODEL       39
REMARK 921   NORMALIZED FREE ENERGY PREDICTED BY IDOCK:   -7.18 KCAL/MOL
REMARK 922        TOTAL FREE ENERGY PREDICTED BY IDOCK:   -9.73 KCAL/MOL
REMARK 923 INTER-LIGAND FREE ENERGY PREDICTED BY IDOCK:   -8.71 KCAL/MOL
REMARK 924 INTRA-LIGAND FREE ENERGY PREDICTED BY IDOCK:   -1.02 KCAL/MOL
REMARK 927      BINDING AFFINITY PREDICTED BY RF-SCORE:    0.00 PKD
ROOT
HETATM    1  C   UNL     1      -8.725  13.416  67.080  1.00  0.00    -0.195 C  
HETATM    2  C   UNL     1     -10.113  12.780  67.127  1.00  0.00    -0.234 C  
ENDROOT
BRANCH   2   3
HETATM    3  N   UNL     1     -11.198  13.748  67.227  1.00  0.00    -0.301 NA 
HETATM    4  H   UNL     1     -11.961  13.605  67.888  1.00  0.00     0.000 HD 
BRANCH   3   5
HETATM    5  C   UNL     1     -11.175  14.872  66.405  1.00  0.00    -0.331 A  
HETATM    6  C   UNL     1     -10.769  17.182  65.993  1.00  0.00    -0.113 A  
HETATM    7  N   UNL     1     -11.115  17.161  64.699  1.00  0.00    -1.007 NA 
HETATM    8  C   UNL     1     -10.081  17.837  67.983  1.00  0.00    -0.355 A  
HETATM    9  H   UNL     1     -10.250  15.999  68.987  1.00  0.00     0.000 HD 
HETATM   10  N   UNL     1     -10.344  16.556  68.137  1.00  0.00    -0.283 NA 
HETATM   11  C   UNL     1     -11.498  15.921  64.338  1.00  0.00    -0.264 A  
HETATM   12  C   UNL     1     -10.776  16.132  66.894  1.00  0.00    -0.247 A  
HETATM   13  N   UNL     1     -10.317  18.256  66.701  1.00  0.00    -0.372 NA 
HETATM   14  N   UNL     1     -11.545  14.801  65.096  1.00  0.00    -0.362 NA 
ENDBRANCH   3   5
ENDBRANCH   2   3
BRANCH   2  15
HETATM   15  C   UNL     1     -10.379  11.635  68.119  1.00  0.00    -0.194 C  
HETATM   16  O   UNL     1      -9.709   8.205  69.022  1.00  0.00    -0.159 OA 
HETATM   17  C   UNL     1     -11.220  11.956  69.121  1.00  0.00    -0.314 C  
HETATM   18  C   UNL     1     -11.700  10.986  70.084  1.00  0.00    -0.442 A  
HETATM   19  N   UNL     1      -9.888  10.313  68.023  1.00  0.00    -0.149 N  
HETATM   20  C   UNL     1     -12.698  11.376  70.990  1.00  0.00    -0.447 A  
HETATM   21  C   UNL     1     -10.207   9.330  69.017  1.00  0.00    -0.206 C  
HETATM   22  C   UNL     1     -11.192   9.685  70.085  1.00  0.00    -0.302 A  
HETATM   23 CL   UNL     1     -11.116   7.156  71.251  1.00  0.00    -0.267 Cl 
HETATM   24  C   UNL     1     -13.196  10.469  71.916  1.00  0.00    -0.526 A  
HETATM   25  C   UNL     1     -12.674   9.180  71.953  1.00  0.00    -0.464 A  
HETATM   26  C   UNL     1     -11.671   8.784  71.054  1.00  0.00    -0.282 A  
BRANCH  19  27
HETATM   27  C   UNL     1      -9.086   9.817  66.935  1.00  0.00    -0.142 A  
HETATM   28  C   UNL     1      -7.684   9.855  67.048  1.00  0.00    -0.095 A  
HETATM   29  C   UNL     1      -6.862   9.376  66.021  1.00  0.00    -0.089 A  
HETATM   30  C   UNL     1      -7.431   8.856  64.861  1.00  0.00    -0.098 A  
HETATM   31  C   UNL     1      -8.821   8.842  64.723  1.00  0.00    -0.130 A  
HETATM   32  C   UNL     1      -9.643   9.339  65.745  1.00  0.00    -0.341 A  
ENDBRANCH  19  27
ENDBRANCH   2  15
TORSDOF 4
ENDMDL
MODEL       40
REMARK 921   NORMALIZED FREE ENERGY PREDICTED BY IDOCK:   -7.15 KCAL/MOL
REMARK 922        TOTAL FREE ENERGY PREDICTED BY IDOCK:   -9.69 KCAL/MOL
REMARK 923 INTER-LIGAND FREE ENERGY PREDICTED BY IDOCK:   -8.40 KCAL/MOL
REMARK 924 INTRA-LIGAND FREE ENERGY PREDICTED BY IDOCK:   -1.29 KCAL/MOL
REMARK 927      BINDING AFFINITY PREDICTED BY RF-SCORE:    0.00 PKD
ROOT
HETATM    1  C   UNL     1      -6.970  11.620  69.550  1.00  0.00    -0.002 C  
HETATM    2  C   UNL     1      -8.283  10.874  69.323  1.00  0.00    -0.036 C  
ENDROOT
BRANCH   2   3
HETATM    3  N   UNL     1      -8.170   9.429  69.475  1.00  0.00    -0.114 NA 
HETATM    4  H   UNL     1      -7.428   8.915  69.000  1.00  0.00     0.000 HD 
BRANCH   3   5
HETATM    5  C   UNL     1      -9.090   8.762  70.280  1.00  0.00    -0.170 A  
HETATM    6  C   UNL     1     -10.809   7.153  70.639  1.00  0.00    -0.245 A  
HETATM    7  N   UNL     1     -10.955   7.389  71.949  1.00  0.00    -0.229 NA 
HETATM    8  C   UNL     1     -11.023   6.325  68.607  1.00  0.00    -0.346 A  
HETATM    9  H   UNL     1      -9.584   7.509  67.637  1.00  0.00     0.000 HD 
HETATM   10  N   UNL     1     -10.089   7.244  68.484  1.00  0.00    -0.167 NA 
HETATM   11  C   UNL     1     -10.111   8.361  72.347  1.00  0.00    -0.316 A  
HETATM   12  C   UNL     1      -9.944   7.772  69.754  1.00  0.00    -0.189 A  
HETATM   13  N   UNL     1     -11.482   6.231  69.894  1.00  0.00    -0.436 NA 
HETATM   14  N   UNL     1      -9.207   9.043  71.607  1.00  0.00    -0.340 NA 
ENDBRANCH   3   5
ENDBRANCH   2   3
BRANCH   2  15
HETATM   15  C   UNL     1      -9.107  11.175  68.059  1.00  0.00    -0.153 C  
HETATM   16  O   UNL     1     -12.209  12.425  66.702  1.00  0.00    -0.562 OA 
HETATM   17  C   UNL     1      -8.481  10.867  66.906  1.00  0.00    -0.135 C  
HETATM   18  C   UNL     1      -9.131  10.952  65.614  1.00  0.00    -0.223 A  
HETATM   19  N   UNL     1     -10.434  11.659  68.020  1.00  0.00    -0.188 N  
HETATM   20  C   UNL     1      -8.456  10.458  64.488  1.00  0.00    -0.172 A  
HETATM   21  C   UNL     1     -11.098  11.903  66.772  1.00  0.00    -0.308 C  
HETATM   22  C   UNL     1     -10.414  11.495  65.506  1.00  0.00    -0.327 A  
HETATM   23 CL   UNL     1     -12.544  12.277  63.890  1.00  0.00    -0.569 Cl 
HETATM   24  C   UNL     1      -9.054  10.505  63.236  1.00  0.00    -0.267 A  
HETATM   25  C   UNL     1     -10.316  11.076  63.107  1.00  0.00    -0.251 A  
HETATM   26  C   UNL     1     -10.996  11.580  64.227  1.00  0.00    -0.341 A  
BRANCH  19  27
HETATM   27  C   UNL     1     -11.248  11.906  69.182  1.00  0.00    -0.255 A  
HETATM   28  C   UNL     1     -11.781  10.812  69.888  1.00  0.00    -0.412 A  
HETATM   29  C   UNL     1     -12.569  11.000  71.029  1.00  0.00    -0.512 A  
HETATM   30  C   UNL     1     -12.843  12.290  71.478  1.00  0.00    -0.384 A  
HETATM   31  C   UNL     1     -12.347  13.386  70.767  1.00  0.00    -0.433 A  
HETATM   32  C   UNL     1     -11.572  13.195  69.615  1.00  0.00    -0.321 A  
ENDBRANCH  19  27
ENDBRANCH   2  15
TORSDOF 4
ENDMDL
MODEL       41
REMARK 921   NORMALIZED FREE ENERGY PREDICTED BY IDOCK:   -7.14 KCAL/MOL
REMARK 922        TOTAL FREE ENERGY PREDICTED BY IDOCK:   -9.68 KCAL/MOL
REMARK 923 INTER-LIGAND FREE ENERGY PREDICTED BY IDOCK:   -8.84 KCAL/MOL
REMARK 924 INTRA-LIGAND FREE ENERGY PREDICTED BY IDOCK:   -0.84 KCAL/MOL
REMARK 927      BINDING AFFINITY PREDICTED BY RF-SCORE:    0.00 PKD
ROOT
HETATM    1  C   UNL     1      -8.017  13.527  67.372  1.00  0.00    -0.165 C  
HETATM    2  C   UNL     1      -9.448  14.011  67.601  1.00  0.00    -0.210 C  
ENDROOT
BRANCH   2   3
HETATM    3  N   UNL     1      -9.550  15.446  67.837  1.00  0.00    -0.205 NA 
HETATM    4  H   UNL     1      -9.236  15.849  68.719  1.00  0.00     0.000 HD 
BRANCH   3   5
HETATM    5  C   UNL     1     -10.082  16.257  66.838  1.00  0.00    -0.278 A  
HETATM    6  C   UNL     1     -10.712  18.373  65.944  1.00  0.00    -0.178 A  
HETATM    7  N   UNL     1     -11.157  17.906  64.770  1.00  0.00    -0.488 NA 
HETATM    8  C   UNL     1     -10.144  19.703  67.607  1.00  0.00    -0.417 A  
HETATM    9  H   UNL     1      -9.430  18.245  68.940  1.00  0.00     0.000 HD 
HETATM   10  N   UNL     1      -9.837  18.498  68.039  1.00  0.00    -0.325 NA 
HETATM   11  C   UNL     1     -11.031  16.566  64.721  1.00  0.00    -0.177 A  
HETATM   12  C   UNL     1     -10.187  17.653  67.003  1.00  0.00    -0.332 A  
HETATM   13  N   UNL     1     -10.670  19.675  66.343  1.00  0.00    -0.456 NA 
HETATM   14  N   UNL     1     -10.529  15.734  65.663  1.00  0.00    -0.360 NA 
ENDBRANCH   3   5
ENDBRANCH   2   3
BRANCH   2  15
HETATM   15  C   UNL     1     -10.333  13.278  68.623  1.00  0.00    -0.196 C  
HETATM   16  O   UNL     1     -11.501  10.101  69.877  1.00  0.00    -0.253 OA 
HETATM   17  C   UNL     1     -11.010  14.094  69.454  1.00  0.00    -0.216 C  
HETATM   18  C   UNL     1     -11.993  13.610  70.401  1.00  0.00    -0.372 A  
HETATM   19  N   UNL     1     -10.536  11.881  68.705  1.00  0.00    -0.216 N  
HETATM   20  C   UNL     1     -12.763  14.545  71.109  1.00  0.00    -0.408 A  
HETATM   21  C   UNL     1     -11.389  11.315  69.709  1.00  0.00    -0.271 C  
HETATM   22  C   UNL     1     -12.181  12.237  70.580  1.00  0.00    -0.378 A  
HETATM   23 CL   UNL     1     -13.456  10.161  71.931  1.00  0.00    -0.460 Cl 
HETATM   24  C   UNL     1     -13.728  14.119  72.011  1.00  0.00    -0.554 A  
HETATM   25  C   UNL     1     -13.902  12.755  72.226  1.00  0.00    -0.395 A  
HETATM   26  C   UNL     1     -13.131  11.813  71.528  1.00  0.00    -0.287 A  
BRANCH  19  27
HETATM   27  C   UNL     1      -9.969  10.919  67.797  1.00  0.00    -0.176 A  
HETATM   28  C   UNL     1      -8.775  10.265  68.152  1.00  0.00    -0.123 A  
HETATM   29  C   UNL     1      -8.191   9.315  67.307  1.00  0.00    -0.121 A  
HETATM   30  C   UNL     1      -8.790   9.009  66.087  1.00  0.00    -0.195 A  
HETATM   31  C   UNL     1      -9.958   9.674  65.708  1.00  0.00    -0.342 A  
HETATM   32  C   UNL     1     -10.532  10.639  66.548  1.00  0.00    -0.285 A  
ENDBRANCH  19  27
ENDBRANCH   2  15
TORSDOF 4
ENDMDL
MODEL       42
REMARK 921   NORMALIZED FREE ENERGY PREDICTED BY IDOCK:   -7.06 KCAL/MOL
REMARK 922        TOTAL FREE ENERGY PREDICTED BY IDOCK:   -9.58 KCAL/MOL
REMARK 923 INTER-LIGAND FREE ENERGY PREDICTED BY IDOCK:   -8.74 KCAL/MOL
REMARK 924 INTRA-LIGAND FREE ENERGY PREDICTED BY IDOCK:   -0.85 KCAL/MOL
REMARK 927      BINDING AFFINITY PREDICTED BY RF-SCORE:    0.00 PKD
ROOT
HETATM    1  C   UNL     1      -7.408  10.574  69.902  1.00  0.00    -0.116 C  
HETATM    2  C   UNL     1      -8.791  10.031  69.545  1.00  0.00    -0.195 C  
ENDROOT
BRANCH   2   3
HETATM    3  N   UNL     1      -8.857   8.576  69.510  1.00  0.00    -0.139 NA 
HETATM    4  H   UNL     1      -8.248   8.044  68.889  1.00  0.00     0.000 HD 
BRANCH   3   5
HETATM    5  C   UNL     1      -9.765   7.922  70.340  1.00  0.00    -0.179 A  
HETATM    6  C   UNL     1     -10.557   7.227  72.475  1.00  0.00    -0.247 A  
HETATM    7  N   UNL     1     -11.649   6.596  72.026  1.00  0.00    -0.287 NA 
HETATM    8  C   UNL     1      -9.001   8.080  73.784  1.00  0.00    -0.222 A  
HETATM    9  H   UNL     1      -7.790   8.944  72.301  1.00  0.00     0.000 HD 
HETATM   10  N   UNL     1      -8.619   8.413  72.569  1.00  0.00    -0.276 NA 
HETATM   11  C   UNL     1     -11.714   6.674  70.682  1.00  0.00    -0.394 A  
HETATM   12  C   UNL     1      -9.588   7.885  71.737  1.00  0.00    -0.165 A  
HETATM   13  N   UNL     1     -10.171   7.368  73.775  1.00  0.00    -0.327 NA 
HETATM   14  N   UNL     1     -10.858   7.287  69.833  1.00  0.00    -0.246 NA 
ENDBRANCH   3   5
ENDBRANCH   2   3
BRANCH   2  15
HETATM   15  C   UNL     1      -9.519  10.589  68.310  1.00  0.00    -0.155 C  
HETATM   16  O   UNL     1     -12.317  12.495  67.060  1.00  0.00    -0.403 OA 
HETATM   17  C   UNL     1      -8.933  10.280  67.137  1.00  0.00    -0.145 C  
HETATM   18  C   UNL     1      -9.528  10.599  65.855  1.00  0.00    -0.239 A  
HETATM   19  N   UNL     1     -10.737  11.306  68.310  1.00  0.00    -0.182 N  
HETATM   20  C   UNL     1      -8.927  10.096  64.692  1.00  0.00    -0.241 A  
HETATM   21  C   UNL     1     -11.319  11.777  67.086  1.00  0.00    -0.322 C  
HETATM   22  C   UNL     1     -10.691  11.371  65.791  1.00  0.00    -0.309 A  
HETATM   23 CL   UNL     1     -12.610  12.666  64.243  1.00  0.00    -0.474 Cl 
HETATM   24  C   UNL     1      -9.478  10.364  63.446  1.00  0.00    -0.356 A  
HETATM   25  C   UNL     1     -10.615  11.161  63.365  1.00  0.00    -0.340 A  
HETATM   26  C   UNL     1     -11.219  11.675  64.523  1.00  0.00    -0.269 A  
BRANCH  19  27
HETATM   27  C   UNL     1     -11.520  11.587  69.485  1.00  0.00    -0.311 A  
HETATM   28  C   UNL     1     -12.075  10.516  70.209  1.00  0.00    -0.402 A  
HETATM   29  C   UNL     1     -12.835  10.739  71.363  1.00  0.00    -0.557 A  
HETATM   30  C   UNL     1     -13.057  12.040  71.808  1.00  0.00    -0.460 A  
HETATM   31  C   UNL     1     -12.538  13.114  71.080  1.00  0.00    -0.403 A  
HETATM   32  C   UNL     1     -11.792  12.889  69.914  1.00  0.00    -0.373 A  
ENDBRANCH  19  27
ENDBRANCH   2  15
TORSDOF 4
ENDMDL
MODEL       43
REMARK 921   NORMALIZED FREE ENERGY PREDICTED BY IDOCK:   -7.05 KCAL/MOL
REMARK 922        TOTAL FREE ENERGY PREDICTED BY IDOCK:   -9.58 KCAL/MOL
REMARK 923 INTER-LIGAND FREE ENERGY PREDICTED BY IDOCK:   -8.62 KCAL/MOL
REMARK 924 INTRA-LIGAND FREE ENERGY PREDICTED BY IDOCK:   -0.96 KCAL/MOL
REMARK 927      BINDING AFFINITY PREDICTED BY RF-SCORE:    0.00 PKD
ROOT
HETATM    1  C   UNL     1     -12.344  13.466  65.554  1.00  0.00    -0.528 C  
HETATM    2  C   UNL     1     -11.227  14.177  66.315  1.00  0.00    -0.329 C  
ENDROOT
BRANCH   2   3
HETATM    3  N   UNL     1      -9.936  13.507  66.221  1.00  0.00    -0.292 NA 
HETATM    4  H   UNL     1      -9.070  14.043  66.261  1.00  0.00     0.000 HD 
BRANCH   3   5
HETATM    5  C   UNL     1      -9.905  12.122  66.075  1.00  0.00    -0.243 A  
HETATM    6  C   UNL     1      -9.656  10.138  64.782  1.00  0.00    -0.314 A  
HETATM    7  N   UNL     1      -9.822   9.282  65.798  1.00  0.00    -0.288 NA 
HETATM    8  C   UNL     1      -9.304  10.995  62.782  1.00  0.00    -0.346 A  
HETATM    9  H   UNL     1      -9.439  13.030  63.290  1.00  0.00     0.000 HD 
HETATM   10  N   UNL     1      -9.468  12.046  63.559  1.00  0.00    -0.139 NA 
HETATM   11  C   UNL     1     -10.040   9.955  66.945  1.00  0.00    -0.225 A  
HETATM   12  C   UNL     1      -9.689  11.521  64.818  1.00  0.00    -0.219 A  
HETATM   13  N   UNL     1      -9.402   9.822  63.480  1.00  0.00    -0.196 NA 
HETATM   14  N   UNL     1     -10.087  11.292  67.139  1.00  0.00    -0.189 NA 
ENDBRANCH   3   5
ENDBRANCH   2   3
BRANCH   2  15
HETATM   15  C   UNL     1     -11.463  14.591  67.778  1.00  0.00    -0.340 C  
HETATM   16  O   UNL     1     -11.002  17.119  70.313  1.00  0.00     0.125 OA 
HETATM   17  C   UNL     1     -12.117  13.672  68.514  1.00  0.00    -0.321 C  
HETATM   18  C   UNL     1     -12.325  13.811  69.941  1.00  0.00    -0.334 A  
HETATM   19  N   UNL     1     -11.004  15.776  68.397  1.00  0.00    -0.306 N  
HETATM   20  C   UNL     1     -12.871  12.731  70.649  1.00  0.00    -0.034 A  
HETATM   21  C   UNL     1     -11.291  16.051  69.775  1.00  0.00    -0.331 C  
HETATM   22  C   UNL     1     -11.961  14.993  70.592  1.00  0.00    -0.370 A  
HETATM   23 CL   UNL     1     -11.881  16.494  72.937  1.00  0.00    -0.556 Cl 
HETATM   24  C   UNL     1     -13.067  12.820  72.021  1.00  0.00    -0.474 A  
HETATM   25  C   UNL     1     -12.744  14.004  72.677  1.00  0.00    -0.324 A  
HETATM   26  C   UNL     1     -12.203  15.092  71.975  1.00  0.00    -0.364 A  
BRANCH  19  27
HETATM   27  C   UNL     1     -10.191  16.773  67.751  1.00  0.00    -0.303 A  
HETATM   28  C   UNL     1      -8.790  16.658  67.814  1.00  0.00    -0.206 A  
HETATM   29  C   UNL     1      -7.958  17.597  67.194  1.00  0.00    -0.229 A  
HETATM   30  C   UNL     1      -8.515  18.671  66.504  1.00  0.00    -0.302 A  
HETATM   31  C   UNL     1      -9.904  18.815  66.461  1.00  0.00    -0.398 A  
HETATM   32  C   UNL     1     -10.736  17.883  67.099  1.00  0.00    -0.241 A  
ENDBRANCH  19  27
ENDBRANCH   2  15
TORSDOF 4
ENDMDL
MODEL       44
REMARK 921   NORMALIZED FREE ENERGY PREDICTED BY IDOCK:   -7.03 KCAL/MOL
REMARK 922        TOTAL FREE ENERGY PREDICTED BY IDOCK:   -9.55 KCAL/MOL
REMARK 923 INTER-LIGAND FREE ENERGY PREDICTED BY IDOCK:   -8.54 KCAL/MOL
REMARK 924 INTRA-LIGAND FREE ENERGY PREDICTED BY IDOCK:   -1.01 KCAL/MOL
REMARK 927      BINDING AFFINITY PREDICTED BY RF-SCORE:    0.00 PKD
ROOT
HETATM    1  C   UNL     1      -9.704  13.426  68.261  1.00  0.00    -0.226 C  
HETATM    2  C   UNL     1     -10.463  12.121  68.027  1.00  0.00    -0.212 C  
ENDROOT
BRANCH   2   3
HETATM    3  N   UNL     1     -11.794  12.312  67.465  1.00  0.00    -0.519 NA 
HETATM    4  H   UNL     1     -12.624  12.096  68.015  1.00  0.00     0.000 HD 
BRANCH   3   5
HETATM    5  C   UNL     1     -11.913  12.794  66.164  1.00  0.00    -0.414 A  
HETATM    6  C   UNL     1     -11.482  12.693  63.824  1.00  0.00    -0.470 A  
HETATM    7  N   UNL     1     -12.187  13.785  63.500  1.00  0.00    -0.666 NA 
HETATM    8  C   UNL     1     -10.232  10.881  63.717  1.00  0.00    -0.343 A  
HETATM    9  H   UNL     1     -10.195  10.410  65.764  1.00  0.00     0.000 HD 
HETATM   10  N   UNL     1     -10.500  11.013  64.999  1.00  0.00    -0.291 NA 
HETATM   11  C   UNL     1     -12.727  14.337  64.604  1.00  0.00    -0.113 A  
HETATM   12  C   UNL     1     -11.286  12.147  65.080  1.00  0.00    -0.328 A  
HETATM   13  N   UNL     1     -10.811  11.871  62.969  1.00  0.00    -0.182 NA 
HETATM   14  N   UNL     1     -12.635  13.915  65.886  1.00  0.00    -0.479 NA 
ENDBRANCH   3   5
ENDBRANCH   2   3
BRANCH   2  15
HETATM   15  C   UNL     1     -10.549  11.089  69.165  1.00  0.00    -0.219 C  
HETATM   16  O   UNL     1      -8.841   8.544  71.069  1.00  0.00    -0.145 OA 
HETATM   17  C   UNL     1     -11.750  11.038  69.774  1.00  0.00    -0.410 C  
HETATM   18  C   UNL     1     -12.078  10.048  70.779  1.00  0.00    -0.418 A  
HETATM   19  N   UNL     1      -9.535  10.184  69.553  1.00  0.00    -0.220 N  
HETATM   20  C   UNL     1     -13.401   9.970  71.239  1.00  0.00    -0.410 A  
HETATM   21  C   UNL     1      -9.737   9.266  70.636  1.00  0.00    -0.272 C  
HETATM   22  C   UNL     1     -11.095   9.178  71.257  1.00  0.00    -0.405 A  
HETATM   23 CL   UNL     1     -10.363   7.138  73.007  1.00  0.00    -0.273 Cl 
HETATM   24  C   UNL     1     -13.758   9.022  72.188  1.00  0.00    -0.536 A  
HETATM   25  C   UNL     1     -12.782   8.173  72.700  1.00  0.00    -0.070 A  
HETATM   26  C   UNL     1     -11.454   8.249  72.251  1.00  0.00    -0.384 A  
BRANCH  19  27
HETATM   27  C   UNL     1      -8.259  10.058  68.899  1.00  0.00    -0.121 A  
HETATM   28  C   UNL     1      -8.165   9.283  67.728  1.00  0.00    -0.115 A  
HETATM   29  C   UNL     1      -6.949   9.139  67.051  1.00  0.00    -0.081 A  
HETATM   30  C   UNL     1      -5.804   9.763  67.541  1.00  0.00    -0.050 A  
HETATM   31  C   UNL     1      -5.876  10.508  68.720  1.00  0.00    -0.040 A  
HETATM   32  C   UNL     1      -7.093  10.637  69.406  1.00  0.00    -0.120 A  
ENDBRANCH  19  27
ENDBRANCH   2  15
TORSDOF 4
ENDMDL
MODEL       45
REMARK 921   NORMALIZED FREE ENERGY PREDICTED BY IDOCK:   -7.01 KCAL/MOL
REMARK 922        TOTAL FREE ENERGY PREDICTED BY IDOCK:   -9.53 KCAL/MOL
REMARK 923 INTER-LIGAND FREE ENERGY PREDICTED BY IDOCK:   -8.38 KCAL/MOL
REMARK 924 INTRA-LIGAND FREE ENERGY PREDICTED BY IDOCK:   -1.15 KCAL/MOL
REMARK 927      BINDING AFFINITY PREDICTED BY RF-SCORE:    0.00 PKD
ROOT
HETATM    1  C   UNL     1     -12.043  10.750  70.527  1.00  0.00    -0.459 C  
HETATM    2  C   UNL     1     -11.582  11.876  69.603  1.00  0.00    -0.317 C  
ENDROOT
BRANCH   2   3
HETATM    3  N   UNL     1     -12.502  13.005  69.553  1.00  0.00     0.022 NA 
HETATM    4  H   UNL     1     -13.443  12.890  69.179  1.00  0.00     0.000 HD 
BRANCH   3   5
HETATM    5  C   UNL     1     -12.075  14.244  70.025  1.00  0.00    -0.340 A  
HETATM    6  C   UNL     1     -11.871  15.906  71.719  1.00  0.00    -0.497 A  
HETATM    7  N   UNL     1     -11.172  16.778  70.982  1.00  0.00     0.108 NA 
HETATM    8  C   UNL     1     -12.941  14.928  73.380  1.00  0.00    -0.474 A  
HETATM    9  H   UNL     1     -13.485  13.153  72.395  1.00  0.00     0.000 HD 
HETATM   10  N   UNL     1     -13.026  14.065  72.390  1.00  0.00    -0.386 NA 
HETATM   11  C   UNL     1     -10.974  16.289  69.742  1.00  0.00    -0.354 A  
HETATM   12  C   UNL     1     -12.357  14.666  71.340  1.00  0.00    -0.348 A  
HETATM   13  N   UNL     1     -12.245  16.052  73.022  1.00  0.00    -0.489 NA 
HETATM   14  N   UNL     1     -11.372  15.101  69.234  1.00  0.00    -0.281 NA 
ENDBRANCH   3   5
ENDBRANCH   2   3
BRANCH   2  15
HETATM   15  C   UNL     1     -11.138  11.536  68.170  1.00  0.00    -0.246 C  
HETATM   16  O   UNL     1      -8.784   9.776  66.076  1.00  0.00    -0.135 OA 
HETATM   17  C   UNL     1     -11.897  12.097  67.209  1.00  0.00    -0.293 C  
HETATM   18  C   UNL     1     -11.571  12.007  65.800  1.00  0.00    -0.353 A  
HETATM   19  N   UNL     1     -10.005  10.774  67.804  1.00  0.00    -0.169 N  
HETATM   20  C   UNL     1     -12.326  12.758  64.887  1.00  0.00    -0.551 A  
HETATM   21  C   UNL     1      -9.696  10.523  66.426  1.00  0.00    -0.198 C  
HETATM   22  C   UNL     1     -10.509  11.206  65.373  1.00  0.00    -0.321 A  
HETATM   23 CL   UNL     1      -9.018  10.146  63.274  1.00  0.00    -0.230 Cl 
HETATM   24  C   UNL     1     -12.033  12.713  63.531  1.00  0.00    -0.630 A  
HETATM   25  C   UNL     1     -11.001  11.891  63.087  1.00  0.00    -0.281 A  
HETATM   26  C   UNL     1     -10.245  11.131  63.993  1.00  0.00    -0.361 A  
BRANCH  19  27
HETATM   27  C   UNL     1      -9.052  10.228  68.734  1.00  0.00    -0.159 A  
HETATM   28  C   UNL     1      -7.904  10.977  69.053  1.00  0.00    -0.126 A  
HETATM   29  C   UNL     1      -6.953  10.493  69.959  1.00  0.00    -0.150 A  
HETATM   30  C   UNL     1      -7.134   9.248  70.556  1.00  0.00    -0.100 A  
HETATM   31  C   UNL     1      -8.253   8.481  70.224  1.00  0.00    -0.115 A  
HETATM   32  C   UNL     1      -9.195   8.959  69.302  1.00  0.00    -0.145 A  
ENDBRANCH  19  27
ENDBRANCH   2  15
TORSDOF 4
ENDMDL
MODEL       46
REMARK 921   NORMALIZED FREE ENERGY PREDICTED BY IDOCK:   -6.94 KCAL/MOL
REMARK 922        TOTAL FREE ENERGY PREDICTED BY IDOCK:   -9.44 KCAL/MOL
REMARK 923 INTER-LIGAND FREE ENERGY PREDICTED BY IDOCK:   -9.13 KCAL/MOL
REMARK 924 INTRA-LIGAND FREE ENERGY PREDICTED BY IDOCK:   -0.31 KCAL/MOL
REMARK 927      BINDING AFFINITY PREDICTED BY RF-SCORE:    0.00 PKD
ROOT
HETATM    1  C   UNL     1     -11.103  15.775  66.393  1.00  0.00    -0.070 C  
HETATM    2  C   UNL     1     -11.637  15.383  67.769  1.00  0.00    -0.228 C  
ENDROOT
BRANCH   2   3
HETATM    3  N   UNL     1     -11.189  16.259  68.843  1.00  0.00    -0.343 NA 
HETATM    4  H   UNL     1     -11.787  16.440  69.648  1.00  0.00     0.000 HD 
BRANCH   3   5
HETATM    5  C   UNL     1      -9.929  16.847  68.751  1.00  0.00    -0.276 A  
HETATM    6  C   UNL     1      -8.476  18.665  68.247  1.00  0.00    -0.324 A  
HETATM    7  N   UNL     1      -7.341  18.042  68.592  1.00  0.00    -0.275 NA 
HETATM    8  C   UNL     1      -9.931  20.174  67.566  1.00  0.00    -0.430 A  
HETATM    9  H   UNL     1     -11.681  19.030  67.772  1.00  0.00     0.000 HD 
HETATM   10  N   UNL     1     -10.668  19.121  67.851  1.00  0.00    -0.357 NA 
HETATM   11  C   UNL     1      -7.604  16.787  69.007  1.00  0.00    -0.218 A  
HETATM   12  C   UNL     1      -9.766  18.166  68.282  1.00  0.00    -0.337 A  
HETATM   13  N   UNL     1      -8.601  19.945  67.798  1.00  0.00    -0.319 NA 
HETATM   14  N   UNL     1      -8.803  16.169  69.106  1.00  0.00    -0.252 NA 
ENDBRANCH   3   5
ENDBRANCH   2   3
BRANCH   2  15
HETATM   15  C   UNL     1     -11.505  13.922  68.235  1.00  0.00    -0.311 C  
HETATM   16  O   UNL     1     -12.100  11.527  70.868  1.00  0.00    -0.349 OA 
HETATM   17  C   UNL     1     -10.921  13.107  67.336  1.00  0.00    -0.283 C  
HETATM   18  C   UNL     1     -10.587  11.728  67.628  1.00  0.00    -0.237 A  
HETATM   19  N   UNL     1     -11.868  13.412  69.502  1.00  0.00    -0.316 N  
HETATM   20  C   UNL     1      -9.835  11.005  66.690  1.00  0.00    -0.235 A  
HETATM   21  C   UNL     1     -11.695  12.023  69.818  1.00  0.00    -0.319 C  
HETATM   22  C   UNL     1     -10.988  11.147  68.834  1.00  0.00    -0.276 A  
HETATM   23 CL   UNL     1     -11.125   8.893  70.465  1.00  0.00    -0.278 Cl 
HETATM   24  C   UNL     1      -9.479   9.687  66.943  1.00  0.00    -0.198 A  
HETATM   25  C   UNL     1      -9.902   9.084  68.123  1.00  0.00    -0.191 A  
HETATM   26  C   UNL     1     -10.661   9.798  69.064  1.00  0.00    -0.219 A  
BRANCH  19  27
HETATM   27  C   UNL     1     -12.383  14.207  70.586  1.00  0.00    -0.365 A  
HETATM   28  C   UNL     1     -13.776  14.342  70.732  1.00  0.00     0.124 A  
HETATM   29  C   UNL     1     -14.324  15.096  71.776  1.00  0.00    -0.696 A  
HETATM   30  C   UNL     1     -13.486  15.734  72.687  1.00  0.00    -0.624 A  
HETATM   31  C   UNL     1     -12.101  15.635  72.534  1.00  0.00    -0.563 A  
HETATM   32  C   UNL     1     -11.553  14.893  71.477  1.00  0.00    -0.361 A  
ENDBRANCH  19  27
ENDBRANCH   2  15
TORSDOF 4
ENDMDL
MODEL       47
REMARK 921   NORMALIZED FREE ENERGY PREDICTED BY IDOCK:   -6.93 KCAL/MOL
REMARK 922        TOTAL FREE ENERGY PREDICTED BY IDOCK:   -9.43 KCAL/MOL
REMARK 923 INTER-LIGAND FREE ENERGY PREDICTED BY IDOCK:   -8.03 KCAL/MOL
REMARK 924 INTRA-LIGAND FREE ENERGY PREDICTED BY IDOCK:   -1.40 KCAL/MOL
REMARK 927      BINDING AFFINITY PREDICTED BY RF-SCORE:    0.00 PKD
ROOT
HETATM    1  C   UNL     1      -7.430  12.973  67.823  1.00  0.00    -0.146 C  
HETATM    2  C   UNL     1      -8.809  12.470  67.399  1.00  0.00    -0.187 C  
ENDROOT
BRANCH   2   3
HETATM    3  N   UNL     1      -9.885  13.413  67.673  1.00  0.00    -0.221 NA 
HETATM    4  H   UNL     1     -10.274  13.497  68.612  1.00  0.00     0.000 HD 
BRANCH   3   5
HETATM    5  C   UNL     1     -10.375  14.197  66.632  1.00  0.00    -0.277 A  
HETATM    6  C   UNL     1     -11.769  14.563  64.735  1.00  0.00    -0.422 A  
HETATM    7  N   UNL     1     -11.384  15.828  64.516  1.00  0.00    -0.392 NA 
HETATM    8  C   UNL     1     -12.781  12.610  64.590  1.00  0.00    -0.377 A  
HETATM    9  H   UNL     1     -11.845  11.656  66.211  1.00  0.00     0.000 HD 
HETATM   10  N   UNL     1     -11.971  12.478  65.620  1.00  0.00    -0.488 NA 
HETATM   11  C   UNL     1     -10.460  16.199  65.423  1.00  0.00    -0.373 A  
HETATM   12  C   UNL     1     -11.330  13.699  65.723  1.00  0.00    -0.306 A  
HETATM   13  N   UNL     1     -12.696  13.857  64.029  1.00  0.00    -0.598 NA 
HETATM   14  N   UNL     1      -9.947  15.477  66.445  1.00  0.00    -0.267 NA 
ENDBRANCH   3   5
ENDBRANCH   2   3
BRANCH   2  15
HETATM   15  C   UNL     1      -9.260  11.064  67.834  1.00  0.00    -0.155 C  
HETATM   16  O   UNL     1      -9.484   7.566  66.977  1.00  0.00    -0.146 OA 
HETATM   17  C   UNL     1      -9.838  11.021  69.050  1.00  0.00    -0.165 C  
HETATM   18  C   UNL     1     -10.446   9.821  69.587  1.00  0.00    -0.263 A  
HETATM   19  N   UNL     1      -9.182   9.884  67.060  1.00  0.00    -0.141 N  
HETATM   20  C   UNL     1     -11.166   9.912  70.788  1.00  0.00    -0.427 A  
HETATM   21  C   UNL     1      -9.638   8.627  67.579  1.00  0.00    -0.157 C  
HETATM   22  C   UNL     1     -10.334   8.608  68.903  1.00  0.00    -0.228 A  
HETATM   23 CL   UNL     1     -10.832   5.870  68.808  1.00  0.00    -0.365 Cl 
HETATM   24  C   UNL     1     -11.778   8.788  71.324  1.00  0.00    -0.356 A  
HETATM   25  C   UNL     1     -11.645   7.566  70.673  1.00  0.00    -0.272 A  
HETATM   26  C   UNL     1     -10.921   7.465  69.475  1.00  0.00    -0.139 A  
BRANCH  19  27
HETATM   27  C   UNL     1      -8.702   9.826  65.704  1.00  0.00    -0.148 A  
HETATM   28  C   UNL     1      -9.605  10.049  64.649  1.00  0.00    -0.363 A  
HETATM   29  C   UNL     1      -9.184  10.012  63.315  1.00  0.00    -0.317 A  
HETATM   30  C   UNL     1      -7.850   9.746  63.015  1.00  0.00    -0.133 A  
HETATM   31  C   UNL     1      -6.949   9.491  64.052  1.00  0.00    -0.105 A  
HETATM   32  C   UNL     1      -7.377   9.510  65.387  1.00  0.00    -0.099 A  
ENDBRANCH  19  27
ENDBRANCH   2  15
TORSDOF 4
ENDMDL
MODEL       48
REMARK 921   NORMALIZED FREE ENERGY PREDICTED BY IDOCK:   -6.90 KCAL/MOL
REMARK 922        TOTAL FREE ENERGY PREDICTED BY IDOCK:   -9.39 KCAL/MOL
REMARK 923 INTER-LIGAND FREE ENERGY PREDICTED BY IDOCK:   -8.39 KCAL/MOL
REMARK 924 INTRA-LIGAND FREE ENERGY PREDICTED BY IDOCK:   -1.00 KCAL/MOL
REMARK 927      BINDING AFFINITY PREDICTED BY RF-SCORE:    0.00 PKD
ROOT
HETATM    1  C   UNL     1     -11.625  12.843  65.989  1.00  0.00    -0.424 C  
HETATM    2  C   UNL     1     -11.141  13.030  67.426  1.00  0.00    -0.272 C  
ENDROOT
BRANCH   2   3
HETATM    3  N   UNL     1      -9.906  13.796  67.532  1.00  0.00    -0.226 NA 
HETATM    4  H   UNL     1      -9.010  13.368  67.302  1.00  0.00     0.000 HD 
BRANCH   3   5
HETATM    5  C   UNL     1      -9.970  15.122  67.953  1.00  0.00    -0.221 A  
HETATM    6  C   UNL     1      -9.305  17.407  67.850  1.00  0.00    -0.267 A  
HETATM    7  N   UNL     1     -10.130  17.840  68.812  1.00  0.00    -0.375 NA 
HETATM    8  C   UNL     1      -7.796  17.321  66.246  1.00  0.00    -0.309 A  
HETATM    9  H   UNL     1      -7.887  15.260  65.846  1.00  0.00     0.000 HD 
HETATM   10  N   UNL     1      -8.203  16.075  66.372  1.00  0.00    -0.297 NA 
HETATM   11  C   UNL     1     -10.849  16.814  69.308  1.00  0.00    -0.275 A  
HETATM   12  C   UNL     1      -9.153  16.116  67.376  1.00  0.00    -0.195 A  
HETATM   13  N   UNL     1      -8.441  18.161  67.114  1.00  0.00    -0.238 NA 
HETATM   14  N   UNL     1     -10.820  15.513  68.942  1.00  0.00    -0.241 NA 
ENDBRANCH   3   5
ENDBRANCH   2   3
BRANCH   2  15
HETATM   15  C   UNL     1     -11.044  11.804  68.350  1.00  0.00    -0.237 C  
HETATM   16  O   UNL     1      -9.497   8.601  68.965  1.00  0.00    -0.152 OA 
HETATM   17  C   UNL     1     -11.858  11.855  69.422  1.00  0.00    -0.389 C  
HETATM   18  C   UNL     1     -12.013  10.746  70.342  1.00  0.00    -0.448 A  
HETATM   19  N   UNL     1     -10.257  10.650  68.130  1.00  0.00    -0.162 N  
HETATM   20  C   UNL     1     -13.001  10.830  71.334  1.00  0.00    -0.535 A  
HETATM   21  C   UNL     1     -10.251   9.568  69.071  1.00  0.00    -0.200 C  
HETATM   22  C   UNL     1     -11.206   9.612  70.220  1.00  0.00    -0.324 A  
HETATM   23 CL   UNL     1     -10.431   7.122  71.198  1.00  0.00    -0.221 Cl 
HETATM   24  C   UNL     1     -13.192   9.781  72.223  1.00  0.00    -0.468 A  
HETATM   25  C   UNL     1     -12.373   8.660  72.136  1.00  0.00    -0.452 A  
HETATM   26  C   UNL     1     -11.377   8.571  71.151  1.00  0.00    -0.270 A  
BRANCH  19  27
HETATM   27  C   UNL     1      -9.445  10.426  66.962  1.00  0.00    -0.163 A  
HETATM   28  C   UNL     1      -8.104  10.849  66.971  1.00  0.00    -0.131 A  
HETATM   29  C   UNL     1      -7.273  10.644  65.863  1.00  0.00    -0.119 A  
HETATM   30  C   UNL     1      -7.775  10.017  64.725  1.00  0.00    -0.142 A  
HETATM   31  C   UNL     1      -9.114   9.621  64.691  1.00  0.00    -0.286 A  
HETATM   32  C   UNL     1      -9.950   9.844  65.796  1.00  0.00    -0.347 A  
ENDBRANCH  19  27
ENDBRANCH   2  15
TORSDOF 4
ENDMDL
MODEL       49
REMARK 921   NORMALIZED FREE ENERGY PREDICTED BY IDOCK:   -6.88 KCAL/MOL
REMARK 922        TOTAL FREE ENERGY PREDICTED BY IDOCK:   -9.36 KCAL/MOL
REMARK 923 INTER-LIGAND FREE ENERGY PREDICTED BY IDOCK:   -8.25 KCAL/MOL
REMARK 924 INTRA-LIGAND FREE ENERGY PREDICTED BY IDOCK:   -1.12 KCAL/MOL
REMARK 927      BINDING AFFINITY PREDICTED BY RF-SCORE:    0.00 PKD
ROOT
HETATM    1  C   UNL     1      -8.253   7.878  65.324  1.00  0.00    -0.147 C  
HETATM    2  C   UNL     1      -9.258   8.228  66.420  1.00  0.00    -0.195 C  
ENDROOT
BRANCH   2   3
HETATM    3  N   UNL     1     -10.319   7.242  66.578  1.00  0.00    -0.495 NA 
HETATM    4  H   UNL     1     -11.188   7.327  66.050  1.00  0.00     0.000 HD 
BRANCH   3   5
HETATM    5  C   UNL     1     -10.128   6.182  67.461  1.00  0.00    -0.158 A  
HETATM    6  C   UNL     1      -9.493   3.945  67.972  1.00  0.00    -0.165 A  
HETATM    7  N   UNL     1      -9.722   4.027  69.289  1.00  0.00    -0.172 NA 
HETATM    8  C   UNL     1      -8.934   3.212  65.969  1.00  0.00    -0.146 A  
HETATM    9  H   UNL     1      -9.346   4.958  64.875  1.00  0.00     0.000 HD 
HETATM   10  N   UNL     1      -9.316   4.455  65.763  1.00  0.00    -0.150 NA 
HETATM   11  C   UNL     1     -10.175   5.255  69.609  1.00  0.00    -0.278 A  
HETATM   12  C   UNL     1      -9.669   4.927  67.013  1.00  0.00    -0.177 A  
HETATM   13  N   UNL     1      -9.017   2.864  67.291  1.00  0.00    -0.147 NA 
HETATM   14  N   UNL     1     -10.384   6.313  68.792  1.00  0.00    -0.184 NA 
ENDBRANCH   3   5
ENDBRANCH   2   3
BRANCH   2  15
HETATM   15  C   UNL     1      -9.881   9.635  66.443  1.00  0.00    -0.244 C  
HETATM   16  O   UNL     1     -11.031  12.396  68.462  1.00  0.00    -0.222 OA 
HETATM   17  C   UNL     1     -10.157  10.136  65.223  1.00  0.00    -0.344 C  
HETATM   18  C   UNL     1     -10.862  11.387  65.030  1.00  0.00    -0.311 A  
HETATM   19  N   UNL     1     -10.236  10.374  67.594  1.00  0.00    -0.190 N  
HETATM   20  C   UNL     1     -11.247  11.748  63.730  1.00  0.00    -0.518 A  
HETATM   21  C   UNL     1     -10.812  11.683  67.484  1.00  0.00    -0.237 C  
HETATM   22  C   UNL     1     -11.170  12.197  66.126  1.00  0.00    -0.386 A  
HETATM   23 CL   UNL     1     -12.242  14.573  67.107  1.00  0.00    -0.309 Cl 
HETATM   24  C   UNL     1     -11.941  12.929  63.508  1.00  0.00    -0.629 A  
HETATM   25  C   UNL     1     -12.223  13.764  64.585  1.00  0.00    -0.440 A  
HETATM   26  C   UNL     1     -11.835  13.414  65.888  1.00  0.00    -0.376 A  
BRANCH  19  27
HETATM   27  C   UNL     1     -10.107   9.895  68.945  1.00  0.00    -0.184 A  
HETATM   28  C   UNL     1     -11.270   9.672  69.705  1.00  0.00    -0.176 A  
HETATM   29  C   UNL     1     -11.195   9.197  71.019  1.00  0.00    -0.380 A  
HETATM   30  C   UNL     1      -9.954   8.944  71.597  1.00  0.00    -0.397 A  
HETATM   31  C   UNL     1      -8.790   9.192  70.865  1.00  0.00    -0.292 A  
HETATM   32  C   UNL     1      -8.866   9.685  69.554  1.00  0.00    -0.197 A  
ENDBRANCH  19  27
ENDBRANCH   2  15
TORSDOF 4
ENDMDL
MODEL       50
REMARK 921   NORMALIZED FREE ENERGY PREDICTED BY IDOCK:   -6.87 KCAL/MOL
REMARK 922        TOTAL FREE ENERGY PREDICTED BY IDOCK:   -9.35 KCAL/MOL
REMARK 923 INTER-LIGAND FREE ENERGY PREDICTED BY IDOCK:   -8.45 KCAL/MOL
REMARK 924 INTRA-LIGAND FREE ENERGY PREDICTED BY IDOCK:   -0.90 KCAL/MOL
REMARK 927      BINDING AFFINITY PREDICTED BY RF-SCORE:    0.00 PKD
ROOT
HETATM    1  C   UNL     1     -10.221  12.620  65.721  1.00  0.00    -0.288 C  
HETATM    2  C   UNL     1      -9.640  12.970  67.090  1.00  0.00    -0.230 C  
ENDROOT
BRANCH   2   3
HETATM    3  N   UNL     1      -8.704  11.977  67.600  1.00  0.00    -0.158 NA 
HETATM    4  H   UNL     1      -8.273  12.093  68.517  1.00  0.00     0.000 HD 
BRANCH   3   5
HETATM    5  C   UNL     1      -8.408  10.865  66.815  1.00  0.00    -0.138 A  
HETATM    6  C   UNL     1      -8.797   8.634  66.077  1.00  0.00    -0.178 A  
HETATM    7  N   UNL     1      -7.800   8.603  65.183  1.00  0.00    -0.104 NA 
HETATM    8  C   UNL     1     -10.534   8.090  67.320  1.00  0.00    -0.314 A  
HETATM    9  H   UNL     1     -10.723   9.888  68.390  1.00  0.00     0.000 HD 
HETATM   10  N   UNL     1     -10.247   9.321  67.688  1.00  0.00    -0.215 NA 
HETATM   11  C   UNL     1      -7.136   9.775  65.181  1.00  0.00    -0.121 A  
HETATM   12  C   UNL     1      -9.158   9.676  66.913  1.00  0.00    -0.138 A  
HETATM   13  N   UNL     1      -9.688   7.637  66.343  1.00  0.00    -0.169 NA 
HETATM   14  N   UNL     1      -7.377  10.879  65.926  1.00  0.00    -0.091 NA 
ENDBRANCH   3   5
ENDBRANCH   2   3
BRANCH   2  15
HETATM   15  C   UNL     1     -10.594  13.381  68.225  1.00  0.00    -0.254 C  
HETATM   16  O   UNL     1     -12.087  16.090  70.084  1.00  0.00    -0.303 OA 
HETATM   17  C   UNL     1     -11.167  12.344  68.867  1.00  0.00    -0.330 C  
HETATM   18  C   UNL     1     -11.993  12.510  70.045  1.00  0.00    -0.372 A  
HETATM   19  N   UNL     1     -10.846  14.698  68.671  1.00  0.00    -0.247 N  
HETATM   20  C   UNL     1     -12.412  11.366  70.740  1.00  0.00    -0.460 A  
HETATM   21  C   UNL     1     -11.763  14.953  69.745  1.00  0.00    -0.305 C  
HETATM   22  C   UNL     1     -12.339  13.790  70.487  1.00  0.00    -0.429 A  
HETATM   23 CL   UNL     1     -13.746  15.394  72.277  1.00  0.00    -0.571 Cl 
HETATM   24  C   UNL     1     -13.189  11.485  71.884  1.00  0.00    -0.479 A  
HETATM   25  C   UNL     1     -13.571  12.751  72.315  1.00  0.00    -0.563 A  
HETATM   26  C   UNL     1     -13.163  13.902  71.622  1.00  0.00    -0.370 A  
BRANCH  19  27
HETATM   27  C   UNL     1     -10.201  15.874  68.150  1.00  0.00    -0.232 A  
HETATM   28  C   UNL     1     -10.648  16.415  66.930  1.00  0.00    -0.252 A  
HETATM   29  C   UNL     1     -10.059  17.563  66.388  1.00  0.00    -0.346 A  
HETATM   30  C   UNL     1      -9.007  18.185  67.056  1.00  0.00    -0.263 A  
HETATM   31  C   UNL     1      -8.532  17.640  68.251  1.00  0.00    -0.271 A  
HETATM   32  C   UNL     1      -9.112  16.480  68.784  1.00  0.00    -0.256 A  
ENDBRANCH  19  27
ENDBRANCH   2  15
TORSDOF 4
ENDMDL
MODEL       51
REMARK 921   NORMALIZED FREE ENERGY PREDICTED BY IDOCK:   -6.85 KCAL/MOL
REMARK 922        TOTAL FREE ENERGY PREDICTED BY IDOCK:   -9.32 KCAL/MOL
REMARK 923 INTER-LIGAND FREE ENERGY PREDICTED BY IDOCK:   -8.47 KCAL/MOL
REMARK 924 INTRA-LIGAND FREE ENERGY PREDICTED BY IDOCK:   -0.86 KCAL/MOL
REMARK 927      BINDING AFFINITY PREDICTED BY RF-SCORE:    0.00 PKD
ROOT
HETATM    1  C   UNL     1     -10.693  11.121  64.375  1.00  0.00    -0.388 C  
HETATM    2  C   UNL     1     -10.660  11.973  65.643  1.00  0.00    -0.265 C  
ENDROOT
BRANCH   2   3
HETATM    3  N   UNL     1      -9.767  13.121  65.553  1.00  0.00    -0.480 NA 
HETATM    4  H   UNL     1      -8.770  13.017  65.735  1.00  0.00     0.000 HD 
BRANCH   3   5
HETATM    5  C   UNL     1     -10.299  14.364  65.216  1.00  0.00    -0.403 A  
HETATM    6  C   UNL     1     -10.284  16.745  65.233  1.00  0.00     0.059 A  
HETATM    7  N   UNL     1     -11.390  16.901  64.495  1.00  0.00    -1.002 NA 
HETATM    8  C   UNL     1      -8.471  17.133  66.426  1.00  0.00    -0.272 A  
HETATM    9  H   UNL     1      -7.923  15.141  66.812  1.00  0.00     0.000 HD 
HETATM   10  N   UNL     1      -8.555  15.820  66.385  1.00  0.00    -0.307 NA 
HETATM   11  C   UNL     1     -11.903  15.701  64.161  1.00  0.00    -0.068 A  
HETATM   12  C   UNL     1      -9.690  15.563  65.638  1.00  0.00    -0.320 A  
HETATM   13  N   UNL     1      -9.491  17.733  65.737  1.00  0.00    -0.482 NA 
HETATM   14  N   UNL     1     -11.432  14.471  64.469  1.00  0.00    -0.367 NA 
ENDBRANCH   3   5
ENDBRANCH   2   3
BRANCH   2  15
HETATM   15  C   UNL     1     -10.448  11.286  67.002  1.00  0.00    -0.234 C  
HETATM   16  O   UNL     1      -8.325   9.178  69.022  1.00  0.00    -0.121 OA 
HETATM   17  C   UNL     1     -11.436  11.505  67.892  1.00  0.00    -0.372 C  
HETATM   18  C   UNL     1     -11.491  10.845  69.180  1.00  0.00    -0.373 A  
HETATM   19  N   UNL     1      -9.382  10.424  67.347  1.00  0.00    -0.145 N  
HETATM   20  C   UNL     1     -12.638  11.010  69.971  1.00  0.00    -0.240 A  
HETATM   21  C   UNL     1      -9.294   9.842  68.655  1.00  0.00    -0.147 C  
HETATM   22  C   UNL     1     -10.430  10.043  69.607  1.00  0.00    -0.275 A  
HETATM   23 CL   UNL     1      -9.280   8.470  71.598  1.00  0.00    -0.277 Cl 
HETATM   24  C   UNL     1     -12.737  10.379  71.204  1.00  0.00    -0.514 A  
HETATM   25  C   UNL     1     -11.672   9.606  71.657  1.00  0.00    -0.439 A  
HETATM   26  C   UNL     1     -10.518   9.441  70.876  1.00  0.00    -0.310 A  
BRANCH  19  27
HETATM   27  C   UNL     1      -8.337  10.016  66.445  1.00  0.00    -0.126 A  
HETATM   28  C   UNL     1      -8.520   8.857  65.667  1.00  0.00    -0.171 A  
HETATM   29  C   UNL     1      -7.537   8.426  64.769  1.00  0.00    -0.102 A  
HETATM   30  C   UNL     1      -6.351   9.145  64.640  1.00  0.00    -0.071 A  
HETATM   31  C   UNL     1      -6.143  10.278  65.430  1.00  0.00    -0.120 A  
HETATM   32  C   UNL     1      -7.122  10.699  66.342  1.00  0.00    -0.134 A  
ENDBRANCH  19  27
ENDBRANCH   2  15
TORSDOF 4
ENDMDL
MODEL       52
REMARK 921   NORMALIZED FREE ENERGY PREDICTED BY IDOCK:   -6.83 KCAL/MOL
REMARK 922        TOTAL FREE ENERGY PREDICTED BY IDOCK:   -9.30 KCAL/MOL
REMARK 923 INTER-LIGAND FREE ENERGY PREDICTED BY IDOCK:   -7.97 KCAL/MOL
REMARK 924 INTRA-LIGAND FREE ENERGY PREDICTED BY IDOCK:   -1.34 KCAL/MOL
REMARK 927      BINDING AFFINITY PREDICTED BY RF-SCORE:    0.00 PKD
ROOT
HETATM    1  C   UNL     1      -6.654  13.197  67.577  1.00  0.00    -0.159 C  
HETATM    2  C   UNL     1      -8.130  12.881  67.344  1.00  0.00    -0.181 C  
ENDROOT
BRANCH   2   3
HETATM    3  N   UNL     1      -9.037  13.864  67.921  1.00  0.00    -0.186 NA 
HETATM    4  H   UNL     1      -9.320  13.797  68.898  1.00  0.00     0.000 HD 
BRANCH   3   5
HETATM    5  C   UNL     1      -9.512  14.897  67.116  1.00  0.00    -0.225 A  
HETATM    6  C   UNL     1     -10.238  17.137  66.761  1.00  0.00    -0.311 A  
HETATM    7  N   UNL     1     -10.463  17.009  65.447  1.00  0.00    -0.644 NA 
HETATM    8  C   UNL     1     -10.053  17.954  68.800  1.00  0.00    -0.384 A  
HETATM    9  H   UNL     1      -9.375  16.217  69.768  1.00  0.00     0.000 HD 
HETATM   10  N   UNL     1      -9.679  16.698  68.921  1.00  0.00    -0.248 NA 
HETATM   11  C   UNL     1     -10.186  15.753  65.046  1.00  0.00    -0.111 A  
HETATM   12  C   UNL     1      -9.789  16.173  67.647  1.00  0.00    -0.236 A  
HETATM   13  N   UNL     1     -10.392  18.265  67.510  1.00  0.00    -0.380 NA 
HETATM   14  N   UNL     1      -9.733  14.715  65.785  1.00  0.00    -0.320 NA 
ENDBRANCH   3   5
ENDBRANCH   2   3
BRANCH   2  15
HETATM   15  C   UNL     1      -8.655  11.472  67.670  1.00  0.00    -0.135 C  
HETATM   16  O   UNL     1     -10.845   8.768  66.711  1.00  0.00    -0.136 OA 
HETATM   17  C   UNL     1      -8.128  10.930  68.786  1.00  0.00    -0.145 C  
HETATM   18  C   UNL     1      -8.582   9.670  69.337  1.00  0.00    -0.160 A  
HETATM   19  N   UNL     1      -9.655  10.766  66.962  1.00  0.00    -0.168 N  
HETATM   20  C   UNL     1      -8.089   9.266  70.586  1.00  0.00    -0.207 A  
HETATM   21  C   UNL     1     -10.060   9.451  67.367  1.00  0.00    -0.215 C  
HETATM   22  C   UNL     1      -9.512   8.892  68.641  1.00  0.00    -0.153 A  
HETATM   23 CL   UNL     1     -10.994   6.541  68.463  1.00  0.00    -0.351 Cl 
HETATM   24  C   UNL     1      -8.515   8.074  71.156  1.00  0.00    -0.134 A  
HETATM   25  C   UNL     1      -9.413   7.272  70.458  1.00  0.00    -0.165 A  
HETATM   26  C   UNL     1      -9.906   7.665  69.204  1.00  0.00    -0.171 A  
BRANCH  19  27
HETATM   27  C   UNL     1     -10.379  11.288  65.833  1.00  0.00    -0.253 A  
HETATM   28  C   UNL     1      -9.802  11.204  64.553  1.00  0.00    -0.330 A  
HETATM   29  C   UNL     1     -10.471  11.689  63.424  1.00  0.00    -0.482 A  
HETATM   30  C   UNL     1     -11.728  12.273  63.560  1.00  0.00    -0.584 A  
HETATM   31  C   UNL     1     -12.299  12.393  64.829  1.00  0.00    -0.497 A  
HETATM   32  C   UNL     1     -11.618  11.922  65.962  1.00  0.00    -0.296 A  
ENDBRANCH  19  27
ENDBRANCH   2  15
TORSDOF 4
ENDMDL
MODEL       53
REMARK 921   NORMALIZED FREE ENERGY PREDICTED BY IDOCK:   -6.82 KCAL/MOL
REMARK 922        TOTAL FREE ENERGY PREDICTED BY IDOCK:   -9.28 KCAL/MOL
REMARK 923 INTER-LIGAND FREE ENERGY PREDICTED BY IDOCK:   -8.50 KCAL/MOL
REMARK 924 INTRA-LIGAND FREE ENERGY PREDICTED BY IDOCK:   -0.78 KCAL/MOL
REMARK 927      BINDING AFFINITY PREDICTED BY RF-SCORE:    0.00 PKD
ROOT
HETATM    1  C   UNL     1     -12.292  14.166  66.277  1.00  0.00    -0.451 C  
HETATM    2  C   UNL     1     -11.718  13.295  67.393  1.00  0.00    -0.373 C  
ENDROOT
BRANCH   2   3
HETATM    3  N   UNL     1     -11.664  13.963  68.687  1.00  0.00    -0.339 NA 
HETATM    4  H   UNL     1     -11.251  14.891  68.775  1.00  0.00     0.000 HD 
BRANCH   3   5
HETATM    5  C   UNL     1     -12.187  13.313  69.803  1.00  0.00    -0.222 A  
HETATM    6  C   UNL     1     -13.295  13.291  71.910  1.00  0.00    -0.451 A  
HETATM    7  N   UNL     1     -13.272  11.962  72.072  1.00  0.00    -0.456 NA 
HETATM    8  C   UNL     1     -13.646  15.447  72.209  1.00  0.00    -0.503 A  
HETATM    9  H   UNL     1     -12.749  16.153  70.445  1.00  0.00     0.000 HD 
HETATM   10  N   UNL     1     -13.014  15.380  71.056  1.00  0.00    -0.466 NA 
HETATM   11  C   UNL     1     -12.661  11.374  71.025  1.00  0.00    -0.386 A  
HETATM   12  C   UNL     1     -12.789  14.031  70.856  1.00  0.00    -0.318 A  
HETATM   13  N   UNL     1     -13.844  14.208  72.757  1.00  0.00    -0.654 NA 
HETATM   14  N   UNL     1     -12.132  11.958  69.925  1.00  0.00    -0.294 NA 
ENDBRANCH   3   5
ENDBRANCH   2   3
BRANCH   2  15
HETATM   15  C   UNL     1     -10.387  12.559  67.160  1.00  0.00    -0.220 C  
HETATM   16  O   UNL     1      -6.786  12.783  67.084  1.00  0.00    -0.125 OA 
HETATM   17  C   UNL     1     -10.525  11.260  66.833  1.00  0.00    -0.286 C  
HETATM   18  C   UNL     1      -9.405  10.425  66.447  1.00  0.00    -0.197 A  
HETATM   19  N   UNL     1      -9.096  13.134  67.191  1.00  0.00    -0.222 N  
HETATM   20  C   UNL     1      -9.664   9.133  65.967  1.00  0.00    -0.358 A  
HETATM   21  C   UNL     1      -7.926  12.339  66.956  1.00  0.00    -0.123 C  
HETATM   22  C   UNL     1      -8.099  10.916  66.532  1.00  0.00    -0.154 A  
HETATM   23 CL   UNL     1      -5.363  10.469  66.268  1.00  0.00    -0.059 Cl 
HETATM   24  C   UNL     1      -8.619   8.310  65.571  1.00  0.00    -0.183 A  
HETATM   25  C   UNL     1      -7.311   8.772  65.684  1.00  0.00    -0.085 A  
HETATM   26  C   UNL     1      -7.042  10.061  66.169  1.00  0.00    -0.108 A  
BRANCH  19  27
HETATM   27  C   UNL     1      -8.830  14.533  67.405  1.00  0.00    -0.198 A  
HETATM   28  C   UNL     1      -8.519  14.979  68.702  1.00  0.00    -0.168 A  
HETATM   29  C   UNL     1      -8.244  16.327  68.958  1.00  0.00    -0.238 A  
HETATM   30  C   UNL     1      -8.281  17.252  67.918  1.00  0.00    -0.219 A  
HETATM   31  C   UNL     1      -8.620  16.829  66.631  1.00  0.00    -0.287 A  
HETATM   32  C   UNL     1      -8.913  15.480  66.380  1.00  0.00    -0.359 A  
ENDBRANCH  19  27
ENDBRANCH   2  15
TORSDOF 4
ENDMDL
MODEL       54
REMARK 921   NORMALIZED FREE ENERGY PREDICTED BY IDOCK:   -6.76 KCAL/MOL
REMARK 922        TOTAL FREE ENERGY PREDICTED BY IDOCK:   -9.21 KCAL/MOL
REMARK 923 INTER-LIGAND FREE ENERGY PREDICTED BY IDOCK:   -8.23 KCAL/MOL
REMARK 924 INTRA-LIGAND FREE ENERGY PREDICTED BY IDOCK:   -0.98 KCAL/MOL
REMARK 927      BINDING AFFINITY PREDICTED BY RF-SCORE:    0.00 PKD
ROOT
HETATM    1  C   UNL     1     -10.643   8.105  68.656  1.00  0.00    -0.144 C  
HETATM    2  C   UNL     1     -10.576   8.985  69.903  1.00  0.00    -0.228 C  
ENDROOT
BRANCH   2   3
HETATM    3  N   UNL     1     -11.208   8.392  71.073  1.00  0.00    -0.260 NA 
HETATM    4  H   UNL     1     -12.224   8.336  71.142  1.00  0.00     0.000 HD 
BRANCH   3   5
HETATM    5  C   UNL     1     -10.403   7.901  72.098  1.00  0.00    -0.237 A  
HETATM    6  C   UNL     1      -9.790   6.245  73.697  1.00  0.00    -0.190 A  
HETATM    7  N   UNL     1      -8.728   6.901  74.182  1.00  0.00    -0.155 NA 
HETATM    8  C   UNL     1     -11.343   4.726  73.327  1.00  0.00    -0.322 A  
HETATM    9  H   UNL     1     -12.397   5.725  71.808  1.00  0.00     0.000 HD 
HETATM   10  N   UNL     1     -11.629   5.692  72.480  1.00  0.00    -0.290 NA 
HETATM   11  C   UNL     1      -8.581   8.084  73.556  1.00  0.00    -0.256 A  
HETATM   12  C   UNL     1     -10.660   6.653  72.701  1.00  0.00    -0.222 A  
HETATM   13  N   UNL     1     -10.235   5.014  74.077  1.00  0.00    -0.207 NA 
HETATM   14  N   UNL     1      -9.337   8.609  72.564  1.00  0.00    -0.321 NA 
ENDBRANCH   3   5
ENDBRANCH   2   3
BRANCH   2  15
HETATM   15  C   UNL     1     -11.005  10.459  69.802  1.00  0.00    -0.293 C  
HETATM   16  O   UNL     1     -10.564  13.626  68.128  1.00  0.00    -0.235 OA 
HETATM   17  C   UNL     1     -11.953  10.820  70.689  1.00  0.00    -0.466 C  
HETATM   18  C   UNL     1     -12.400  12.189  70.846  1.00  0.00    -0.370 A  
HETATM   19  N   UNL     1     -10.455  11.434  68.940  1.00  0.00    -0.204 N  
HETATM   20  C   UNL     1     -13.270  12.495  71.904  1.00  0.00    -0.495 A  
HETATM   21  C   UNL     1     -10.944  12.783  68.939  1.00  0.00    -0.231 C  
HETATM   22  C   UNL     1     -11.949  13.181  69.972  1.00  0.00    -0.391 A  
HETATM   23 CL   UNL     1     -12.034  15.835  69.130  1.00  0.00    -0.373 Cl 
HETATM   24  C   UNL     1     -13.705  13.799  72.098  1.00  0.00    -0.634 A  
HETATM   25  C   UNL     1     -13.293  14.791  71.214  1.00  0.00    -0.465 A  
HETATM   26  C   UNL     1     -12.429  14.492  70.149  1.00  0.00    -0.321 A  
BRANCH  19  27
HETATM   27  C   UNL     1      -9.357  11.201  68.039  1.00  0.00    -0.166 A  
HETATM   28  C   UNL     1      -9.630  10.883  66.696  1.00  0.00    -0.213 A  
HETATM   29  C   UNL     1      -8.596  10.658  65.780  1.00  0.00    -0.186 A  
HETATM   30  C   UNL     1      -7.269  10.741  66.197  1.00  0.00    -0.126 A  
HETATM   31  C   UNL     1      -6.984  11.024  67.534  1.00  0.00    -0.086 A  
HETATM   32  C   UNL     1      -8.022  11.232  68.454  1.00  0.00    -0.140 A  
ENDBRANCH  19  27
ENDBRANCH   2  15
TORSDOF 4
ENDMDL
MODEL       55
REMARK 921   NORMALIZED FREE ENERGY PREDICTED BY IDOCK:   -6.74 KCAL/MOL
REMARK 922        TOTAL FREE ENERGY PREDICTED BY IDOCK:   -9.19 KCAL/MOL
REMARK 923 INTER-LIGAND FREE ENERGY PREDICTED BY IDOCK:   -7.89 KCAL/MOL
REMARK 924 INTRA-LIGAND FREE ENERGY PREDICTED BY IDOCK:   -1.30 KCAL/MOL
REMARK 927      BINDING AFFINITY PREDICTED BY RF-SCORE:    0.00 PKD
ROOT
HETATM    1  C   UNL     1     -12.107  12.506  70.358  1.00  0.00    -0.380 C  
HETATM    2  C   UNL     1     -11.037  13.101  69.443  1.00  0.00    -0.079 C  
ENDROOT
BRANCH   2   3
HETATM    3  N   UNL     1     -11.145  14.544  69.279  1.00  0.00    -0.262 NA 
HETATM    4  H   UNL     1     -12.021  15.025  69.481  1.00  0.00     0.000 HD 
BRANCH   3   5
HETATM    5  C   UNL     1     -10.032  15.257  68.841  1.00  0.00    -0.225 A  
HETATM    6  C   UNL     1      -8.837  16.523  67.215  1.00  0.00    -0.192 A  
HETATM    7  N   UNL     1      -7.750  16.735  67.969  1.00  0.00    -0.167 NA 
HETATM    8  C   UNL     1     -10.290  16.533  65.558  1.00  0.00    -0.284 A  
HETATM    9  H   UNL     1     -11.801  15.390  66.464  1.00  0.00     0.000 HD 
HETATM   10  N   UNL     1     -10.881  15.829  66.500  1.00  0.00    -0.276 NA 
HETATM   11  C   UNL     1      -7.893  16.146  69.172  1.00  0.00    -0.232 A  
HETATM   12  C   UNL     1      -9.979  15.816  67.548  1.00  0.00    -0.236 A  
HETATM   13  N   UNL     1      -9.056  16.979  65.950  1.00  0.00    -0.533 NA 
HETATM   14  N   UNL     1      -8.946  15.439  69.642  1.00  0.00    -0.231 NA 
ENDBRANCH   3   5
ENDBRANCH   2   3
BRANCH   2  15
HETATM   15  C   UNL     1     -10.791  12.462  68.065  1.00  0.00    -0.221 C  
HETATM   16  O   UNL     1      -8.624  10.419  66.028  1.00  0.00    -0.141 OA 
HETATM   17  C   UNL     1     -11.747  12.729  67.154  1.00  0.00    -0.443 C  
HETATM   18  C   UNL     1     -11.640  12.332  65.765  1.00  0.00    -0.443 A  
HETATM   19  N   UNL     1      -9.656  11.712  67.681  1.00  0.00    -0.178 N  
HETATM   20  C   UNL     1     -12.604  12.794  64.858  1.00  0.00    -0.541 A  
HETATM   21  C   UNL     1      -9.543  11.165  66.360  1.00  0.00    -0.200 C  
HETATM   22  C   UNL     1     -10.580  11.525  65.344  1.00  0.00    -0.336 A  
HETATM   23 CL   UNL     1      -9.334  10.101  63.300  1.00  0.00    -0.321 Cl 
HETATM   24  C   UNL     1     -12.525  12.450  63.515  1.00  0.00    -0.605 A  
HETATM   25  C   UNL     1     -11.495  11.618  63.087  1.00  0.00    -0.125 A  
HETATM   26  C   UNL     1     -10.530  11.145  63.990  1.00  0.00    -0.383 A  
BRANCH  19  27
HETATM   27  C   UNL     1      -8.516  11.466  68.524  1.00  0.00    -0.152 A  
HETATM   28  C   UNL     1      -7.481  12.418  68.568  1.00  0.00    -0.112 A  
HETATM   29  C   UNL     1      -6.356  12.228  69.379  1.00  0.00    -0.118 A  
HETATM   30  C   UNL     1      -6.248  11.078  70.157  1.00  0.00    -0.146 A  
HETATM   31  C   UNL     1      -7.253  10.110  70.098  1.00  0.00    -0.162 A  
HETATM   32  C   UNL     1      -8.370  10.293  69.271  1.00  0.00    -0.167 A  
ENDBRANCH  19  27
ENDBRANCH   2  15
TORSDOF 4
ENDMDL
MODEL       56
REMARK 921   NORMALIZED FREE ENERGY PREDICTED BY IDOCK:   -6.73 KCAL/MOL
REMARK 922        TOTAL FREE ENERGY PREDICTED BY IDOCK:   -9.18 KCAL/MOL
REMARK 923 INTER-LIGAND FREE ENERGY PREDICTED BY IDOCK:   -8.64 KCAL/MOL
REMARK 924 INTRA-LIGAND FREE ENERGY PREDICTED BY IDOCK:   -0.54 KCAL/MOL
REMARK 927      BINDING AFFINITY PREDICTED BY RF-SCORE:    0.00 PKD
ROOT
HETATM    1  C   UNL     1     -12.410  13.699  67.014  1.00  0.00    -0.277 C  
HETATM    2  C   UNL     1     -11.686  12.548  67.711  1.00  0.00    -0.359 C  
ENDROOT
BRANCH   2   3
HETATM    3  N   UNL     1     -10.824  12.976  68.805  1.00  0.00    -0.276 NA 
HETATM    4  H   UNL     1      -9.892  12.576  68.917  1.00  0.00     0.000 HD 
BRANCH   3   5
HETATM    5  C   UNL     1     -11.292  13.939  69.695  1.00  0.00    -0.200 A  
HETATM    6  C   UNL     1     -12.582  14.634  71.572  1.00  0.00    -0.343 A  
HETATM    7  N   UNL     1     -12.224  15.923  71.523  1.00  0.00    -0.447 NA 
HETATM    8  C   UNL     1     -13.499  12.720  72.167  1.00  0.00    -0.492 A  
HETATM    9  H   UNL     1     -12.667  11.500  70.673  1.00  0.00     0.000 HD 
HETATM   10  N   UNL     1     -12.774  12.415  71.112  1.00  0.00    -0.313 NA 
HETATM   11  C   UNL     1     -11.382  16.137  70.493  1.00  0.00    -0.373 A  
HETATM   12  C   UNL     1     -12.191  13.609  70.728  1.00  0.00    -0.347 A  
HETATM   13  N   UNL     1     -13.407  14.048  72.486  1.00  0.00    -0.503 NA 
HETATM   14  N   UNL     1     -10.905  15.241  69.599  1.00  0.00    -0.270 NA 
ENDBRANCH   3   5
ENDBRANCH   2   3
BRANCH   2  15
HETATM   15  C   UNL     1     -10.929  11.514  66.859  1.00  0.00    -0.296 C  
HETATM   16  O   UNL     1      -9.211   8.341  66.781  1.00  0.00    -0.150 OA 
HETATM   17  C   UNL     1     -10.796  11.858  65.563  1.00  0.00    -0.343 C  
HETATM   18  C   UNL     1     -10.007  11.087  64.624  1.00  0.00    -0.357 A  
HETATM   19  N   UNL     1     -10.329  10.323  67.326  1.00  0.00    -0.218 N  
HETATM   20  C   UNL     1      -9.793  11.608  63.339  1.00  0.00    -0.424 A  
HETATM   21  C   UNL     1      -9.648   9.435  66.428  1.00  0.00    -0.224 C  
HETATM   22  C   UNL     1      -9.454   9.862  65.008  1.00  0.00    -0.343 A  
HETATM   23 CL   UNL     1      -8.012   7.580  64.326  1.00  0.00    -0.132 Cl 
HETATM   24  C   UNL     1      -9.027  10.907  62.417  1.00  0.00    -0.353 A  
HETATM   25  C   UNL     1      -8.500   9.670  62.774  1.00  0.00    -0.179 A  
HETATM   26  C   UNL     1      -8.716   9.137  64.055  1.00  0.00    -0.137 A  
BRANCH  19  27
HETATM   27  C   UNL     1     -10.295   9.912  68.705  1.00  0.00    -0.195 A  
HETATM   28  C   UNL     1     -11.500   9.564  69.344  1.00  0.00     0.119 A  
HETATM   29  C   UNL     1     -11.517   9.149  70.680  1.00  0.00    -0.310 A  
HETATM   30  C   UNL     1     -10.327   9.081  71.401  1.00  0.00    -0.396 A  
HETATM   31  C   UNL     1      -9.129   9.454  70.789  1.00  0.00    -0.268 A  
HETATM   32  C   UNL     1      -9.116   9.887  69.455  1.00  0.00    -0.237 A  
ENDBRANCH  19  27
ENDBRANCH   2  15
TORSDOF 4
ENDMDL
MODEL       57
REMARK 921   NORMALIZED FREE ENERGY PREDICTED BY IDOCK:   -6.73 KCAL/MOL
REMARK 922        TOTAL FREE ENERGY PREDICTED BY IDOCK:   -9.18 KCAL/MOL
REMARK 923 INTER-LIGAND FREE ENERGY PREDICTED BY IDOCK:   -8.09 KCAL/MOL
REMARK 924 INTRA-LIGAND FREE ENERGY PREDICTED BY IDOCK:   -1.08 KCAL/MOL
REMARK 927      BINDING AFFINITY PREDICTED BY RF-SCORE:    0.00 PKD
ROOT
HETATM    1  C   UNL     1     -12.931  10.416  71.716  1.00  0.00    -0.580 C  
HETATM    2  C   UNL     1     -11.926   9.551  70.958  1.00  0.00    -0.328 C  
ENDROOT
BRANCH   2   3
HETATM    3  N   UNL     1     -10.686   9.319  71.687  1.00  0.00    -0.364 NA 
HETATM    4  H   UNL     1      -9.962  10.036  71.720  1.00  0.00     0.000 HD 
BRANCH   3   5
HETATM    5  C   UNL     1     -10.506   8.101  72.339  1.00  0.00    -0.319 A  
HETATM    6  C   UNL     1      -9.289   6.619  73.751  1.00  0.00    -0.166 A  
HETATM    7  N   UNL     1     -10.165   5.607  73.685  1.00  0.00    -0.200 NA 
HETATM    8  C   UNL     1      -7.545   7.870  74.250  1.00  0.00    -0.182 A  
HETATM    9  H   UNL     1      -8.058   9.575  73.133  1.00  0.00     0.000 HD 
HETATM   10  N   UNL     1      -8.266   8.626  73.448  1.00  0.00    -0.394 NA 
HETATM   11  C   UNL     1     -11.204   5.938  72.894  1.00  0.00    -0.253 A  
HETATM   12  C   UNL     1      -9.366   7.852  73.128  1.00  0.00    -0.272 A  
HETATM   13  N   UNL     1      -8.129   6.651  74.466  1.00  0.00    -0.124 NA 
HETATM   14  N   UNL     1     -11.422   7.099  72.235  1.00  0.00    -0.264 NA 
ENDBRANCH   3   5
ENDBRANCH   2   3
BRANCH   2  15
HETATM   15  C   UNL     1     -11.584   9.905  69.500  1.00  0.00     0.001 C  
HETATM   16  O   UNL     1     -10.123   8.804  66.388  1.00  0.00    -0.284 OA 
HETATM   17  C   UNL     1     -11.946  11.150  69.134  1.00  0.00    -0.413 C  
HETATM   18  C   UNL     1     -11.599  11.722  67.849  1.00  0.00    -0.377 A  
HETATM   19  N   UNL     1     -10.887   9.087  68.582  1.00  0.00    -0.087 N  
HETATM   20  C   UNL     1     -11.877  13.078  67.621  1.00  0.00    -0.401 A  
HETATM   21  C   UNL     1     -10.629   9.532  67.243  1.00  0.00    -0.248 C  
HETATM   22  C   UNL     1     -10.979  10.938  66.874  1.00  0.00    -0.286 A  
HETATM   23 CL   UNL     1      -9.977  10.703  64.286  1.00  0.00    -0.394 Cl 
HETATM   24  C   UNL     1     -11.543  13.667  66.409  1.00  0.00    -0.375 A  
HETATM   25  C   UNL     1     -10.958  12.889  65.415  1.00  0.00    -0.305 A  
HETATM   26  C   UNL     1     -10.683  11.530  65.632  1.00  0.00    -0.267 A  
BRANCH  19  27
HETATM   27  C   UNL     1     -10.342   7.792  68.892  1.00  0.00    -0.213 A  
HETATM   28  C   UNL     1      -8.994   7.694  69.285  1.00  0.00    -0.135 A  
HETATM   29  C   UNL     1      -8.422   6.458  69.607  1.00  0.00    -0.130 A  
HETATM   30  C   UNL     1      -9.188   5.298  69.533  1.00  0.00    -0.157 A  
HETATM   31  C   UNL     1     -10.518   5.376  69.112  1.00  0.00    -0.277 A  
HETATM   32  C   UNL     1     -11.085   6.614  68.774  1.00  0.00    -0.297 A  
ENDBRANCH  19  27
ENDBRANCH   2  15
TORSDOF 4
ENDMDL
MODEL       58
REMARK 921   NORMALIZED FREE ENERGY PREDICTED BY IDOCK:   -6.71 KCAL/MOL
REMARK 922        TOTAL FREE ENERGY PREDICTED BY IDOCK:   -9.15 KCAL/MOL
REMARK 923 INTER-LIGAND FREE ENERGY PREDICTED BY IDOCK:   -8.72 KCAL/MOL
REMARK 924 INTRA-LIGAND FREE ENERGY PREDICTED BY IDOCK:   -0.43 KCAL/MOL
REMARK 927      BINDING AFFINITY PREDICTED BY RF-SCORE:    0.00 PKD
ROOT
HETATM    1  C   UNL     1      -8.692   9.786  68.900  1.00  0.00    -0.136 C  
HETATM    2  C   UNL     1     -10.206   9.655  69.060  1.00  0.00    -0.199 C  
ENDROOT
BRANCH   2   3
HETATM    3  N   UNL     1     -10.897   9.307  67.825  1.00  0.00    -0.480 NA 
HETATM    4  H   UNL     1     -11.748   8.747  67.849  1.00  0.00     0.000 HD 
BRANCH   3   5
HETATM    5  C   UNL     1     -10.376   9.752  66.613  1.00  0.00    -0.206 A  
HETATM    6  C   UNL     1     -10.253  11.297  64.804  1.00  0.00    -0.292 A  
HETATM    7  N   UNL     1      -9.280  10.662  64.139  1.00  0.00    -0.220 NA 
HETATM    8  C   UNL     1     -11.793  12.755  65.408  1.00  0.00    -0.415 A  
HETATM    9  H   UNL     1     -12.409  11.832  67.192  1.00  0.00     0.000 HD 
HETATM   10  N   UNL     1     -11.813  11.850  66.364  1.00  0.00    -0.547 NA 
HETATM   11  C   UNL     1      -8.913   9.546  64.798  1.00  0.00    -0.218 A  
HETATM   12  C   UNL     1     -10.850  10.928  65.998  1.00  0.00    -0.085 A  
HETATM   13  N   UNL     1     -10.860  12.465  64.448  1.00  0.00    -0.314 NA 
HETATM   14  N   UNL     1      -9.391   9.067  65.969  1.00  0.00    -0.224 NA 
ENDBRANCH   3   5
ENDBRANCH   2   3
BRANCH   2  15
HETATM   15  C   UNL     1     -10.985  10.780  69.763  1.00  0.00    -0.252 C  
HETATM   16  O   UNL     1     -13.423  11.650  72.278  1.00  0.00    -0.397 OA 
HETATM   17  C   UNL     1     -10.703  12.016  69.306  1.00  0.00    -0.063 C  
HETATM   18  C   UNL     1     -11.420  13.196  69.743  1.00  0.00    -0.216 A  
HETATM   19  N   UNL     1     -11.978  10.617  70.755  1.00  0.00    -0.349 N  
HETATM   20  C   UNL     1     -11.169  14.414  69.094  1.00  0.00    -0.300 A  
HETATM   21  C   UNL     1     -12.636  11.751  71.338  1.00  0.00    -0.262 C  
HETATM   22  C   UNL     1     -12.359  13.108  70.775  1.00  0.00    -0.404 A  
HETATM   23 CL   UNL     1     -14.155  14.383  72.479  1.00  0.00    -0.515 Cl 
HETATM   24  C   UNL     1     -11.850  15.563  69.472  1.00  0.00    -0.390 A  
HETATM   25  C   UNL     1     -12.761  15.498  70.522  1.00  0.00    -0.436 A  
HETATM   26  C   UNL     1     -13.013  14.285  71.182  1.00  0.00    -0.353 A  
BRANCH  19  27
HETATM   27  C   UNL     1     -12.453   9.345  71.234  1.00  0.00    -0.335 A  
HETATM   28  C   UNL     1     -13.788   8.976  70.985  1.00  0.00    -0.012 A  
HETATM   29  C   UNL     1     -14.293   7.747  71.422  1.00  0.00    -0.513 A  
HETATM   30  C   UNL     1     -13.470   6.868  72.122  1.00  0.00     0.003 A  
HETATM   31  C   UNL     1     -12.152   7.235  72.405  1.00  0.00    -0.155 A  
HETATM   32  C   UNL     1     -11.653   8.476  71.981  1.00  0.00    -0.432 A  
ENDBRANCH  19  27
ENDBRANCH   2  15
TORSDOF 4
ENDMDL
MODEL       59
REMARK 921   NORMALIZED FREE ENERGY PREDICTED BY IDOCK:   -6.65 KCAL/MOL
REMARK 922        TOTAL FREE ENERGY PREDICTED BY IDOCK:   -9.08 KCAL/MOL
REMARK 923 INTER-LIGAND FREE ENERGY PREDICTED BY IDOCK:   -8.35 KCAL/MOL
REMARK 924 INTRA-LIGAND FREE ENERGY PREDICTED BY IDOCK:   -0.73 KCAL/MOL
REMARK 927      BINDING AFFINITY PREDICTED BY RF-SCORE:    0.00 PKD
ROOT
HETATM    1  C   UNL     1     -10.128  10.131  66.072  1.00  0.00    -0.317 C  
HETATM    2  C   UNL     1     -10.671  10.736  67.365  1.00  0.00    -0.268 C  
ENDROOT
BRANCH   2   3
HETATM    3  N   UNL     1     -10.605  12.191  67.403  1.00  0.00    -0.222 NA 
HETATM    4  H   UNL     1     -10.124  12.669  68.165  1.00  0.00     0.000 HD 
BRANCH   3   5
HETATM    5  C   UNL     1     -11.208  12.920  66.380  1.00  0.00    -0.300 A  
HETATM    6  C   UNL     1     -11.376  14.818  64.952  1.00  0.00    -0.410 A  
HETATM    7  N   UNL     1     -12.444  14.389  64.267  1.00  0.00    -0.691 NA 
HETATM    8  C   UNL     1      -9.674  16.021  65.671  1.00  0.00    -0.238 A  
HETATM    9  H   UNL     1      -9.001  14.730  67.185  1.00  0.00     0.000 HD 
HETATM   10  N   UNL     1      -9.656  14.948  66.433  1.00  0.00    -0.276 NA 
HETATM   11  C   UNL     1     -12.842  13.187  64.727  1.00  0.00    -0.229 A  
HETATM   12  C   UNL     1     -10.719  14.183  65.992  1.00  0.00    -0.299 A  
HETATM   13  N   UNL     1     -10.693  15.982  64.756  1.00  0.00    -0.621 NA 
HETATM   14  N   UNL     1     -12.298  12.444  65.718  1.00  0.00    -0.603 NA 
ENDBRANCH   3   5
ENDBRANCH   2   3
BRANCH   2  15
HETATM   15  C   UNL     1     -10.180  10.183  68.714  1.00  0.00    -0.186 C  
HETATM   16  O   UNL     1      -7.365   9.608  70.899  1.00  0.00    -0.288 OA 
HETATM   17  C   UNL     1     -11.155   9.662  69.484  1.00  0.00    -0.198 C  
HETATM   18  C   UNL     1     -10.887   8.975  70.731  1.00  0.00    -0.310 A  
HETATM   19  N   UNL     1      -8.839  10.119  69.155  1.00  0.00    -0.164 N  
HETATM   20  C   UNL     1     -11.945   8.325  71.382  1.00  0.00    -0.333 A  
HETATM   21  C   UNL     1      -8.507   9.579  70.441  1.00  0.00    -0.201 C  
HETATM   22  C   UNL     1      -9.591   8.947  71.255  1.00  0.00    -0.348 A  
HETATM   23 CL   UNL     1      -7.867   8.203  73.311  1.00  0.00    -0.216 Cl 
HETATM   24  C   UNL     1     -11.724   7.640  72.569  1.00  0.00    -0.352 A  
HETATM   25  C   UNL     1     -10.447   7.634  73.121  1.00  0.00    -0.433 A  
HETATM   26  C   UNL     1      -9.383   8.288  72.480  1.00  0.00    -0.280 A  
BRANCH  19  27
HETATM   27  C   UNL     1      -7.702  10.528  68.372  1.00  0.00    -0.104 A  
HETATM   28  C   UNL     1      -7.295  11.874  68.409  1.00  0.00    -0.095 A  
HETATM   29  C   UNL     1      -6.190  12.317  67.674  1.00  0.00    -0.120 A  
HETATM   30  C   UNL     1      -5.478  11.419  66.882  1.00  0.00    -0.115 A  
HETATM   31  C   UNL     1      -5.890  10.087  66.811  1.00  0.00    -0.051 A  
HETATM   32  C   UNL     1      -7.009   9.649  67.535  1.00  0.00    -0.084 A  
ENDBRANCH  19  27
ENDBRANCH   2  15
TORSDOF 4
ENDMDL
MODEL       60
REMARK 921   NORMALIZED FREE ENERGY PREDICTED BY IDOCK:   -6.62 KCAL/MOL
REMARK 922        TOTAL FREE ENERGY PREDICTED BY IDOCK:   -9.05 KCAL/MOL
REMARK 923 INTER-LIGAND FREE ENERGY PREDICTED BY IDOCK:   -8.17 KCAL/MOL
REMARK 924 INTRA-LIGAND FREE ENERGY PREDICTED BY IDOCK:   -0.88 KCAL/MOL
REMARK 927      BINDING AFFINITY PREDICTED BY RF-SCORE:    0.00 PKD
ROOT
HETATM    1  C   UNL     1      -8.508  10.656  67.243  1.00  0.00    -0.126 C  
HETATM    2  C   UNL     1      -9.235   9.317  67.134  1.00  0.00    -0.130 C  
ENDROOT
BRANCH   2   3
HETATM    3  N   UNL     1     -10.082   9.205  65.954  1.00  0.00    -0.387 NA 
HETATM    4  H   UNL     1     -10.687   8.394  65.825  1.00  0.00     0.000 HD 
BRANCH   3   5
HETATM    5  C   UNL     1     -10.053  10.224  65.005  1.00  0.00    -0.283 A  
HETATM    6  C   UNL     1     -10.715  12.353  64.168  1.00  0.00    -0.379 A  
HETATM    7  N   UNL     1      -9.964  12.312  63.060  1.00  0.00    -0.180 NA 
HETATM    8  C   UNL     1     -12.103  13.001  65.753  1.00  0.00    -0.454 A  
HETATM    9  H   UNL     1     -11.977  11.305  66.986  1.00  0.00     0.000 HD 
HETATM   10  N   UNL     1     -11.703  11.809  66.142  1.00  0.00    -0.448 NA 
HETATM   11  C   UNL     1      -9.280  11.153  63.001  1.00  0.00    -0.316 A  
HETATM   12  C   UNL     1     -10.829  11.391  65.156  1.00  0.00    -0.238 A  
HETATM   13  N   UNL     1     -11.526  13.373  64.568  1.00  0.00    -0.356 NA 
HETATM   14  N   UNL     1      -9.278  10.132  63.889  1.00  0.00    -0.262 NA 
ENDBRANCH   3   5
ENDBRANCH   2   3
BRANCH   2  15
HETATM   15  C   UNL     1     -10.010   8.784  68.352  1.00  0.00    -0.179 C  
HETATM   16  O   UNL     1     -11.073   5.886  70.222  1.00  0.00    -0.327 OA 
HETATM   17  C   UNL     1     -10.577   9.743  69.108  1.00  0.00    -0.237 C  
HETATM   18  C   UNL     1     -11.455   9.447  70.221  1.00  0.00    -0.223 A  
HETATM   19  N   UNL     1     -10.221   7.425  68.680  1.00  0.00    -0.187 N  
HETATM   20  C   UNL     1     -12.128  10.507  70.847  1.00  0.00    -0.487 A  
HETATM   21  C   UNL     1     -10.964   7.053  69.849  1.00  0.00    -0.263 C  
HETATM   22  C   UNL     1     -11.640   8.127  70.640  1.00  0.00    -0.199 A  
HETATM   23 CL   UNL     1     -12.784   6.335  72.440  1.00  0.00    -0.016 Cl 
HETATM   24  C   UNL     1     -12.992  10.262  71.906  1.00  0.00    -0.554 A  
HETATM   25  C   UNL     1     -13.158   8.956  72.357  1.00  0.00    -0.476 A  
HETATM   26  C   UNL     1     -12.484   7.890  71.741  1.00  0.00    -0.323 A  
BRANCH  19  27
HETATM   27  C   UNL     1      -9.772   6.313  67.884  1.00  0.00    -0.122 A  
HETATM   28  C   UNL     1     -10.650   5.752  66.938  1.00  0.00    -0.377 A  
HETATM   29  C   UNL     1     -10.257   4.676  66.134  1.00  0.00    -0.308 A  
HETATM   30  C   UNL     1      -8.978   4.140  66.269  1.00  0.00    -0.123 A  
HETATM   31  C   UNL     1      -8.108   4.666  67.227  1.00  0.00    -0.102 A  
HETATM   32  C   UNL     1      -8.511   5.733  68.044  1.00  0.00    -0.106 A  
ENDBRANCH  19  27
ENDBRANCH   2  15
TORSDOF 4
ENDMDL
MODEL       61
REMARK 921   NORMALIZED FREE ENERGY PREDICTED BY IDOCK:   -6.58 KCAL/MOL
REMARK 922        TOTAL FREE ENERGY PREDICTED BY IDOCK:   -8.99 KCAL/MOL
REMARK 923 INTER-LIGAND FREE ENERGY PREDICTED BY IDOCK:   -8.59 KCAL/MOL
REMARK 924 INTRA-LIGAND FREE ENERGY PREDICTED BY IDOCK:   -0.40 KCAL/MOL
REMARK 927      BINDING AFFINITY PREDICTED BY RF-SCORE:    0.00 PKD
ROOT
HETATM    1  C   UNL     1     -12.263   9.849  70.960  1.00  0.00    -0.446 C  
HETATM    2  C   UNL     1     -11.480  10.294  69.726  1.00  0.00    -0.256 C  
ENDROOT
BRANCH   2   3
HETATM    3  N   UNL     1     -12.279  11.045  68.766  1.00  0.00    -0.744 NA 
HETATM    4  H   UNL     1     -13.008  10.582  68.224  1.00  0.00     0.000 HD 
BRANCH   3   5
HETATM    5  C   UNL     1     -12.032  12.406  68.602  1.00  0.00    -0.225 A  
HETATM    6  C   UNL     1     -11.798  14.366  67.270  1.00  0.00    -0.405 A  
HETATM    7  N   UNL     1     -11.544  15.201  68.286  1.00  0.00    -0.336 NA 
HETATM    8  C   UNL     1     -12.162  13.539  65.259  1.00  0.00    -0.441 A  
HETATM    9  H   UNL     1     -12.459  11.531  65.801  1.00  0.00     0.000 HD 
HETATM   10  N   UNL     1     -12.260  12.498  66.059  1.00  0.00    -0.620 NA 
HETATM   11  C   UNL     1     -11.545  14.530  69.454  1.00  0.00    -0.303 A  
HETATM   12  C   UNL     1     -12.035  13.004  67.326  1.00  0.00    -0.321 A  
HETATM   13  N   UNL     1     -11.890  14.690  65.949  1.00  0.00    -0.317 NA 
HETATM   14  N   UNL     1     -11.771  13.213  69.667  1.00  0.00    -0.309 NA 
ENDBRANCH   3   5
ENDBRANCH   2   3
BRANCH   2  15
HETATM   15  C   UNL     1     -10.632   9.262  68.964  1.00  0.00    -0.205 C  
HETATM   16  O   UNL     1      -8.867   6.116  69.095  1.00  0.00    -0.123 OA 
HETATM   17  C   UNL     1     -10.384   9.590  67.681  1.00  0.00    -0.299 C  
HETATM   18  C   UNL     1      -9.499   8.819  66.832  1.00  0.00    -0.231 A  
HETATM   19  N   UNL     1     -10.060   8.087  69.503  1.00  0.00    -0.191 N  
HETATM   20  C   UNL     1      -9.174   9.326  65.564  1.00  0.00    -0.292 A  
HETATM   21  C   UNL     1      -9.285   7.198  68.686  1.00  0.00    -0.135 C  
HETATM   22  C   UNL     1      -8.966   7.609  67.284  1.00  0.00    -0.134 A  
HETATM   23 CL   UNL     1      -7.433   5.341  66.773  1.00  0.00    -0.086 Cl 
HETATM   24  C   UNL     1      -8.315   8.625  64.729  1.00  0.00    -0.167 A  
HETATM   25  C   UNL     1      -7.806   7.401  65.151  1.00  0.00    -0.123 A  
HETATM   26  C   UNL     1      -8.131   6.883  66.415  1.00  0.00    -0.113 A  
BRANCH  19  27
HETATM   27  C   UNL     1     -10.149   7.695  70.885  1.00  0.00    -0.191 A  
HETATM   28  C   UNL     1      -9.269   8.274  71.818  1.00  0.00    -0.261 A  
HETATM   29  C   UNL     1      -9.323   7.932  73.174  1.00  0.00    -0.337 A  
HETATM   30  C   UNL     1     -10.257   6.999  73.617  1.00  0.00    -0.396 A  
HETATM   31  C   UNL     1     -11.115   6.392  72.697  1.00  0.00    -0.294 A  
HETATM   32  C   UNL     1     -11.047   6.723  71.336  1.00  0.00    -0.293 A  
ENDBRANCH  19  27
ENDBRANCH   2  15
TORSDOF 4
ENDMDL
MODEL       62
REMARK 921   NORMALIZED FREE ENERGY PREDICTED BY IDOCK:   -6.57 KCAL/MOL
REMARK 922        TOTAL FREE ENERGY PREDICTED BY IDOCK:   -8.98 KCAL/MOL
REMARK 923 INTER-LIGAND FREE ENERGY PREDICTED BY IDOCK:   -9.93 KCAL/MOL
REMARK 924 INTRA-LIGAND FREE ENERGY PREDICTED BY IDOCK:    0.95 KCAL/MOL
REMARK 927      BINDING AFFINITY PREDICTED BY RF-SCORE:    0.00 PKD
ROOT
HETATM    1  C   UNL     1     -12.161  14.833  67.928  1.00  0.00    -0.161 C  
HETATM    2  C   UNL     1     -11.051  13.874  68.353  1.00  0.00    -0.255 C  
ENDROOT
BRANCH   2   3
HETATM    3  N   UNL     1     -10.146  13.510  67.271  1.00  0.00    -0.233 NA 
HETATM    4  H   UNL     1      -9.148  13.393  67.447  1.00  0.00     0.000 HD 
BRANCH   3   5
HETATM    5  C   UNL     1     -10.664  13.324  65.992  1.00  0.00    -0.277 A  
HETATM    6  C   UNL     1     -10.903  12.097  63.965  1.00  0.00    -0.383 A  
HETATM    7  N   UNL     1     -11.755  12.949  63.381  1.00  0.00    -0.515 NA 
HETATM    8  C   UNL     1      -9.591  10.373  64.375  1.00  0.00    -0.316 A  
HETATM    9  H   UNL     1      -8.942  10.929  66.294  1.00  0.00     0.000 HD 
HETATM   10  N   UNL     1      -9.498  11.115  65.459  1.00  0.00    -0.215 NA 
HETATM   11  C   UNL     1     -12.005  13.993  64.195  1.00  0.00    -0.408 A  
HETATM   12  C   UNL     1     -10.318  12.201  65.215  1.00  0.00    -0.277 A  
HETATM   13  N   UNL     1     -10.435  10.926  63.448  1.00  0.00    -0.261 NA 
HETATM   14  N   UNL     1     -11.523  14.224  65.438  1.00  0.00    -0.323 NA 
ENDBRANCH   3   5
ENDBRANCH   2   3
BRANCH   2  15
HETATM   15  C   UNL     1     -11.419  12.604  69.139  1.00  0.00    -0.304 C  
HETATM   16  O   UNL     1     -13.078  11.215  72.028  1.00  0.00    -0.492 OA 
HETATM   17  C   UNL     1     -10.964  11.462  68.588  1.00  0.00    -0.267 C  
HETATM   18  C   UNL     1     -11.090  10.173  69.237  1.00  0.00    -0.270 A  
HETATM   19  N   UNL     1     -12.104  12.553  70.375  1.00  0.00    -0.350 N  
HETATM   20  C   UNL     1     -10.444   9.066  68.665  1.00  0.00    -0.229 A  
HETATM   21  C   UNL     1     -12.391  11.300  71.011  1.00  0.00    -0.366 C  
HETATM   22  C   UNL     1     -11.823  10.049  70.420  1.00  0.00    -0.343 A  
HETATM   23 CL   UNL     1     -12.854   8.415  72.426  1.00  0.00    -0.352 Cl 
HETATM   24  C   UNL     1     -10.527   7.818  69.268  1.00  0.00    -0.221 A  
HETATM   25  C   UNL     1     -11.283   7.673  70.427  1.00  0.00    -0.258 A  
HETATM   26  C   UNL     1     -11.939   8.773  71.001  1.00  0.00    -0.251 A  
BRANCH  19  27
HETATM   27  C   UNL     1     -12.529  13.708  71.121  1.00  0.00    -0.359 A  
HETATM   28  C   UNL     1     -13.868  13.794  71.543  1.00  0.00    -0.226 A  
HETATM   29  C   UNL     1     -14.326  14.893  72.279  1.00  0.00    -0.522 A  
HETATM   30  C   UNL     1     -13.451  15.928  72.599  1.00  0.00    -0.554 A  
HETATM   31  C   UNL     1     -12.126  15.870  72.159  1.00  0.00    -0.596 A  
HETATM   32  C   UNL     1     -11.674  14.777  71.406  1.00  0.00    -0.352 A  
ENDBRANCH  19  27
ENDBRANCH   2  15
TORSDOF 4
ENDMDL
MODEL       63
REMARK 921   NORMALIZED FREE ENERGY PREDICTED BY IDOCK:   -6.57 KCAL/MOL
REMARK 922        TOTAL FREE ENERGY PREDICTED BY IDOCK:   -8.98 KCAL/MOL
REMARK 923 INTER-LIGAND FREE ENERGY PREDICTED BY IDOCK:   -8.08 KCAL/MOL
REMARK 924 INTRA-LIGAND FREE ENERGY PREDICTED BY IDOCK:   -0.90 KCAL/MOL
REMARK 927      BINDING AFFINITY PREDICTED BY RF-SCORE:    0.00 PKD
ROOT
HETATM    1  C   UNL     1     -12.025  15.601  68.357  1.00  0.00    -0.084 C  
HETATM    2  C   UNL     1     -10.953  14.522  68.509  1.00  0.00    -0.249 C  
ENDROOT
BRANCH   2   3
HETATM    3  N   UNL     1     -10.186  14.284  67.294  1.00  0.00    -0.251 NA 
HETATM    4  H   UNL     1     -10.563  13.700  66.549  1.00  0.00     0.000 HD 
BRANCH   3   5
HETATM    5  C   UNL     1      -8.928  14.868  67.167  1.00  0.00    -0.214 A  
HETATM    6  C   UNL     1      -6.564  14.881  67.455  1.00  0.00    -0.112 A  
HETATM    7  N   UNL     1      -6.355  16.071  66.876  1.00  0.00    -0.286 NA 
HETATM    8  C   UNL     1      -6.265  12.942  68.461  1.00  0.00    -0.077 A  
HETATM    9  H   UNL     1      -8.272  12.327  68.548  1.00  0.00     0.000 HD 
HETATM   10  N   UNL     1      -7.567  13.015  68.280  1.00  0.00    -0.126 NA 
HETATM   11  C   UNL     1      -7.523  16.605  66.470  1.00  0.00    -0.271 A  
HETATM   12  C   UNL     1      -7.768  14.228  67.648  1.00  0.00    -0.177 A  
HETATM   13  N   UNL     1      -5.618  14.046  67.971  1.00  0.00    -0.124 NA 
HETATM   14  N   UNL     1      -8.767  16.085  66.577  1.00  0.00    -0.272 NA 
ENDBRANCH   3   5
ENDBRANCH   2   3
BRANCH   2  15
HETATM   15  C   UNL     1     -11.338  13.166  69.126  1.00  0.00    -0.281 C  
HETATM   16  O   UNL     1     -13.081  11.437  71.771  1.00  0.00    -0.480 OA 
HETATM   17  C   UNL     1     -10.856  12.100  68.458  1.00  0.00    -0.267 C  
HETATM   18  C   UNL     1     -10.994  10.742  68.944  1.00  0.00    -0.289 A  
HETATM   19  N   UNL     1     -12.063  12.966  70.322  1.00  0.00    -0.344 N  
HETATM   20  C   UNL     1     -10.321   9.714  68.268  1.00  0.00    -0.240 A  
HETATM   21  C   UNL     1     -12.361  11.645  70.795  1.00  0.00    -0.358 C  
HETATM   22  C   UNL     1     -11.765  10.476  70.079  1.00  0.00    -0.394 A  
HETATM   23 CL   UNL     1     -12.849   8.610  71.840  1.00  0.00    -0.383 Cl 
HETATM   24  C   UNL     1     -10.414   8.403  68.714  1.00  0.00    -0.202 A  
HETATM   25  C   UNL     1     -11.206   8.118  69.822  1.00  0.00     0.027 A  
HETATM   26  C   UNL     1     -11.890   9.139  70.500  1.00  0.00    -0.095 A  
BRANCH  19  27
HETATM   27  C   UNL     1     -12.522  14.023  71.186  1.00  0.00    -0.371 A  
HETATM   28  C   UNL     1     -11.583  14.722  71.968  1.00  0.00    -0.178 A  
HETATM   29  C   UNL     1     -11.979  15.763  72.815  1.00  0.00    -0.598 A  
HETATM   30  C   UNL     1     -13.324  16.117  72.898  1.00  0.00    -0.389 A  
HETATM   31  C   UNL     1     -14.270  15.409  72.153  1.00  0.00    -0.660 A  
HETATM   32  C   UNL     1     -13.873  14.355  71.317  1.00  0.00    -0.333 A  
ENDBRANCH  19  27
ENDBRANCH   2  15
TORSDOF 4
ENDMDL
MODEL       64
REMARK 921   NORMALIZED FREE ENERGY PREDICTED BY IDOCK:   -6.52 KCAL/MOL
REMARK 922        TOTAL FREE ENERGY PREDICTED BY IDOCK:   -8.92 KCAL/MOL
REMARK 923 INTER-LIGAND FREE ENERGY PREDICTED BY IDOCK:   -7.72 KCAL/MOL
REMARK 924 INTRA-LIGAND FREE ENERGY PREDICTED BY IDOCK:   -1.20 KCAL/MOL
REMARK 927      BINDING AFFINITY PREDICTED BY RF-SCORE:    0.00 PKD
ROOT
HETATM    1  C   UNL     1     -11.107   6.320  67.059  1.00  0.00    -0.379 C  
HETATM    2  C   UNL     1     -10.991   6.937  68.451  1.00  0.00    -0.132 C  
ENDROOT
BRANCH   2   3
HETATM    3  N   UNL     1     -10.111   8.097  68.506  1.00  0.00    -0.195 NA 
HETATM    4  H   UNL     1      -9.124   7.987  68.737  1.00  0.00     0.000 HD 
BRANCH   3   5
HETATM    5  C   UNL     1     -10.638   9.357  68.236  1.00  0.00    -0.210 A  
HETATM    6  C   UNL     1     -11.052  11.213  66.802  1.00  0.00    -0.214 A  
HETATM    7  N   UNL     1     -11.746  11.932  67.694  1.00  0.00    -0.532 NA 
HETATM    8  C   UNL     1     -10.048  10.537  64.959  1.00  0.00    -0.321 A  
HETATM    9  H   UNL     1      -9.339   8.686  65.656  1.00  0.00     0.000 HD 
HETATM   10  N   UNL     1      -9.846   9.557  65.815  1.00  0.00    -0.300 NA 
HETATM   11  C   UNL     1     -11.829  11.270  68.865  1.00  0.00    -0.345 A  
HETATM   12  C   UNL     1     -10.473   9.968  66.977  1.00  0.00    -0.238 A  
HETATM   13  N   UNL     1     -10.779  11.555  65.511  1.00  0.00    -0.278 NA 
HETATM   14  N   UNL     1     -11.330  10.053  69.179  1.00  0.00    -0.148 NA 
ENDBRANCH   3   5
ENDBRANCH   2   3
BRANCH   2  15
HETATM   15  C   UNL     1     -10.684   6.026  69.652  1.00  0.00    -0.335 C  
HETATM   16  O   UNL     1     -11.419   5.210  73.090  1.00  0.00    -0.323 OA 
HETATM   17  C   UNL     1      -9.738   5.097  69.412  1.00  0.00    -0.248 C  
HETATM   18  C   UNL     1      -9.213   4.228  70.445  1.00  0.00    -0.191 A  
HETATM   19  N   UNL     1     -11.241   6.131  70.947  1.00  0.00    -0.307 N  
HETATM   20  C   UNL     1      -8.118   3.406  70.139  1.00  0.00    -0.057 A  
HETATM   21  C   UNL     1     -10.873   5.215  71.987  1.00  0.00    -0.125 C  
HETATM   22  C   UNL     1      -9.777   4.233  71.723  1.00  0.00    -0.237 A  
HETATM   23 CL   UNL     1      -9.855   3.175  74.299  1.00  0.00    -0.141 Cl 
HETATM   24  C   UNL     1      -7.574   2.573  71.108  1.00  0.00    -0.032 A  
HETATM   25  C   UNL     1      -8.148   2.541  72.375  1.00  0.00    -0.055 A  
HETATM   26  C   UNL     1      -9.249   3.354  72.687  1.00  0.00    -0.093 A  
BRANCH  19  27
HETATM   27  C   UNL     1     -12.165   7.156  71.358  1.00  0.00    -0.362 A  
HETATM   28  C   UNL     1     -11.667   8.308  71.994  1.00  0.00    -0.407 A  
HETATM   29  C   UNL     1     -12.525   9.336  72.403  1.00  0.00    -0.307 A  
HETATM   30  C   UNL     1     -13.896   9.223  72.188  1.00  0.00    -0.478 A  
HETATM   31  C   UNL     1     -14.406   8.070  71.587  1.00  0.00    -0.581 A  
HETATM   32  C   UNL     1     -13.547   7.033  71.194  1.00  0.00    -0.149 A  
ENDBRANCH  19  27
ENDBRANCH   2  15
TORSDOF 4
ENDMDL
MODEL       65
REMARK 921   NORMALIZED FREE ENERGY PREDICTED BY IDOCK:   -6.51 KCAL/MOL
REMARK 922        TOTAL FREE ENERGY PREDICTED BY IDOCK:   -8.91 KCAL/MOL
REMARK 923 INTER-LIGAND FREE ENERGY PREDICTED BY IDOCK:   -7.90 KCAL/MOL
REMARK 924 INTRA-LIGAND FREE ENERGY PREDICTED BY IDOCK:   -1.01 KCAL/MOL
REMARK 927      BINDING AFFINITY PREDICTED BY RF-SCORE:    0.00 PKD
ROOT
HETATM    1  C   UNL     1     -10.992  17.090  66.968  1.00  0.00     0.077 C  
HETATM    2  C   UNL     1     -11.098  16.485  68.366  1.00  0.00    -0.333 C  
ENDROOT
BRANCH   2   3
HETATM    3  N   UNL     1     -10.170  17.066  69.327  1.00  0.00    -0.279 NA 
HETATM    4  H   UNL     1     -10.438  17.175  70.305  1.00  0.00     0.000 HD 
BRANCH   3   5
HETATM    5  C   UNL     1      -8.912  17.471  68.889  1.00  0.00    -0.144 A  
HETATM    6  C   UNL     1      -6.592  17.104  68.492  1.00  0.00    -0.167 A  
HETATM    7  N   UNL     1      -6.344  18.309  67.965  1.00  0.00    -0.184 NA 
HETATM    8  C   UNL     1      -6.374  15.038  69.230  1.00  0.00    -0.116 A  
HETATM    9  H   UNL     1      -8.359  14.717  69.841  1.00  0.00     0.000 HD 
HETATM   10  N   UNL     1      -7.644  15.321  69.433  1.00  0.00    -0.207 NA 
HETATM   11  C   UNL     1      -7.467  19.053  67.947  1.00  0.00    -0.251 A  
HETATM   12  C   UNL     1      -7.795  16.615  68.973  1.00  0.00    -0.215 A  
HETATM   13  N   UNL     1      -5.702  16.084  68.656  1.00  0.00    -0.103 NA 
HETATM   14  N   UNL     1      -8.707  18.711  68.366  1.00  0.00    -0.325 NA 
ENDBRANCH   3   5
ENDBRANCH   2   3
BRANCH   2  15
HETATM   15  C   UNL     1     -11.080  14.954  68.524  1.00  0.00    -0.266 C  
HETATM   16  O   UNL     1     -12.077  12.111  70.511  1.00  0.00    -0.364 OA 
HETATM   17  C   UNL     1     -10.427  14.306  67.541  1.00  0.00    -0.252 C  
HETATM   18  C   UNL     1     -10.184  12.878  67.569  1.00  0.00    -0.213 A  
HETATM   19  N   UNL     1     -11.610  14.218  69.608  1.00  0.00    -0.280 N  
HETATM   20  C   UNL     1      -9.356  12.317  66.585  1.00  0.00    -0.228 A  
HETATM   21  C   UNL     1     -11.532  12.786  69.639  1.00  0.00    -0.185 C  
HETATM   22  C   UNL     1     -10.748  12.088  68.575  1.00  0.00    -0.261 A  
HETATM   23 CL   UNL     1     -11.166   9.561  69.667  1.00  0.00    -0.185 Cl 
HETATM   24  C   UNL     1      -9.085  10.956  66.591  1.00  0.00    -0.175 A  
HETATM   25  C   UNL     1      -9.668  10.151  67.564  1.00  0.00    -0.190 A  
HETATM   26  C   UNL     1     -10.504  10.703  68.548  1.00  0.00    -0.191 A  
BRANCH  19  27
HETATM   27  C   UNL     1     -12.218  14.805  70.774  1.00  0.00    -0.314 A  
HETATM   28  C   UNL     1     -11.425  15.045  71.910  1.00  0.00    -0.368 A  
HETATM   29  C   UNL     1     -11.969  15.622  73.064  1.00  0.00    -0.590 A  
HETATM   30  C   UNL     1     -13.319  15.961  73.100  1.00  0.00    -0.681 A  
HETATM   31  C   UNL     1     -14.125  15.698  71.990  1.00  0.00    -0.514 A  
HETATM   32  C   UNL     1     -13.582  15.103  70.842  1.00  0.00    -0.397 A  
ENDBRANCH  19  27
ENDBRANCH   2  15
TORSDOF 4
ENDMDL
MODEL       66
REMARK 921   NORMALIZED FREE ENERGY PREDICTED BY IDOCK:   -6.50 KCAL/MOL
REMARK 922        TOTAL FREE ENERGY PREDICTED BY IDOCK:   -8.90 KCAL/MOL
REMARK 923 INTER-LIGAND FREE ENERGY PREDICTED BY IDOCK:   -8.69 KCAL/MOL
REMARK 924 INTRA-LIGAND FREE ENERGY PREDICTED BY IDOCK:   -0.20 KCAL/MOL
REMARK 927      BINDING AFFINITY PREDICTED BY RF-SCORE:    0.00 PKD
ROOT
HETATM    1  C   UNL     1     -10.160   8.738  72.047  1.00  0.00    -0.397 C  
HETATM    2  C   UNL     1     -11.543   9.093  71.506  1.00  0.00    -0.368 C  
ENDROOT
BRANCH   2   3
HETATM    3  N   UNL     1     -12.056   8.134  70.536  1.00  0.00    -0.482 NA 
HETATM    4  H   UNL     1     -12.921   8.322  70.029  1.00  0.00     0.000 HD 
BRANCH   3   5
HETATM    5  C   UNL     1     -11.346   6.957  70.312  1.00  0.00    -0.324 A  
HETATM    6  C   UNL     1     -10.483   4.846  70.998  1.00  0.00    -0.094 A  
HETATM    7  N   UNL     1      -9.907   4.539  69.828  1.00  0.00    -0.219 NA 
HETATM    8  C   UNL     1     -11.200   4.769  73.081  1.00  0.00    -0.308 A  
HETATM    9  H   UNL     1     -12.172   6.631  73.142  1.00  0.00     0.000 HD 
HETATM   10  N   UNL     1     -11.631   5.930  72.634  1.00  0.00    -0.275 NA 
HETATM   11  C   UNL     1     -10.099   5.532  68.938  1.00  0.00    -0.198 A  
HETATM   12  C   UNL     1     -11.188   5.991  71.326  1.00  0.00    -0.258 A  
HETATM   13  N   UNL     1     -10.507   4.077  72.123  1.00  0.00    -0.079 NA 
HETATM   14  N   UNL     1     -10.771   6.693  69.106  1.00  0.00    -0.241 NA 
ENDBRANCH   3   5
ENDBRANCH   2   3
BRANCH   2  15
HETATM   15  C   UNL     1     -11.799  10.515  70.978  1.00  0.00    -0.340 C  
HETATM   16  O   UNL     1     -11.110  12.952  68.406  1.00  0.00    -0.235 OA 
HETATM   17  C   UNL     1     -12.626  11.249  71.748  1.00  0.00    -0.266 C  
HETATM   18  C   UNL     1     -12.892  12.651  71.498  1.00  0.00    -0.368 A  
HETATM   19  N   UNL     1     -11.203  11.106  69.841  1.00  0.00    -0.248 N  
HETATM   20  C   UNL     1     -13.635  13.373  72.444  1.00  0.00    -0.708 A  
HETATM   21  C   UNL     1     -11.526  12.448  69.449  1.00  0.00    -0.271 C  
HETATM   22  C   UNL     1     -12.393  13.268  70.348  1.00  0.00    -0.365 A  
HETATM   23 CL   UNL     1     -12.223  15.539  68.744  1.00  0.00    -0.155 Cl 
HETATM   24  C   UNL     1     -13.895  14.723  72.249  1.00  0.00    -0.590 A  
HETATM   25  C   UNL     1     -13.436  15.342  71.091  1.00  0.00    -0.565 A  
HETATM   26  C   UNL     1     -12.698  14.626  70.136  1.00  0.00    -0.220 A  
BRANCH  19  27
HETATM   27  C   UNL     1     -10.213  10.468  69.013  1.00  0.00    -0.216 A  
HETATM   28  C   UNL     1     -10.614   9.878  67.800  1.00  0.00    -0.313 A  
HETATM   29  C   UNL     1      -9.686   9.255  66.957  1.00  0.00    -0.241 A  
HETATM   30  C   UNL     1      -8.342   9.206  67.319  1.00  0.00    -0.121 A  
HETATM   31  C   UNL     1      -7.937   9.759  68.536  1.00  0.00    -0.089 A  
HETATM   32  C   UNL     1      -8.870  10.367  69.388  1.00  0.00    -0.138 A  
ENDBRANCH  19  27
ENDBRANCH   2  15
TORSDOF 4
ENDMDL
MODEL       67
REMARK 921   NORMALIZED FREE ENERGY PREDICTED BY IDOCK:   -6.50 KCAL/MOL
REMARK 922        TOTAL FREE ENERGY PREDICTED BY IDOCK:   -8.89 KCAL/MOL
REMARK 923 INTER-LIGAND FREE ENERGY PREDICTED BY IDOCK:   -7.76 KCAL/MOL
REMARK 924 INTRA-LIGAND FREE ENERGY PREDICTED BY IDOCK:   -1.14 KCAL/MOL
REMARK 927      BINDING AFFINITY PREDICTED BY RF-SCORE:    0.00 PKD
ROOT
HETATM    1  C   UNL     1      -7.558   7.989  65.748  1.00  0.00    -0.083 C  
HETATM    2  C   UNL     1      -8.915   8.153  66.430  1.00  0.00    -0.171 C  
ENDROOT
BRANCH   2   3
HETATM    3  N   UNL     1      -9.890   7.141  66.043  1.00  0.00    -0.392 NA 
HETATM    4  H   UNL     1     -10.715   7.397  65.501  1.00  0.00     0.000 HD 
BRANCH   3   5
HETATM    5  C   UNL     1      -9.677   5.819  66.424  1.00  0.00    -0.147 A  
HETATM    6  C   UNL     1      -9.541   4.083  68.049  1.00  0.00    -0.136 A  
HETATM    7  N   UNL     1      -9.258   3.099  67.185  1.00  0.00    -0.180 NA 
HETATM    8  C   UNL     1      -9.981   5.212  69.890  1.00  0.00    -0.246 A  
HETATM    9  H   UNL     1     -10.214   7.117  69.036  1.00  0.00     0.000 HD 
HETATM   10  N   UNL     1     -10.023   6.120  68.937  1.00  0.00    -0.145 NA 
HETATM   11  C   UNL     1      -9.192   3.583  65.930  1.00  0.00    -0.162 A  
HETATM   12  C   UNL     1      -9.749   5.423  67.775  1.00  0.00    -0.135 A  
HETATM   13  N   UNL     1      -9.700   3.966  69.398  1.00  0.00    -0.166 NA 
HETATM   14  N   UNL     1      -9.383   4.855  65.509  1.00  0.00    -0.160 NA 
ENDBRANCH   3   5
ENDBRANCH   2   3
BRANCH   2  15
HETATM   15  C   UNL     1      -9.600   9.531  66.415  1.00  0.00    -0.213 C  
HETATM   16  O   UNL     1     -10.954  12.251  68.363  1.00  0.00    -0.211 OA 
HETATM   17  C   UNL     1      -9.844  10.012  65.181  1.00  0.00    -0.388 C  
HETATM   18  C   UNL     1     -10.594  11.230  64.949  1.00  0.00    -0.364 A  
HETATM   19  N   UNL     1     -10.035  10.261  67.544  1.00  0.00    -0.182 N  
HETATM   20  C   UNL     1     -10.939  11.566  63.631  1.00  0.00    -0.482 A  
HETATM   21  C   UNL     1     -10.663  11.543  67.400  1.00  0.00    -0.232 C  
HETATM   22  C   UNL     1     -10.984  12.032  66.024  1.00  0.00    -0.346 A  
HETATM   23 CL   UNL     1     -12.199  14.365  66.940  1.00  0.00    -0.396 Cl 
HETATM   24  C   UNL     1     -11.673  12.715  63.370  1.00  0.00    -0.571 A  
HETATM   25  C   UNL     1     -12.037  13.543  64.427  1.00  0.00    -0.468 A  
HETATM   26  C   UNL     1     -11.691  13.217  65.748  1.00  0.00    -0.359 A  
BRANCH  19  27
HETATM   27  C   UNL     1      -9.943   9.795  68.903  1.00  0.00    -0.176 A  
HETATM   28  C   UNL     1      -8.686   9.774  69.535  1.00  0.00    -0.193 A  
HETATM   29  C   UNL     1      -8.548   9.339  70.858  1.00  0.00    -0.220 A  
HETATM   30  C   UNL     1      -9.667   8.911  71.568  1.00  0.00    -0.372 A  
HETATM   31  C   UNL     1     -10.916   8.896  70.943  1.00  0.00    -0.325 A  
HETATM   32  C   UNL     1     -11.049   9.316  69.611  1.00  0.00    -0.134 A  
ENDBRANCH  19  27
ENDBRANCH   2  15
TORSDOF 4
ENDMDL
MODEL       68
REMARK 921   NORMALIZED FREE ENERGY PREDICTED BY IDOCK:   -6.50 KCAL/MOL
REMARK 922        TOTAL FREE ENERGY PREDICTED BY IDOCK:   -8.89 KCAL/MOL
REMARK 923 INTER-LIGAND FREE ENERGY PREDICTED BY IDOCK:   -8.28 KCAL/MOL
REMARK 924 INTRA-LIGAND FREE ENERGY PREDICTED BY IDOCK:   -0.61 KCAL/MOL
REMARK 927      BINDING AFFINITY PREDICTED BY RF-SCORE:    0.00 PKD
ROOT
HETATM    1  C   UNL     1      -8.606  12.910  68.266  1.00  0.00    -0.170 C  
HETATM    2  C   UNL     1      -9.930  13.643  68.474  1.00  0.00    -0.208 C  
ENDROOT
BRANCH   2   3
HETATM    3  N   UNL     1     -11.102  12.821  68.201  1.00  0.00    -0.242 NA 
HETATM    4  H   UNL     1     -12.019  13.250  68.080  1.00  0.00     0.000 HD 
BRANCH   3   5
HETATM    5  C   UNL     1     -10.950  11.440  68.109  1.00  0.00    -0.232 A  
HETATM    6  C   UNL     1     -10.989   9.243  69.028  1.00  0.00    -0.033 A  
HETATM    7  N   UNL     1     -10.655   8.608  67.897  1.00  0.00    -0.199 NA 
HETATM    8  C   UNL     1     -11.558   9.682  71.112  1.00  0.00    -0.381 A  
HETATM    9  H   UNL     1     -11.677  11.774  70.965  1.00  0.00     0.000 HD 
HETATM   10  N   UNL     1     -11.500  10.865  70.537  1.00  0.00    -0.291 NA 
HETATM   11  C   UNL     1     -10.474   9.495  66.899  1.00  0.00    -0.208 A  
HETATM   12  C   UNL     1     -11.145  10.603  69.227  1.00  0.00    -0.252 A  
HETATM   13  N   UNL     1     -11.263   8.672  70.235  1.00  0.00    -0.226 NA 
HETATM   14  N   UNL     1     -10.601  10.841  66.937  1.00  0.00    -0.253 NA 
ENDBRANCH   3   5
ENDBRANCH   2   3
BRANCH   2  15
HETATM   15  C   UNL     1     -10.132  15.023  67.825  1.00  0.00    -0.234 C  
HETATM   16  O   UNL     1     -11.245  16.866  64.928  1.00  0.00    -0.524 OA 
HETATM   17  C   UNL     1      -9.753  16.058  68.601  1.00  0.00    -0.217 C  
HETATM   18  C   UNL     1      -9.740  17.428  68.130  1.00  0.00    -0.291 A  
HETATM   19  N   UNL     1     -10.596  15.273  66.514  1.00  0.00    -0.298 N  
HETATM   20  C   UNL     1      -9.177  18.416  68.951  1.00  0.00    -0.202 A  
HETATM   21  C   UNL     1     -10.743  16.612  66.022  1.00  0.00    -0.151 C  
HETATM   22  C   UNL     1     -10.258  17.744  66.871  1.00  0.00    -0.346 A  
HETATM   23 CL   UNL     1     -10.897  19.681  64.974  1.00  0.00     0.288 Cl 
HETATM   24  C   UNL     1      -9.130  19.737  68.526  1.00  0.00    -0.307 A  
HETATM   25  C   UNL     1      -9.674  20.072  67.291  1.00  0.00    -0.545 A  
HETATM   26  C   UNL     1     -10.245  19.091  66.465  1.00  0.00    -0.421 A  
BRANCH  19  27
HETATM   27  C   UNL     1     -10.912  14.250  65.551  1.00  0.00    -0.319 A  
HETATM   28  C   UNL     1     -12.241  13.801  65.442  1.00  0.00    -0.465 A  
HETATM   29  C   UNL     1     -12.599  12.816  64.514  1.00  0.00    -0.463 A  
HETATM   30  C   UNL     1     -11.629  12.259  63.685  1.00  0.00    -0.581 A  
HETATM   31  C   UNL     1     -10.300  12.672  63.805  1.00  0.00    -0.360 A  
HETATM   32  C   UNL     1      -9.940  13.646  64.748  1.00  0.00    -0.147 A  
ENDBRANCH  19  27
ENDBRANCH   2  15
TORSDOF 4
ENDMDL
MODEL       69
REMARK 921   NORMALIZED FREE ENERGY PREDICTED BY IDOCK:   -6.48 KCAL/MOL
REMARK 922        TOTAL FREE ENERGY PREDICTED BY IDOCK:   -8.87 KCAL/MOL
REMARK 923 INTER-LIGAND FREE ENERGY PREDICTED BY IDOCK:   -7.75 KCAL/MOL
REMARK 924 INTRA-LIGAND FREE ENERGY PREDICTED BY IDOCK:   -1.13 KCAL/MOL
REMARK 927      BINDING AFFINITY PREDICTED BY RF-SCORE:    0.00 PKD
ROOT
HETATM    1  C   UNL     1     -12.347  10.006  71.211  1.00  0.00    -0.496 C  
HETATM    2  C   UNL     1     -11.260   9.587  70.222  1.00  0.00    -0.261 C  
ENDROOT
BRANCH   2   3
HETATM    3  N   UNL     1      -9.936   9.476  70.820  1.00  0.00    -0.283 NA 
HETATM    4  H   UNL     1      -9.183  10.099  70.531  1.00  0.00     0.000 HD 
BRANCH   3   5
HETATM    5  C   UNL     1      -9.716   8.505  71.793  1.00  0.00    -0.267 A  
HETATM    6  C   UNL     1      -9.764   6.261  72.590  1.00  0.00    -0.158 A  
HETATM    7  N   UNL     1      -9.236   6.524  73.793  1.00  0.00    -0.136 NA 
HETATM    8  C   UNL     1     -10.622   5.226  70.843  1.00  0.00    -0.177 A  
HETATM    9  H   UNL     1     -10.877   6.894  69.591  1.00  0.00     0.000 HD 
HETATM   10  N   UNL     1     -10.579   6.491  70.480  1.00  0.00    -0.223 NA 
HETATM   11  C   UNL     1      -8.981   7.841  73.914  1.00  0.00    -0.259 A  
HETATM   12  C   UNL     1     -10.040   7.152  71.568  1.00  0.00    -0.186 A  
HETATM   13  N   UNL     1     -10.133   5.040  72.109  1.00  0.00    -0.189 NA 
HETATM   14  N   UNL     1      -9.183   8.823  73.005  1.00  0.00    -0.159 NA 
ENDBRANCH   3   5
ENDBRANCH   2   3
BRANCH   2  15
HETATM   15  C   UNL     1     -11.138  10.334  68.883  1.00  0.00    -0.231 C  
HETATM   16  O   UNL     1     -10.263  10.143  65.387  1.00  0.00    -0.298 OA 
HETATM   17  C   UNL     1     -11.482  11.636  68.943  1.00  0.00    -0.349 C  
HETATM   18  C   UNL     1     -11.315  12.544  67.827  1.00  0.00    -0.351 A  
HETATM   19  N   UNL     1     -10.646   9.802  67.669  1.00  0.00    -0.259 N  
HETATM   20  C   UNL     1     -11.547  13.912  68.033  1.00  0.00    -0.368 A  
HETATM   21  C   UNL     1     -10.582  10.604  66.482  1.00  0.00    -0.193 C  
HETATM   22  C   UNL     1     -10.906  12.060  66.581  1.00  0.00    -0.311 A  
HETATM   23 CL   UNL     1     -10.348  12.556  63.898  1.00  0.00    -0.442 Cl 
HETATM   24  C   UNL     1     -11.380  14.815  66.993  1.00  0.00    -0.358 A  
HETATM   25  C   UNL     1     -11.008  14.344  65.737  1.00  0.00    -0.314 A  
HETATM   26  C   UNL     1     -10.780  12.976  65.521  1.00  0.00    -0.281 A  
BRANCH  19  27
HETATM   27  C   UNL     1     -10.133   8.467  67.512  1.00  0.00    -0.218 A  
HETATM   28  C   UNL     1     -11.018   7.431  67.160  1.00  0.00    -0.225 A  
HETATM   29  C   UNL     1     -10.565   6.119  66.986  1.00  0.00    -0.384 A  
HETATM   30  C   UNL     1      -9.217   5.820  67.168  1.00  0.00    -0.115 A  
HETATM   31  C   UNL     1      -8.333   6.832  67.549  1.00  0.00    -0.122 A  
HETATM   32  C   UNL     1      -8.792   8.143  67.740  1.00  0.00    -0.130 A  
ENDBRANCH  19  27
ENDBRANCH   2  15
TORSDOF 4
ENDMDL
MODEL       70
REMARK 921   NORMALIZED FREE ENERGY PREDICTED BY IDOCK:   -6.45 KCAL/MOL
REMARK 922        TOTAL FREE ENERGY PREDICTED BY IDOCK:   -8.84 KCAL/MOL
REMARK 923 INTER-LIGAND FREE ENERGY PREDICTED BY IDOCK:   -8.05 KCAL/MOL
REMARK 924 INTRA-LIGAND FREE ENERGY PREDICTED BY IDOCK:   -0.79 KCAL/MOL
REMARK 927      BINDING AFFINITY PREDICTED BY RF-SCORE:    0.00 PKD
ROOT
HETATM    1  C   UNL     1     -10.552   7.662  67.203  1.00  0.00    -0.410 C  
HETATM    2  C   UNL     1     -10.534   8.417  68.531  1.00  0.00    -0.164 C  
ENDROOT
BRANCH   2   3
HETATM    3  N   UNL     1     -11.281   7.754  69.592  1.00  0.00    -0.449 NA 
HETATM    4  H   UNL     1     -12.247   8.016  69.787  1.00  0.00     0.000 HD 
BRANCH   3   5
HETATM    5  C   UNL     1     -10.655   6.756  70.334  1.00  0.00    -0.227 A  
HETATM    6  C   UNL     1      -9.549   5.950  72.283  1.00  0.00    -0.150 A  
HETATM    7  N   UNL     1      -9.394   4.692  71.851  1.00  0.00    -0.136 NA 
HETATM    8  C   UNL     1      -9.517   7.775  73.519  1.00  0.00    -0.284 A  
HETATM    9  H   UNL     1     -10.464   9.078  72.170  1.00  0.00     0.000 HD 
HETATM   10  N   UNL     1     -10.107   8.151  72.403  1.00  0.00    -0.257 NA 
HETATM   11  C   UNL     1      -9.905   4.557  70.611  1.00  0.00    -0.222 A  
HETATM   12  C   UNL     1     -10.135   7.013  71.619  1.00  0.00    -0.182 A  
HETATM   13  N   UNL     1      -9.169   6.451  73.493  1.00  0.00    -0.131 NA 
HETATM   14  N   UNL     1     -10.514   5.492  69.847  1.00  0.00    -0.296 NA 
ENDBRANCH   3   5
ENDBRANCH   2   3
BRANCH   2  15
HETATM   15  C   UNL     1     -10.880   9.917  68.545  1.00  0.00    -0.217 C  
HETATM   16  O   UNL     1     -10.610  13.094  66.854  1.00  0.00    -0.260 OA 
HETATM   17  C   UNL     1     -11.588  10.310  69.621  1.00  0.00    -0.267 C  
HETATM   18  C   UNL     1     -11.903  11.698  69.889  1.00  0.00    -0.434 A  
HETATM   19  N   UNL     1     -10.468  10.879  67.596  1.00  0.00    -0.197 N  
HETATM   20  C   UNL     1     -12.502  12.028  71.114  1.00  0.00    -0.353 A  
HETATM   21  C   UNL     1     -10.859  12.254  67.718  1.00  0.00    -0.221 C  
HETATM   22  C   UNL     1     -11.589  12.685  68.950  1.00  0.00    -0.363 A  
HETATM   23 CL   UNL     1     -11.685  15.359  68.181  1.00  0.00    -0.336 Cl 
HETATM   24  C   UNL     1     -12.801  13.350  71.415  1.00  0.00    -0.420 A  
HETATM   25  C   UNL     1     -12.528  14.338  70.474  1.00  0.00    -0.428 A  
HETATM   26  C   UNL     1     -11.935  14.017  69.243  1.00  0.00    -0.353 A  
BRANCH  19  27
HETATM   27  C   UNL     1      -9.608  10.605  66.475  1.00  0.00    -0.180 A  
HETATM   28  C   UNL     1      -8.215  10.579  66.673  1.00  0.00    -0.129 A  
HETATM   29  C   UNL     1      -7.339  10.307  65.616  1.00  0.00    -0.149 A  
HETATM   30  C   UNL     1      -7.843  10.064  64.341  1.00  0.00    -0.144 A  
HETATM   31  C   UNL     1      -9.222  10.119  64.123  1.00  0.00    -0.314 A  
HETATM   32  C   UNL     1     -10.097  10.409  65.180  1.00  0.00    -0.379 A  
ENDBRANCH  19  27
ENDBRANCH   2  15
TORSDOF 4
ENDMDL
MODEL       71
REMARK 921   NORMALIZED FREE ENERGY PREDICTED BY IDOCK:   -6.44 KCAL/MOL
REMARK 922        TOTAL FREE ENERGY PREDICTED BY IDOCK:   -8.81 KCAL/MOL
REMARK 923 INTER-LIGAND FREE ENERGY PREDICTED BY IDOCK:   -8.06 KCAL/MOL
REMARK 924 INTRA-LIGAND FREE ENERGY PREDICTED BY IDOCK:   -0.75 KCAL/MOL
REMARK 927      BINDING AFFINITY PREDICTED BY RF-SCORE:    0.00 PKD
ROOT
HETATM    1  C   UNL     1     -10.547  11.139  64.114  1.00  0.00    -0.436 C  
HETATM    2  C   UNL     1     -10.710  11.809  65.477  1.00  0.00    -0.279 C  
ENDROOT
BRANCH   2   3
HETATM    3  N   UNL     1      -9.804  12.930  65.690  1.00  0.00    -0.409 NA 
HETATM    4  H   UNL     1      -8.860  12.774  66.042  1.00  0.00     0.000 HD 
BRANCH   3   5
HETATM    5  C   UNL     1     -10.248  14.219  65.403  1.00  0.00    -0.371 A  
HETATM    6  C   UNL     1     -10.051  16.591  65.490  1.00  0.00    -0.174 A  
HETATM    7  N   UNL     1     -11.161  16.853  64.788  1.00  0.00    -0.807 NA 
HETATM    8  C   UNL     1      -8.183  16.804  66.641  1.00  0.00    -0.261 A  
HETATM    9  H   UNL     1      -7.779  14.766  66.954  1.00  0.00     0.000 HD 
HETATM   10  N   UNL     1      -8.369  15.503  66.565  1.00  0.00    -0.254 NA 
HETATM   11  C   UNL     1     -11.773  15.706  64.434  1.00  0.00    -0.218 A  
HETATM   12  C   UNL     1      -9.538  15.355  65.843  1.00  0.00    -0.351 A  
HETATM   13  N   UNL     1      -9.172  17.500  65.999  1.00  0.00    -0.515 NA 
HETATM   14  N   UNL     1     -11.389  14.435  64.692  1.00  0.00    -0.381 NA 
ENDBRANCH   3   5
ENDBRANCH   2   3
BRANCH   2  15
HETATM   15  C   UNL     1     -10.723  10.937  66.745  1.00  0.00    -0.252 C  
HETATM   16  O   UNL     1     -11.082  10.830  70.334  1.00  0.00    -0.266 OA 
HETATM   17  C   UNL     1     -10.515   9.626  66.514  1.00  0.00    -0.213 C  
HETATM   18  C   UNL     1     -10.361   8.657  67.580  1.00  0.00    -0.317 A  
HETATM   19  N   UNL     1     -10.859  11.395  68.075  1.00  0.00    -0.203 N  
HETATM   20  C   UNL     1      -9.986   7.346  67.249  1.00  0.00    -0.259 A  
HETATM   21  C   UNL     1     -10.857  10.477  69.178  1.00  0.00    -0.237 C  
HETATM   22  C   UNL     1     -10.561   9.036  68.910  1.00  0.00    -0.203 A  
HETATM   23 CL   UNL     1     -10.693   8.321  71.599  1.00  0.00    -0.299 Cl 
HETATM   24  C   UNL     1      -9.811   6.395  68.244  1.00  0.00    -0.130 A  
HETATM   25  C   UNL     1     -10.041   6.748  69.570  1.00  0.00    -0.192 A  
HETATM   26  C   UNL     1     -10.424   8.055  69.910  1.00  0.00    -0.233 A  
BRANCH  19  27
HETATM   27  C   UNL     1     -10.961  12.779  68.456  1.00  0.00    -0.258 A  
HETATM   28  C   UNL     1      -9.854  13.407  69.056  1.00  0.00     0.209 A  
HETATM   29  C   UNL     1      -9.903  14.753  69.435  1.00  0.00    -0.072 A  
HETATM   30  C   UNL     1     -11.064  15.492  69.224  1.00  0.00    -0.285 A  
HETATM   31  C   UNL     1     -12.181  14.873  68.658  1.00  0.00    -0.101 A  
HETATM   32  C   UNL     1     -12.137  13.519  68.296  1.00  0.00    -0.295 A  
ENDBRANCH  19  27
ENDBRANCH   2  15
TORSDOF 4
ENDMDL
MODEL       72
REMARK 921   NORMALIZED FREE ENERGY PREDICTED BY IDOCK:   -6.43 KCAL/MOL
REMARK 922        TOTAL FREE ENERGY PREDICTED BY IDOCK:   -8.81 KCAL/MOL
REMARK 923 INTER-LIGAND FREE ENERGY PREDICTED BY IDOCK:   -8.55 KCAL/MOL
REMARK 924 INTRA-LIGAND FREE ENERGY PREDICTED BY IDOCK:   -0.27 KCAL/MOL
REMARK 927      BINDING AFFINITY PREDICTED BY RF-SCORE:    0.00 PKD
ROOT
HETATM    1  C   UNL     1     -10.081  15.325  70.094  1.00  0.00    -0.116 C  
HETATM    2  C   UNL     1     -10.942  15.346  68.832  1.00  0.00    -0.261 C  
ENDROOT
BRANCH   2   3
HETATM    3  N   UNL     1     -12.374  15.364  69.101  1.00  0.00    -0.609 NA 
HETATM    4  H   UNL     1     -13.029  15.701  68.396  1.00  0.00     0.000 HD 
BRANCH   3   5
HETATM    5  C   UNL     1     -12.834  14.914  70.336  1.00  0.00    -0.280 A  
HETATM    6  C   UNL     1     -13.213  13.213  71.959  1.00  0.00    -0.446 A  
HETATM    7  N   UNL     1     -13.761  14.014  72.882  1.00  0.00    -0.632 NA 
HETATM    8  C   UNL     1     -12.409  11.454  70.902  1.00  0.00    -0.381 A  
HETATM    9  H   UNL     1     -11.842  12.401  69.114  1.00  0.00     0.000 HD 
HETATM   10  N   UNL     1     -12.247  12.445  70.050  1.00  0.00    -0.241 NA 
HETATM   11  C   UNL     1     -13.815  15.282  72.429  1.00  0.00    -0.540 A  
HETATM   12  C   UNL     1     -12.746  13.556  70.702  1.00  0.00    -0.205 A  
HETATM   13  N   UNL     1     -12.983  11.874  72.072  1.00  0.00    -0.352 NA 
HETATM   14  N   UNL     1     -13.391  15.768  71.239  1.00  0.00    -0.523 NA 
ENDBRANCH   3   5
ENDBRANCH   2   3
BRANCH   2  15
HETATM   15  C   UNL     1     -10.661  14.325  67.716  1.00  0.00    -0.253 C  
HETATM   16  O   UNL     1      -8.220  12.213  66.101  1.00  0.00     0.161 OA 
HETATM   17  C   UNL     1     -11.732  14.031  66.954  1.00  0.00    -0.435 C  
HETATM   18  C   UNL     1     -11.649  13.195  65.774  1.00  0.00    -0.383 A  
HETATM   19  N   UNL     1      -9.406  13.755  67.401  1.00  0.00    -0.217 N  
HETATM   20  C   UNL     1     -12.780  13.077  64.953  1.00  0.00    -0.456 A  
HETATM   21  C   UNL     1      -9.272  12.809  66.331  1.00  0.00    -0.145 C  
HETATM   22  C   UNL     1     -10.455  12.543  65.456  1.00  0.00    -0.305 A  
HETATM   23 CL   UNL     1      -9.065  10.789  63.798  1.00  0.00    -0.212 Cl 
HETATM   24  C   UNL     1     -12.734  12.299  63.804  1.00  0.00    -0.516 A  
HETATM   25  C   UNL     1     -11.563  11.616  63.494  1.00  0.00    -0.408 A  
HETATM   26  C   UNL     1     -10.428  11.722  64.314  1.00  0.00    -0.325 A  
BRANCH  19  27
HETATM   27  C   UNL     1      -8.170  14.085  68.060  1.00  0.00    -0.155 A  
HETATM   28  C   UNL     1      -7.657  13.204  69.030  1.00  0.00     0.133 A  
HETATM   29  C   UNL     1      -6.454  13.477  69.691  1.00  0.00    -0.072 A  
HETATM   30  C   UNL     1      -5.748  14.640  69.396  1.00  0.00    -0.095 A  
HETATM   31  C   UNL     1      -6.262  15.539  68.458  1.00  0.00    -0.098 A  
HETATM   32  C   UNL     1      -7.477  15.273  67.810  1.00  0.00    -0.178 A  
ENDBRANCH  19  27
ENDBRANCH   2  15
TORSDOF 4
ENDMDL
MODEL       73
REMARK 921   NORMALIZED FREE ENERGY PREDICTED BY IDOCK:   -6.42 KCAL/MOL
REMARK 922        TOTAL FREE ENERGY PREDICTED BY IDOCK:   -8.80 KCAL/MOL
REMARK 923 INTER-LIGAND FREE ENERGY PREDICTED BY IDOCK:   -7.94 KCAL/MOL
REMARK 924 INTRA-LIGAND FREE ENERGY PREDICTED BY IDOCK:   -0.86 KCAL/MOL
REMARK 927      BINDING AFFINITY PREDICTED BY RF-SCORE:    0.00 PKD
ROOT
HETATM    1  C   UNL     1     -10.856  11.385  65.783  1.00  0.00    -0.290 C  
HETATM    2  C   UNL     1     -10.089  11.851  67.019  1.00  0.00    -0.205 C  
ENDROOT
BRANCH   2   3
HETATM    3  N   UNL     1      -9.284  10.806  67.637  1.00  0.00    -0.146 NA 
HETATM    4  H   UNL     1      -8.624  11.032  68.380  1.00  0.00     0.000 HD 
BRANCH   3   5
HETATM    5  C   UNL     1      -9.430   9.493  67.196  1.00  0.00    -0.149 A  
HETATM    6  C   UNL     1      -8.783   7.624  65.869  1.00  0.00    -0.152 A  
HETATM    7  N   UNL     1      -9.732   6.793  66.320  1.00  0.00    -0.059 NA 
HETATM    8  C   UNL     1      -7.056   8.468  64.790  1.00  0.00    -0.080 A  
HETATM    9  H   UNL     1      -7.098  10.404  65.605  1.00  0.00     0.000 HD 
HETATM   10  N   UNL     1      -7.483   9.461  65.542  1.00  0.00    -0.094 NA 
HETATM   11  C   UNL     1     -10.512   7.418  67.223  1.00  0.00    -0.315 A  
HETATM   12  C   UNL     1      -8.567   8.944  66.226  1.00  0.00    -0.133 A  
HETATM   13  N   UNL     1      -7.808   7.336  64.961  1.00  0.00    -0.119 NA 
HETATM   14  N   UNL     1     -10.417   8.688  67.678  1.00  0.00    -0.253 NA 
ENDBRANCH   3   5
ENDBRANCH   2   3
BRANCH   2  15
HETATM   15  C   UNL     1     -10.841  12.615  68.122  1.00  0.00    -0.227 C  
HETATM   16  O   UNL     1     -11.622  15.824  69.580  1.00  0.00    -0.323 OA 
HETATM   17  C   UNL     1     -11.537  11.826  68.964  1.00  0.00    -0.372 C  
HETATM   18  C   UNL     1     -12.206  12.335  70.144  1.00  0.00    -0.302 A  
HETATM   19  N   UNL     1     -10.799  14.009  68.353  1.00  0.00    -0.242 N  
HETATM   20  C   UNL     1     -12.767  11.419  71.046  1.00  0.00    -0.447 A  
HETATM   21  C   UNL     1     -11.549  14.606  69.420  1.00  0.00    -0.305 C  
HETATM   22  C   UNL     1     -12.264  13.711  70.382  1.00  0.00    -0.434 A  
HETATM   23 CL   UNL     1     -13.174  15.822  71.954  1.00  0.00    -0.519 Cl 
HETATM   24  C   UNL     1     -13.400  11.868  72.197  1.00  0.00    -0.361 A  
HETATM   25  C   UNL     1     -13.497  13.236  72.429  1.00  0.00    -0.670 A  
HETATM   26  C   UNL     1     -12.944  14.160  71.528  1.00  0.00    -0.344 A  
BRANCH  19  27
HETATM   27  C   UNL     1      -9.995  14.938  67.602  1.00  0.00    -0.226 A  
HETATM   28  C   UNL     1      -8.701  15.246  68.059  1.00  0.00    -0.160 A  
HETATM   29  C   UNL     1      -7.878  16.135  67.358  1.00  0.00    -0.180 A  
HETATM   30  C   UNL     1      -8.341  16.735  66.190  1.00  0.00    -0.301 A  
HETATM   31  C   UNL     1      -9.636  16.463  65.743  1.00  0.00    -0.227 A  
HETATM   32  C   UNL     1     -10.465  15.586  66.456  1.00  0.00    -0.301 A  
ENDBRANCH  19  27
ENDBRANCH   2  15
TORSDOF 4
ENDMDL
MODEL       74
REMARK 921   NORMALIZED FREE ENERGY PREDICTED BY IDOCK:   -6.42 KCAL/MOL
REMARK 922        TOTAL FREE ENERGY PREDICTED BY IDOCK:   -8.80 KCAL/MOL
REMARK 923 INTER-LIGAND FREE ENERGY PREDICTED BY IDOCK:   -7.33 KCAL/MOL
REMARK 924 INTRA-LIGAND FREE ENERGY PREDICTED BY IDOCK:   -1.47 KCAL/MOL
REMARK 927      BINDING AFFINITY PREDICTED BY RF-SCORE:    0.00 PKD
ROOT
HETATM    1  C   UNL     1     -12.909   8.730  71.711  1.00  0.00    -0.406 C  
HETATM    2  C   UNL     1     -11.606   9.090  70.999  1.00  0.00    -0.300 C  
ENDROOT
BRANCH   2   3
HETATM    3  N   UNL     1     -10.451   9.146  71.885  1.00  0.00    -0.308 NA 
HETATM    4  H   UNL     1     -10.480   9.701  72.740  1.00  0.00     0.000 HD 
BRANCH   3   5
HETATM    5  C   UNL     1      -9.306   8.429  71.545  1.00  0.00    -0.200 A  
HETATM    6  C   UNL     1      -8.189   6.483  70.746  1.00  0.00    -0.125 A  
HETATM    7  N   UNL     1      -6.950   6.983  70.833  1.00  0.00    -0.061 NA 
HETATM    8  C   UNL     1      -9.906   5.151  70.375  1.00  0.00    -0.218 A  
HETATM    9  H   UNL     1     -11.441   6.446  70.992  1.00  0.00     0.000 HD 
HETATM   10  N   UNL     1     -10.450   6.256  70.840  1.00  0.00    -0.215 NA 
HETATM   11  C   UNL     1      -6.986   8.243  71.308  1.00  0.00    -0.061 A  
HETATM   12  C   UNL     1      -9.382   7.102  71.076  1.00  0.00    -0.158 A  
HETATM   13  N   UNL     1      -8.542   5.246  70.295  1.00  0.00    -0.119 NA 
HETATM   14  N   UNL     1      -8.065   8.979  71.659  1.00  0.00    -0.347 NA 
ENDBRANCH   3   5
ENDBRANCH   2   3
BRANCH   2  15
HETATM   15  C   UNL     1     -11.576  10.314  70.067  1.00  0.00    -0.276 C  
HETATM   16  O   UNL     1     -10.613  11.636  66.850  1.00  0.00    -0.222 OA 
HETATM   17  C   UNL     1     -12.119  11.426  70.598  1.00  0.00    -0.469 C  
HETATM   18  C   UNL     1     -12.074  12.714  69.937  1.00  0.00    -0.322 A  
HETATM   19  N   UNL     1     -10.983  10.375  68.785  1.00  0.00    -0.231 N  
HETATM   20  C   UNL     1     -12.521  13.845  70.637  1.00  0.00    -0.436 A  
HETATM   21  C   UNL     1     -11.021  11.581  68.009  1.00  0.00    -0.231 C  
HETATM   22  C   UNL     1     -11.570  12.821  68.638  1.00  0.00    -0.352 A  
HETATM   23 CL   UNL     1     -11.044  14.405  66.409  1.00  0.00    -0.320 Cl 
HETATM   24  C   UNL     1     -12.475  15.099  70.044  1.00  0.00    -0.316 A  
HETATM   25  C   UNL     1     -12.010  15.216  68.738  1.00  0.00    -0.280 A  
HETATM   26  C   UNL     1     -11.568  14.089  68.028  1.00  0.00    -0.337 A  
BRANCH  19  27
HETATM   27  C   UNL     1     -10.265   9.293  68.164  1.00  0.00    -0.205 A  
HETATM   28  C   UNL     1      -8.860   9.346  68.111  1.00  0.00    -0.124 A  
HETATM   29  C   UNL     1      -8.118   8.314  67.527  1.00  0.00    -0.122 A  
HETATM   30  C   UNL     1      -8.772   7.213  66.980  1.00  0.00    -0.123 A  
HETATM   31  C   UNL     1     -10.168   7.162  66.996  1.00  0.00    -0.339 A  
HETATM   32  C   UNL     1     -10.910   8.206  67.567  1.00  0.00    -0.109 A  
ENDBRANCH  19  27
ENDBRANCH   2  15
TORSDOF 4
ENDMDL
MODEL       75
REMARK 921   NORMALIZED FREE ENERGY PREDICTED BY IDOCK:   -6.41 KCAL/MOL
REMARK 922        TOTAL FREE ENERGY PREDICTED BY IDOCK:   -8.78 KCAL/MOL
REMARK 923 INTER-LIGAND FREE ENERGY PREDICTED BY IDOCK:   -7.88 KCAL/MOL
REMARK 924 INTRA-LIGAND FREE ENERGY PREDICTED BY IDOCK:   -0.91 KCAL/MOL
REMARK 927      BINDING AFFINITY PREDICTED BY RF-SCORE:    0.00 PKD
ROOT
HETATM    1  C   UNL     1     -10.834  11.106  63.869  1.00  0.00    -0.346 C  
HETATM    2  C   UNL     1     -10.043  10.746  65.125  1.00  0.00    -0.299 C  
ENDROOT
BRANCH   2   3
HETATM    3  N   UNL     1      -9.531   9.382  65.123  1.00  0.00    -0.426 NA 
HETATM    4  H   UNL     1     -10.150   8.595  65.316  1.00  0.00     0.000 HD 
BRANCH   3   5
HETATM    5  C   UNL     1      -8.181   9.170  64.851  1.00  0.00    -0.153 A  
HETATM    6  C   UNL     1      -6.290   7.764  64.506  1.00  0.00    -0.048 A  
HETATM    7  N   UNL     1      -5.417   8.753  64.272  1.00  0.00    -0.058 NA 
HETATM    8  C   UNL     1      -7.203   5.777  64.779  1.00  0.00    -0.066 A  
HETATM    9  H   UNL     1      -9.167   6.394  65.198  1.00  0.00     0.000 HD 
HETATM   10  N   UNL     1      -8.198   6.618  64.972  1.00  0.00    -0.129 NA 
HETATM   11  C   UNL     1      -6.030   9.949  64.361  1.00  0.00    -0.111 A  
HETATM   12  C   UNL     1      -7.637   7.870  64.803  1.00  0.00    -0.110 A  
HETATM   13  N   UNL     1      -6.033   6.426  64.487  1.00  0.00    -0.022 NA 
HETATM   14  N   UNL     1      -7.331  10.209  64.628  1.00  0.00    -0.143 NA 
ENDBRANCH   3   5
ENDBRANCH   2   3
BRANCH   2  15
HETATM   15  C   UNL     1     -10.654  11.043  66.506  1.00  0.00    -0.254 C  
HETATM   16  O   UNL     1     -12.270  13.468  68.635  1.00  0.00    -0.323 OA 
HETATM   17  C   UNL     1     -10.607  10.006  67.365  1.00  0.00    -0.330 C  
HETATM   18  C   UNL     1     -11.009  10.118  68.752  1.00  0.00    -0.264 A  
HETATM   19  N   UNL     1     -11.169  12.284  66.943  1.00  0.00    -0.293 N  
HETATM   20  C   UNL     1     -10.773   9.033  69.610  1.00  0.00    -0.228 A  
HETATM   21  C   UNL     1     -11.715  12.435  68.261  1.00  0.00    -0.345 C  
HETATM   22  C   UNL     1     -11.597  11.295  69.222  1.00  0.00    -0.390 A  
HETATM   23 CL   UNL     1     -12.792  12.693  71.313  1.00  0.00    -0.409 Cl 
HETATM   24  C   UNL     1     -11.128   9.110  70.950  1.00  0.00    -0.356 A  
HETATM   25  C   UNL     1     -11.747  10.262  71.423  1.00  0.00    -0.312 A  
HETATM   26  C   UNL     1     -11.993  11.349  70.571  1.00  0.00    -0.356 A  
BRANCH  19  27
HETATM   27  C   UNL     1     -11.160  13.494  66.163  1.00  0.00    -0.291 A  
HETATM   28  C   UNL     1     -10.028  14.328  66.210  1.00  0.00    -0.319 A  
HETATM   29  C   UNL     1      -9.968  15.509  65.462  1.00  0.00    -0.377 A  
HETATM   30  C   UNL     1     -11.044  15.878  64.658  1.00  0.00    -0.368 A  
HETATM   31  C   UNL     1     -12.187  15.075  64.628  1.00  0.00    -0.286 A  
HETATM   32  C   UNL     1     -12.252  13.901  65.392  1.00  0.00    -0.463 A  
ENDBRANCH  19  27
ENDBRANCH   2  15
TORSDOF 4
ENDMDL
MODEL       76
REMARK 921   NORMALIZED FREE ENERGY PREDICTED BY IDOCK:   -6.38 KCAL/MOL
REMARK 922        TOTAL FREE ENERGY PREDICTED BY IDOCK:   -8.75 KCAL/MOL
REMARK 923 INTER-LIGAND FREE ENERGY PREDICTED BY IDOCK:   -7.85 KCAL/MOL
REMARK 924 INTRA-LIGAND FREE ENERGY PREDICTED BY IDOCK:   -0.89 KCAL/MOL
REMARK 927      BINDING AFFINITY PREDICTED BY RF-SCORE:    0.00 PKD
ROOT
HETATM    1  C   UNL     1     -10.582  12.615  65.244  1.00  0.00    -0.317 C  
HETATM    2  C   UNL     1     -10.032  13.541  66.328  1.00  0.00    -0.298 C  
ENDROOT
BRANCH   2   3
HETATM    3  N   UNL     1      -8.607  13.370  66.576  1.00  0.00    -0.424 NA 
HETATM    4  H   UNL     1      -7.940  14.082  66.280  1.00  0.00     0.000 HD 
BRANCH   3   5
HETATM    5  C   UNL     1      -8.169  12.217  67.223  1.00  0.00    -0.180 A  
HETATM    6  C   UNL     1      -7.020  11.081  68.973  1.00  0.00    -0.097 A  
HETATM    7  N   UNL     1      -7.299   9.842  68.548  1.00  0.00    -0.077 NA 
HETATM    8  C   UNL     1      -6.269  12.791  70.144  1.00  0.00    -0.026 A  
HETATM    9  H   UNL     1      -7.028  14.342  68.947  1.00  0.00     0.000 HD 
HETATM   10  N   UNL     1      -6.910  13.346  69.137  1.00  0.00    -0.101 NA 
HETATM   11  C   UNL     1      -8.030   9.889  67.417  1.00  0.00    -0.106 A  
HETATM   12  C   UNL     1      -7.388  12.283  68.394  1.00  0.00    -0.109 A  
HETATM   13  N   UNL     1      -6.316  11.423  70.088  1.00  0.00    -0.163 NA 
HETATM   14  N   UNL     1      -8.473  10.977  66.747  1.00  0.00    -0.142 NA 
ENDBRANCH   3   5
ENDBRANCH   2   3
BRANCH   2  15
HETATM   15  C   UNL     1     -10.763  13.629  67.679  1.00  0.00    -0.245 C  
HETATM   16  O   UNL     1     -11.691  15.707  70.481  1.00  0.00    -0.305 OA 
HETATM   17  C   UNL     1     -11.333  12.474  68.075  1.00  0.00    -0.339 C  
HETATM   18  C   UNL     1     -11.955  12.311  69.373  1.00  0.00    -0.318 A  
HETATM   19  N   UNL     1     -10.815  14.756  68.530  1.00  0.00    -0.244 N  
HETATM   20  C   UNL     1     -12.377  11.030  69.760  1.00  0.00    -0.331 A  
HETATM   21  C   UNL     1     -11.533  14.714  69.771  1.00  0.00    -0.282 C  
HETATM   22  C   UNL     1     -12.105  13.409  70.225  1.00  0.00    -0.419 A  
HETATM   23 CL   UNL     1     -13.067  14.452  72.621  1.00  0.00    -0.522 Cl 
HETATM   24  C   UNL     1     -12.961  10.831  71.003  1.00  0.00    -0.425 A  
HETATM   25  C   UNL     1     -13.149  11.921  71.847  1.00  0.00    -0.474 A  
HETATM   26  C   UNL     1     -12.737  13.207  71.465  1.00  0.00    -0.269 A  
BRANCH  19  27
HETATM   27  C   UNL     1     -10.142  16.003  68.277  1.00  0.00    -0.229 A  
HETATM   28  C   UNL     1     -10.755  16.953  67.439  1.00  0.00    -0.241 A  
HETATM   29  C   UNL     1     -10.145  18.183  67.171  1.00  0.00    -0.358 A  
HETATM   30  C   UNL     1      -8.905  18.480  67.732  1.00  0.00    -0.290 A  
HETATM   31  C   UNL     1      -8.271  17.533  68.540  1.00  0.00    -0.278 A  
HETATM   32  C   UNL     1      -8.876  16.294  68.793  1.00  0.00    -0.243 A  
ENDBRANCH  19  27
ENDBRANCH   2  15
TORSDOF 4
ENDMDL
MODEL       77
REMARK 921   NORMALIZED FREE ENERGY PREDICTED BY IDOCK:   -6.37 KCAL/MOL
REMARK 922        TOTAL FREE ENERGY PREDICTED BY IDOCK:   -8.73 KCAL/MOL
REMARK 923 INTER-LIGAND FREE ENERGY PREDICTED BY IDOCK:   -8.11 KCAL/MOL
REMARK 924 INTRA-LIGAND FREE ENERGY PREDICTED BY IDOCK:   -0.62 KCAL/MOL
REMARK 927      BINDING AFFINITY PREDICTED BY RF-SCORE:    0.00 PKD
ROOT
HETATM    1  C   UNL     1     -12.693  10.556  70.649  1.00  0.00    -0.441 C  
HETATM    2  C   UNL     1     -11.464  10.093  69.868  1.00  0.00    -0.254 C  
ENDROOT
BRANCH   2   3
HETATM    3  N   UNL     1     -10.214  10.239  70.603  1.00  0.00    -0.284 NA 
HETATM    4  H   UNL     1      -9.801  11.160  70.744  1.00  0.00     0.000 HD 
BRANCH   3   5
HETATM    5  C   UNL     1      -9.593   9.100  71.109  1.00  0.00    -0.277 A  
HETATM    6  C   UNL     1      -9.610   6.841  71.864  1.00  0.00    -0.148 A  
HETATM    7  N   UNL     1      -8.299   6.767  72.126  1.00  0.00    -0.107 NA 
HETATM    8  C   UNL     1     -11.746   6.348  71.627  1.00  0.00    -0.313 A  
HETATM    9  H   UNL     1     -12.413   8.205  70.906  1.00  0.00     0.000 HD 
HETATM   10  N   UNL     1     -11.659   7.603  71.239  1.00  0.00    -0.273 NA 
HETATM   11  C   UNL     1      -7.700   7.942  71.851  1.00  0.00    -0.093 A  
HETATM   12  C   UNL     1     -10.323   7.925  71.382  1.00  0.00    -0.198 A  
HETATM   13  N   UNL     1     -10.530   5.845  72.006  1.00  0.00    -0.207 NA 
HETATM   14  N   UNL     1      -8.256   9.076  71.367  1.00  0.00    -0.322 NA 
ENDBRANCH   3   5
ENDBRANCH   2   3
BRANCH   2  15
HETATM   15  C   UNL     1     -11.255  10.600  68.430  1.00  0.00    -0.288 C  
HETATM   16  O   UNL     1      -9.976   9.887  65.132  1.00  0.00    -0.318 OA 
HETATM   17  C   UNL     1     -11.714  11.848  68.213  1.00  0.00    -0.385 C  
HETATM   18  C   UNL     1     -11.500  12.557  66.968  1.00  0.00    -0.419 A  
HETATM   19  N   UNL     1     -10.585   9.917  67.390  1.00  0.00    -0.271 N  
HETATM   20  C   UNL     1     -11.872  13.908  66.891  1.00  0.00    -0.453 A  
HETATM   21  C   UNL     1     -10.455  10.498  66.085  1.00  0.00    -0.168 C  
HETATM   22  C   UNL     1     -10.913  11.907  65.880  1.00  0.00    -0.354 A  
HETATM   23 CL   UNL     1     -10.100  11.976  63.217  1.00  0.00    -0.435 Cl 
HETATM   24  C   UNL     1     -11.666  14.626  65.721  1.00  0.00    -0.302 A  
HETATM   25  C   UNL     1     -11.115  13.982  64.618  1.00  0.00    -0.387 A  
HETATM   26  C   UNL     1     -10.747  12.629  64.683  1.00  0.00    -0.326 A  
BRANCH  19  27
HETATM   27  C   UNL     1      -9.944   8.636  67.535  1.00  0.00    -0.199 A  
HETATM   28  C   UNL     1      -8.554   8.587  67.750  1.00  0.00    -0.134 A  
HETATM   29  C   UNL     1      -7.888   7.367  67.906  1.00  0.00    -0.118 A  
HETATM   30  C   UNL     1      -8.603   6.173  67.843  1.00  0.00    -0.114 A  
HETATM   31  C   UNL     1      -9.978   6.205  67.598  1.00  0.00    -0.150 A  
HETATM   32  C   UNL     1     -10.640   7.429  67.424  1.00  0.00    -0.371 A  
ENDBRANCH  19  27
ENDBRANCH   2  15
TORSDOF 4
ENDMDL
MODEL       78
REMARK 921   NORMALIZED FREE ENERGY PREDICTED BY IDOCK:   -6.36 KCAL/MOL
REMARK 922        TOTAL FREE ENERGY PREDICTED BY IDOCK:   -8.72 KCAL/MOL
REMARK 923 INTER-LIGAND FREE ENERGY PREDICTED BY IDOCK:   -7.92 KCAL/MOL
REMARK 924 INTRA-LIGAND FREE ENERGY PREDICTED BY IDOCK:   -0.80 KCAL/MOL
REMARK 927      BINDING AFFINITY PREDICTED BY RF-SCORE:    0.00 PKD
ROOT
HETATM    1  C   UNL     1     -10.842  15.546  65.238  1.00  0.00    -0.425 C  
HETATM    2  C   UNL     1     -10.743  14.765  66.547  1.00  0.00    -0.319 C  
ENDROOT
BRANCH   2   3
HETATM    3  N   UNL     1     -11.949  14.832  67.362  1.00  0.00    -0.487 NA 
HETATM    4  H   UNL     1     -12.698  15.482  67.125  1.00  0.00     0.000 HD 
BRANCH   3   5
HETATM    5  C   UNL     1     -12.061  13.996  68.469  1.00  0.00    -0.294 A  
HETATM    6  C   UNL     1     -12.416  13.597  70.790  1.00  0.00    -0.359 A  
HETATM    7  N   UNL     1     -12.311  12.263  70.725  1.00  0.00    -0.356 NA 
HETATM    8  C   UNL     1     -12.699  15.658  71.520  1.00  0.00    -0.457 A  
HETATM    9  H   UNL     1     -12.447  16.668  69.695  1.00  0.00     0.000 HD 
HETATM   10  N   UNL     1     -12.479  15.800  70.229  1.00  0.00    -0.348 NA 
HETATM   11  C   UNL     1     -12.064  11.875  69.459  1.00  0.00    -0.226 A  
HETATM   12  C   UNL     1     -12.301  14.512  69.759  1.00  0.00    -0.272 A  
HETATM   13  N   UNL     1     -12.678  14.343  71.901  1.00  0.00    -0.339 NA 
HETATM   14  N   UNL     1     -11.938  12.644  68.353  1.00  0.00    -0.287 NA 
ENDBRANCH   3   5
ENDBRANCH   2   3
BRANCH   2  15
HETATM   15  C   UNL     1      -9.519  14.976  67.455  1.00  0.00    -0.201 C  
HETATM   16  O   UNL     1      -7.387  17.348  69.145  1.00  0.00    -0.232 OA 
HETATM   17  C   UNL     1      -8.907  13.837  67.832  1.00  0.00    -0.186 C  
HETATM   18  C   UNL     1      -7.666  13.823  68.577  1.00  0.00    -0.138 A  
HETATM   19  N   UNL     1      -8.971  16.220  67.845  1.00  0.00    -0.187 N  
HETATM   20  C   UNL     1      -7.019  12.595  68.784  1.00  0.00    -0.096 A  
HETATM   21  C   UNL     1      -7.822  16.287  68.700  1.00  0.00    -0.202 C  
HETATM   22  C   UNL     1      -7.118  15.016  69.056  1.00  0.00    -0.133 A  
HETATM   23 CL   UNL     1      -5.133  16.310  70.519  1.00  0.00    -0.178 Cl 
HETATM   24  C   UNL     1      -5.818  12.543  69.478  1.00  0.00    -0.105 A  
HETATM   25  C   UNL     1      -5.280  13.719  69.991  1.00  0.00    -0.093 A  
HETATM   26  C   UNL     1      -5.923  14.951  69.795  1.00  0.00    -0.123 A  
BRANCH  19  27
HETATM   27  C   UNL     1      -9.459  17.501  67.406  1.00  0.00    -0.255 A  
HETATM   28  C   UNL     1      -8.834  18.133  66.315  1.00  0.00    -0.196 A  
HETATM   29  C   UNL     1      -9.278  19.374  65.846  1.00  0.00    -0.049 A  
HETATM   30  C   UNL     1     -10.353  20.007  66.466  1.00  0.00    -0.572 A  
HETATM   31  C   UNL     1     -10.962  19.406  67.570  1.00  0.00    -0.416 A  
HETATM   32  C   UNL     1     -10.504  18.170  68.050  1.00  0.00    -0.387 A  
ENDBRANCH  19  27
ENDBRANCH   2  15
TORSDOF 4
ENDMDL
MODEL       79
REMARK 921   NORMALIZED FREE ENERGY PREDICTED BY IDOCK:   -6.35 KCAL/MOL
REMARK 922        TOTAL FREE ENERGY PREDICTED BY IDOCK:   -8.71 KCAL/MOL
REMARK 923 INTER-LIGAND FREE ENERGY PREDICTED BY IDOCK:   -8.19 KCAL/MOL
REMARK 924 INTRA-LIGAND FREE ENERGY PREDICTED BY IDOCK:   -0.52 KCAL/MOL
REMARK 927      BINDING AFFINITY PREDICTED BY RF-SCORE:    0.00 PKD
ROOT
HETATM    1  C   UNL     1      -8.815  13.526  68.909  1.00  0.00     0.223 C  
HETATM    2  C   UNL     1      -9.932  12.827  68.136  1.00  0.00    -0.229 C  
ENDROOT
BRANCH   2   3
HETATM    3  N   UNL     1     -11.232  13.470  68.276  1.00  0.00    -0.260 NA 
HETATM    4  H   UNL     1     -11.980  13.276  67.611  1.00  0.00     0.000 HD 
BRANCH   3   5
HETATM    5  C   UNL     1     -11.436  14.353  69.333  1.00  0.00    -0.288 A  
HETATM    6  C   UNL     1     -12.292  14.916  71.483  1.00  0.00    -0.339 A  
HETATM    7  N   UNL     1     -11.826  16.171  71.500  1.00  0.00    -0.473 NA 
HETATM    8  C   UNL     1     -13.268  13.020  72.043  1.00  0.00    -0.444 A  
HETATM    9  H   UNL     1     -12.841  11.927  70.300  1.00  0.00     0.000 HD 
HETATM   10  N   UNL     1     -12.778  12.789  70.843  1.00  0.00    -0.248 NA 
HETATM   11  C   UNL     1     -11.168  16.441  70.355  1.00  0.00    -0.238 A  
HETATM   12  C   UNL     1     -12.162  13.972  70.480  1.00  0.00    -0.365 A  
HETATM   13  N   UNL     1     -12.991  14.291  72.472  1.00  0.00    -0.412 NA 
HETATM   14  N   UNL     1     -10.949  15.624  69.300  1.00  0.00    -0.247 NA 
ENDBRANCH   3   5
ENDBRANCH   2   3
BRANCH   2  15
HETATM   15  C   UNL     1     -10.113  11.307  68.292  1.00  0.00    -0.188 C  
HETATM   16  O   UNL     1     -10.260   8.099  66.644  1.00  0.00    -0.292 OA 
HETATM   17  C   UNL     1     -10.312  10.901  69.561  1.00  0.00    -0.136 C  
HETATM   18  C   UNL     1     -10.632   9.531  69.905  1.00  0.00    -0.269 A  
HETATM   19  N   UNL     1     -10.155  10.358  67.245  1.00  0.00    -0.191 N  
HETATM   20  C   UNL     1     -10.983   9.236  71.231  1.00  0.00    -0.421 A  
HETATM   21  C   UNL     1     -10.328   8.960  67.519  1.00  0.00    -0.263 C  
HETATM   22  C   UNL     1     -10.612   8.536  68.925  1.00  0.00    -0.166 A  
HETATM   23 CL   UNL     1     -10.870   5.845  68.254  1.00  0.00    -0.337 Cl 
HETATM   24  C   UNL     1     -11.313   7.938  71.596  1.00  0.00    -0.299 A  
HETATM   25  C   UNL     1     -11.263   6.930  70.638  1.00  0.00    -0.346 A  
HETATM   26  C   UNL     1     -10.906   7.215  69.311  1.00  0.00    -0.183 A  
BRANCH  19  27
HETATM   27  C   UNL     1     -10.079  10.682  65.845  1.00  0.00    -0.261 A  
HETATM   28  C   UNL     1     -11.160  11.347  65.238  1.00  0.00    -0.198 A  
HETATM   29  C   UNL     1     -11.129  11.692  63.882  1.00  0.00    -0.477 A  
HETATM   30  C   UNL     1     -10.016  11.370  63.109  1.00  0.00    -0.402 A  
HETATM   31  C   UNL     1      -8.949  10.681  63.691  1.00  0.00    -0.211 A  
HETATM   32  C   UNL     1      -8.990  10.321  65.046  1.00  0.00    -0.225 A  
ENDBRANCH  19  27
ENDBRANCH   2  15
TORSDOF 4
ENDMDL
MODEL       80
REMARK 921   NORMALIZED FREE ENERGY PREDICTED BY IDOCK:   -6.34 KCAL/MOL
REMARK 922        TOTAL FREE ENERGY PREDICTED BY IDOCK:   -8.70 KCAL/MOL
REMARK 923 INTER-LIGAND FREE ENERGY PREDICTED BY IDOCK:   -7.99 KCAL/MOL
REMARK 924 INTRA-LIGAND FREE ENERGY PREDICTED BY IDOCK:   -0.71 KCAL/MOL
REMARK 927      BINDING AFFINITY PREDICTED BY RF-SCORE:    0.00 PKD
ROOT
HETATM    1  C   UNL     1     -12.159  13.093  67.458  1.00  0.00    -0.300 C  
HETATM    2  C   UNL     1     -11.786  11.839  68.247  1.00  0.00    -0.310 C  
ENDROOT
BRANCH   2   3
HETATM    3  N   UNL     1     -11.216  12.122  69.559  1.00  0.00    -0.450 NA 
HETATM    4  H   UNL     1     -10.227  11.958  69.740  1.00  0.00     0.000 HD 
BRANCH   3   5
HETATM    5  C   UNL     1     -12.046  12.620  70.560  1.00  0.00    -0.275 A  
HETATM    6  C   UNL     1     -12.915  14.384  71.903  1.00  0.00    -0.349 A  
HETATM    7  N   UNL     1     -13.770  13.626  72.601  1.00  0.00    -0.730 NA 
HETATM    8  C   UNL     1     -11.769  16.096  71.119  1.00  0.00    -0.407 A  
HETATM    9  H   UNL     1     -10.614  15.069  69.696  1.00  0.00     0.000 HD 
HETATM   10  N   UNL     1     -11.326  15.067  70.427  1.00  0.00    -0.266 NA 
HETATM   11  C   UNL     1     -13.686  12.341  72.206  1.00  0.00    -0.093 A  
HETATM   12  C   UNL     1     -12.039  13.985  70.909  1.00  0.00    -0.329 A  
HETATM   13  N   UNL     1     -12.735  15.730  72.018  1.00  0.00    -0.436 NA 
HETATM   14  N   UNL     1     -12.894  11.806  71.248  1.00  0.00    -0.363 NA 
ENDBRANCH   3   5
ENDBRANCH   2   3
BRANCH   2  15
HETATM   15  C   UNL     1     -10.941  10.748  67.566  1.00  0.00    -0.312 C  
HETATM   16  O   UNL     1      -9.398   7.499  67.862  1.00  0.00    -0.138 OA 
HETATM   17  C   UNL     1     -10.562  11.049  66.309  1.00  0.00    -0.295 C  
HETATM   18  C   UNL     1      -9.658  10.216  65.542  1.00  0.00    -0.310 A  
HETATM   19  N   UNL     1     -10.495   9.545  68.157  1.00  0.00    -0.213 N  
HETATM   20  C   UNL     1      -9.192  10.689  64.306  1.00  0.00    -0.265 A  
HETATM   21  C   UNL     1      -9.710   8.602  67.414  1.00  0.00    -0.175 C  
HETATM   22  C   UNL     1      -9.244   8.979  66.043  1.00  0.00    -0.284 A  
HETATM   23 CL   UNL     1      -7.819   6.614  65.677  1.00  0.00    -0.098 Cl 
HETATM   24  C   UNL     1      -8.310   9.929  63.552  1.00  0.00    -0.166 A  
HETATM   25  C   UNL     1      -7.918   8.679  64.021  1.00  0.00    -0.158 A  
HETATM   26  C   UNL     1      -8.385   8.194  65.253  1.00  0.00    -0.152 A  
BRANCH  19  27
HETATM   27  C   UNL     1     -10.728   9.172  69.528  1.00  0.00    -0.215 A  
HETATM   28  C   UNL     1      -9.678   9.290  70.457  1.00  0.00    -0.316 A  
HETATM   29  C   UNL     1      -9.860   8.950  71.802  1.00  0.00    -0.386 A  
HETATM   30  C   UNL     1     -11.096   8.477  72.238  1.00  0.00    -0.430 A  
HETATM   31  C   UNL     1     -12.137   8.324  71.319  1.00  0.00    -0.307 A  
HETATM   32  C   UNL     1     -11.948   8.649  69.968  1.00  0.00     0.538 A  
ENDBRANCH  19  27
ENDBRANCH   2  15
TORSDOF 4
ENDMDL
MODEL       81
REMARK 921   NORMALIZED FREE ENERGY PREDICTED BY IDOCK:   -6.33 KCAL/MOL
REMARK 922        TOTAL FREE ENERGY PREDICTED BY IDOCK:   -8.68 KCAL/MOL
REMARK 923 INTER-LIGAND FREE ENERGY PREDICTED BY IDOCK:   -7.87 KCAL/MOL
REMARK 924 INTRA-LIGAND FREE ENERGY PREDICTED BY IDOCK:   -0.81 KCAL/MOL
REMARK 927      BINDING AFFINITY PREDICTED BY RF-SCORE:    0.00 PKD
ROOT
HETATM    1  C   UNL     1     -13.012  11.058  71.653  1.00  0.00    -0.561 C  
HETATM    2  C   UNL     1     -11.961  10.665  70.616  1.00  0.00    -0.367 C  
ENDROOT
BRANCH   2   3
HETATM    3  N   UNL     1     -10.787  10.019  71.188  1.00  0.00    -0.267 NA 
HETATM    4  H   UNL     1      -9.944  10.556  71.386  1.00  0.00     0.000 HD 
BRANCH   3   5
HETATM    5  C   UNL     1     -10.836   8.654  71.461  1.00  0.00    -0.282 A  
HETATM    6  C   UNL     1      -9.973   6.661  72.439  1.00  0.00    -0.166 A  
HETATM    7  N   UNL     1     -10.964   5.859  72.030  1.00  0.00    -0.255 NA 
HETATM    8  C   UNL     1      -8.135   7.432  73.381  1.00  0.00    -0.112 A  
HETATM    9  H   UNL     1      -8.304   9.441  72.789  1.00  0.00     0.000 HD 
HETATM   10  N   UNL     1      -8.666   8.487  72.799  1.00  0.00    -0.375 NA 
HETATM   11  C   UNL     1     -11.867   6.558  71.315  1.00  0.00    -0.329 A  
HETATM   12  C   UNL     1      -9.822   8.017  72.204  1.00  0.00    -0.223 A  
HETATM   13  N   UNL     1      -8.895   6.308  73.195  1.00  0.00    -0.130 NA 
HETATM   14  N   UNL     1     -11.863   7.877  71.016  1.00  0.00    -0.288 NA 
ENDBRANCH   3   5
ENDBRANCH   2   3
BRANCH   2  15
HETATM   15  C   UNL     1     -11.498  11.711  69.586  1.00  0.00    -0.288 C  
HETATM   16  O   UNL     1      -9.700  12.338  66.520  1.00  0.00    -0.222 OA 
HETATM   17  C   UNL     1     -11.878  12.971  69.870  1.00  0.00    -0.377 C  
HETATM   18  C   UNL     1     -11.437  14.116  69.100  1.00  0.00    -0.338 A  
HETATM   19  N   UNL     1     -10.681  11.469  68.458  1.00  0.00    -0.199 N  
HETATM   20  C   UNL     1     -11.751  15.401  69.565  1.00  0.00    -0.364 A  
HETATM   21  C   UNL     1     -10.316  12.533  67.567  1.00  0.00    -0.220 C  
HETATM   22  C   UNL     1     -10.692  13.933  67.931  1.00  0.00    -0.248 A  
HETATM   23 CL   UNL     1      -9.439  15.043  65.706  1.00  0.00    -0.325 Cl 
HETATM   24  C   UNL     1     -11.329  16.523  68.865  1.00  0.00    -0.206 A  
HETATM   25  C   UNL     1     -10.618  16.356  67.680  1.00  0.00    -0.313 A  
HETATM   26  C   UNL     1     -10.306  15.073  67.203  1.00  0.00    -0.257 A  
BRANCH  19  27
HETATM   27  C   UNL     1     -10.111  10.191  68.121  1.00  0.00    -0.152 A  
HETATM   28  C   UNL     1      -8.805   9.891  68.550  1.00  0.00    -0.122 A  
HETATM   29  C   UNL     1      -8.211   8.658  68.255  1.00  0.00    -0.122 A  
HETATM   30  C   UNL     1      -8.915   7.708  67.520  1.00  0.00    -0.128 A  
HETATM   31  C   UNL     1     -10.200   8.005  67.060  1.00  0.00    -0.374 A  
HETATM   32  C   UNL     1     -10.786   9.248  67.341  1.00  0.00    -0.263 A  
ENDBRANCH  19  27
ENDBRANCH   2  15
TORSDOF 4
ENDMDL
MODEL       82
REMARK 921   NORMALIZED FREE ENERGY PREDICTED BY IDOCK:   -6.33 KCAL/MOL
REMARK 922        TOTAL FREE ENERGY PREDICTED BY IDOCK:   -8.68 KCAL/MOL
REMARK 923 INTER-LIGAND FREE ENERGY PREDICTED BY IDOCK:   -7.76 KCAL/MOL
REMARK 924 INTRA-LIGAND FREE ENERGY PREDICTED BY IDOCK:   -0.92 KCAL/MOL
REMARK 927      BINDING AFFINITY PREDICTED BY RF-SCORE:    0.00 PKD
ROOT
HETATM    1  C   UNL     1      -8.992   9.595  70.240  1.00  0.00    -0.263 C  
HETATM    2  C   UNL     1     -10.425   9.722  69.727  1.00  0.00    -0.250 C  
ENDROOT
BRANCH   2   3
HETATM    3  N   UNL     1     -11.201   8.495  69.850  1.00  0.00    -0.442 NA 
HETATM    4  H   UNL     1     -11.848   8.215  69.113  1.00  0.00     0.000 HD 
BRANCH   3   5
HETATM    5  C   UNL     1     -11.045   7.710  70.989  1.00  0.00    -0.257 A  
HETATM    6  C   UNL     1     -10.498   5.673  72.095  1.00  0.00    -0.216 A  
HETATM    7  N   UNL     1     -10.709   6.123  73.339  1.00  0.00    -0.263 NA 
HETATM    8  C   UNL     1      -9.991   4.397  70.371  1.00  0.00    -0.183 A  
HETATM    9  H   UNL     1     -10.343   5.792  68.840  1.00  0.00     0.000 HD 
HETATM   10  N   UNL     1     -10.324   5.551  69.831  1.00  0.00    -0.272 NA 
HETATM   11  C   UNL     1     -11.107   7.410  73.309  1.00  0.00    -0.255 A  
HETATM   12  C   UNL     1     -10.643   6.362  70.904  1.00  0.00    -0.236 A  
HETATM   13  N   UNL     1     -10.075   4.428  71.737  1.00  0.00    -0.184 NA 
HETATM   14  N   UNL     1     -11.280   8.212  72.234  1.00  0.00    -0.332 NA 
ENDBRANCH   3   5
ENDBRANCH   2   3
BRANCH   2  15
HETATM   15  C   UNL     1     -10.671  10.327  68.334  1.00  0.00    -0.226 C  
HETATM   16  O   UNL     1     -10.193   9.999  64.772  1.00  0.00    -0.237 OA 
HETATM   17  C   UNL     1     -11.353  11.489  68.349  1.00  0.00    -0.342 C  
HETATM   18  C   UNL     1     -11.575  12.284  67.158  1.00  0.00    -0.423 A  
HETATM   19  N   UNL     1     -10.197   9.816  67.104  1.00  0.00    -0.213 N  
HETATM   20  C   UNL     1     -12.151  13.555  67.296  1.00  0.00    -0.367 A  
HETATM   21  C   UNL     1     -10.496  10.474  65.865  1.00  0.00    -0.153 C  
HETATM   22  C   UNL     1     -11.197  11.795  65.905  1.00  0.00    -0.345 A  
HETATM   23 CL   UNL     1     -11.116  12.129  63.141  1.00  0.00    -0.363 Cl 
HETATM   24  C   UNL     1     -12.362  14.354  66.181  1.00  0.00    -0.335 A  
HETATM   25  C   UNL     1     -12.024  13.866  64.923  1.00  0.00    -0.412 A  
HETATM   26  C   UNL     1     -11.454  12.591  64.774  1.00  0.00    -0.323 A  
BRANCH  19  27
HETATM   27  C   UNL     1      -9.357   8.655  66.971  1.00  0.00    -0.159 A  
HETATM   28  C   UNL     1      -7.959   8.816  67.006  1.00  0.00    -0.095 A  
HETATM   29  C   UNL     1      -7.101   7.716  66.890  1.00  0.00    -0.084 A  
HETATM   30  C   UNL     1      -7.630   6.437  66.732  1.00  0.00    -0.098 A  
HETATM   31  C   UNL     1      -9.014   6.268  66.664  1.00  0.00    -0.139 A  
HETATM   32  C   UNL     1      -9.872   7.373  66.762  1.00  0.00    -0.290 A  
ENDBRANCH  19  27
ENDBRANCH   2  15
TORSDOF 4
ENDMDL
MODEL       83
REMARK 921   NORMALIZED FREE ENERGY PREDICTED BY IDOCK:   -6.31 KCAL/MOL
REMARK 922        TOTAL FREE ENERGY PREDICTED BY IDOCK:   -8.66 KCAL/MOL
REMARK 923 INTER-LIGAND FREE ENERGY PREDICTED BY IDOCK:   -8.20 KCAL/MOL
REMARK 924 INTRA-LIGAND FREE ENERGY PREDICTED BY IDOCK:   -0.46 KCAL/MOL
REMARK 927      BINDING AFFINITY PREDICTED BY RF-SCORE:    0.00 PKD
ROOT
HETATM    1  C   UNL     1     -11.793  14.089  68.602  1.00  0.00    -0.396 C  
HETATM    2  C   UNL     1     -10.493  13.310  68.416  1.00  0.00    -0.253 C  
ENDROOT
BRANCH   2   3
HETATM    3  N   UNL     1      -9.691  13.772  67.290  1.00  0.00    -0.236 NA 
HETATM    4  H   UNL     1      -8.960  13.179  66.897  1.00  0.00     0.000 HD 
BRANCH   3   5
HETATM    5  C   UNL     1      -9.938  15.036  66.760  1.00  0.00    -0.248 A  
HETATM    6  C   UNL     1      -9.707  17.406  66.750  1.00  0.00    -0.290 A  
HETATM    7  N   UNL     1     -10.436  17.617  65.647  1.00  0.00    -0.623 NA 
HETATM    8  C   UNL     1      -8.446  17.701  68.534  1.00  0.00    -0.289 A  
HETATM    9  H   UNL     1      -8.272  15.692  69.125  1.00  0.00     0.000 HD 
HETATM   10  N   UNL     1      -8.632  16.398  68.482  1.00  0.00    -0.212 NA 
HETATM   11  C   UNL     1     -10.897  16.448  65.160  1.00  0.00    -0.275 A  
HETATM   12  C   UNL     1      -9.422  16.200  67.365  1.00  0.00    -0.226 A  
HETATM   13  N   UNL     1      -9.072  18.349  67.503  1.00  0.00    -0.270 NA 
HETATM   14  N   UNL     1     -10.693  15.200  65.639  1.00  0.00    -0.341 NA 
ENDBRANCH   3   5
ENDBRANCH   2   3
BRANCH   2  15
HETATM   15  C   UNL     1     -10.537  11.772  68.395  1.00  0.00    -0.216 C  
HETATM   16  O   UNL     1     -10.634   8.781  66.377  1.00  0.00    -0.132 OA 
HETATM   17  C   UNL     1     -10.552  11.204  69.616  1.00  0.00    -0.076 C  
HETATM   18  C   UNL     1     -10.723   9.779  69.816  1.00  0.00    -0.283 A  
HETATM   19  N   UNL     1     -10.630  10.953  67.247  1.00  0.00    -0.236 N  
HETATM   20  C   UNL     1     -10.890   9.299  71.123  1.00  0.00    -0.407 A  
HETATM   21  C   UNL     1     -10.663   9.524  67.358  1.00  0.00    -0.227 C  
HETATM   22  C   UNL     1     -10.745   8.912  68.720  1.00  0.00    -0.123 A  
HETATM   23 CL   UNL     1     -10.874   6.307  67.744  1.00  0.00    -0.382 Cl 
HETATM   24  C   UNL     1     -11.075   7.943  71.354  1.00  0.00    -0.275 A  
HETATM   25  C   UNL     1     -11.063   7.063  70.275  1.00  0.00    -0.323 A  
HETATM   26  C   UNL     1     -10.889   7.534  68.964  1.00  0.00    -0.061 A  
BRANCH  19  27
HETATM   27  C   UNL     1     -10.747  11.446  65.899  1.00  0.00    -0.255 A  
HETATM   28  C   UNL     1     -12.002  11.885  65.438  1.00  0.00    -0.054 A  
HETATM   29  C   UNL     1     -12.163  12.381  64.140  1.00  0.00    -0.558 A  
HETATM   30  C   UNL     1     -11.070  12.440  63.278  1.00  0.00    -0.347 A  
HETATM   31  C   UNL     1      -9.826  11.977  63.712  1.00  0.00    -0.294 A  
HETATM   32  C   UNL     1      -9.670  11.463  65.008  1.00  0.00    -0.286 A  
ENDBRANCH  19  27
ENDBRANCH   2  15
TORSDOF 4
ENDMDL
MODEL       84
REMARK 921   NORMALIZED FREE ENERGY PREDICTED BY IDOCK:   -6.29 KCAL/MOL
REMARK 922        TOTAL FREE ENERGY PREDICTED BY IDOCK:   -8.64 KCAL/MOL
REMARK 923 INTER-LIGAND FREE ENERGY PREDICTED BY IDOCK:   -7.79 KCAL/MOL
REMARK 924 INTRA-LIGAND FREE ENERGY PREDICTED BY IDOCK:   -0.85 KCAL/MOL
REMARK 927      BINDING AFFINITY PREDICTED BY RF-SCORE:    0.00 PKD
ROOT
HETATM    1  C   UNL     1     -11.771  11.446  68.284  1.00  0.00    -0.359 C  
HETATM    2  C   UNL     1     -10.260  11.659  68.227  1.00  0.00    -0.199 C  
ENDROOT
BRANCH   2   3
HETATM    3  N   UNL     1      -9.554  11.161  69.400  1.00  0.00    -0.408 NA 
HETATM    4  H   UNL     1      -9.125  11.809  70.060  1.00  0.00     0.000 HD 
BRANCH   3   5
HETATM    5  C   UNL     1      -9.474   9.786  69.604  1.00  0.00    -0.219 A  
HETATM    6  C   UNL     1     -10.160   7.761  70.655  1.00  0.00    -0.191 A  
HETATM    7  N   UNL     1      -9.312   6.962  69.994  1.00  0.00    -0.158 NA 
HETATM    8  C   UNL     1     -11.735   8.513  72.001  1.00  0.00    -0.362 A  
HETATM    9  H   UNL     1     -11.608  10.554  71.516  1.00  0.00     0.000 HD 
HETATM   10  N   UNL     1     -11.291   9.592  71.389  1.00  0.00    -0.376 NA 
HETATM   11  C   UNL     1      -8.556   7.683  69.143  1.00  0.00    -0.139 A  
HETATM   12  C   UNL     1     -10.302   9.133  70.540  1.00  0.00    -0.235 A  
HETATM   13  N   UNL     1     -11.084   7.383  71.582  1.00  0.00    -0.234 NA 
HETATM   14  N   UNL     1      -8.589   9.016  68.913  1.00  0.00    -0.130 NA 
ENDBRANCH   3   5
ENDBRANCH   2   3
BRANCH   2  15
HETATM   15  C   UNL     1      -9.713  13.054  67.875  1.00  0.00    -0.218 C  
HETATM   16  O   UNL     1      -9.587  15.725  65.452  1.00  0.00    -0.347 OA 
HETATM   17  C   UNL     1      -8.923  13.592  68.824  1.00  0.00     0.073 C  
HETATM   18  C   UNL     1      -8.206  14.837  68.635  1.00  0.00    -0.159 A  
HETATM   19  N   UNL     1      -9.910  13.748  66.660  1.00  0.00    -0.276 N  
HETATM   20  C   UNL     1      -7.282  15.236  69.612  1.00  0.00    -0.187 A  
HETATM   21  C   UNL     1      -9.346  15.050  66.451  1.00  0.00    -0.303 C  
HETATM   22  C   UNL     1      -8.420  15.605  67.487  1.00  0.00    -0.182 A  
HETATM   23 CL   UNL     1      -7.900  17.928  66.042  1.00  0.00    -0.239 Cl 
HETATM   24  C   UNL     1      -6.563  16.413  69.457  1.00  0.00    -0.210 A  
HETATM   25  C   UNL     1      -6.791  17.206  68.336  1.00  0.00    -0.191 A  
HETATM   26  C   UNL     1      -7.719  16.818  67.357  1.00  0.00    -0.169 A  
BRANCH  19  27
HETATM   27  C   UNL     1     -10.627  13.224  65.527  1.00  0.00    -0.287 A  
HETATM   28  C   UNL     1     -12.033  13.288  65.520  1.00  0.00    -0.445 A  
HETATM   29  C   UNL     1     -12.774  12.801  64.437  1.00  0.00    -0.370 A  
HETATM   30  C   UNL     1     -12.119  12.236  63.346  1.00  0.00    -0.615 A  
HETATM   31  C   UNL     1     -10.726  12.137  63.354  1.00  0.00    -0.461 A  
HETATM   32  C   UNL     1      -9.986  12.609  64.448  1.00  0.00    -0.196 A  
ENDBRANCH  19  27
ENDBRANCH   2  15
TORSDOF 4
ENDMDL
MODEL       85
REMARK 921   NORMALIZED FREE ENERGY PREDICTED BY IDOCK:   -6.28 KCAL/MOL
REMARK 922        TOTAL FREE ENERGY PREDICTED BY IDOCK:   -8.62 KCAL/MOL
REMARK 923 INTER-LIGAND FREE ENERGY PREDICTED BY IDOCK:   -7.85 KCAL/MOL
REMARK 924 INTRA-LIGAND FREE ENERGY PREDICTED BY IDOCK:   -0.77 KCAL/MOL
REMARK 927      BINDING AFFINITY PREDICTED BY RF-SCORE:    0.00 PKD
ROOT
HETATM    1  C   UNL     1      -8.935  10.164  68.619  1.00  0.00    -0.136 C  
HETATM    2  C   UNL     1     -10.049   9.393  67.914  1.00  0.00    -0.194 C  
ENDROOT
BRANCH   2   3
HETATM    3  N   UNL     1     -11.388   9.783  68.335  1.00  0.00    -0.517 NA 
HETATM    4  H   UNL     1     -12.130   9.087  68.414  1.00  0.00     0.000 HD 
BRANCH   3   5
HETATM    5  C   UNL     1     -11.640  11.121  68.629  1.00  0.00    -0.315 A  
HETATM    6  C   UNL     1     -12.033  13.385  68.002  1.00  0.00    -0.322 A  
HETATM    7  N   UNL     1     -12.177  13.855  69.248  1.00  0.00    -0.331 NA 
HETATM    8  C   UNL     1     -11.921  13.226  65.807  1.00  0.00    -0.417 A  
HETATM    9  H   UNL     1     -11.509  11.170  65.666  1.00  0.00     0.000 HD 
HETATM   10  N   UNL     1     -11.695  12.000  66.231  1.00  0.00    -0.547 NA 
HETATM   11  C   UNL     1     -12.021  12.862  70.145  1.00  0.00    -0.301 A  
HETATM   12  C   UNL     1     -11.764  12.085  67.609  1.00  0.00    -0.294 A  
HETATM   13  N   UNL     1     -12.138  14.094  66.843  1.00  0.00    -0.446 NA 
HETATM   14  N   UNL     1     -11.770  11.553  69.913  1.00  0.00    -0.327 NA 
ENDBRANCH   3   5
ENDBRANCH   2   3
BRANCH   2  15
HETATM   15  C   UNL     1      -9.976   7.857  67.857  1.00  0.00    -0.178 C  
HETATM   16  O   UNL     1     -10.376   4.745  69.641  1.00  0.00    -0.217 OA 
HETATM   17  C   UNL     1      -9.605   7.366  66.658  1.00  0.00    -0.251 C  
HETATM   18  C   UNL     1      -9.351   5.958  66.431  1.00  0.00    -0.171 A  
HETATM   19  N   UNL     1     -10.188   6.968  68.935  1.00  0.00    -0.174 N  
HETATM   20  C   UNL     1      -8.812   5.563  65.198  1.00  0.00    -0.084 A  
HETATM   21  C   UNL     1     -10.091   5.548  68.754  1.00  0.00    -0.191 C  
HETATM   22  C   UNL     1      -9.616   5.024  67.436  1.00  0.00    -0.164 A  
HETATM   23 CL   UNL     1      -9.702   2.364  68.255  1.00  0.00    -0.090 Cl 
HETATM   24  C   UNL     1      -8.538   4.225  64.950  1.00  0.00    -0.126 A  
HETATM   25  C   UNL     1      -8.831   3.279  65.927  1.00  0.00    -0.137 A  
HETATM   26  C   UNL     1      -9.376   3.665  67.162  1.00  0.00    -0.200 A  
BRANCH  19  27
HETATM   27  C   UNL     1     -10.465   7.375  70.287  1.00  0.00    -0.221 A  
HETATM   28  C   UNL     1      -9.392   7.695  71.138  1.00  0.00    -0.161 A  
HETATM   29  C   UNL     1      -9.612   8.106  72.458  1.00  0.00    -0.347 A  
HETATM   30  C   UNL     1     -10.912   8.197  72.949  1.00  0.00    -0.307 A  
HETATM   31  C   UNL     1     -11.985   7.850  72.125  1.00  0.00    -0.379 A  
HETATM   32  C   UNL     1     -11.762   7.422  70.808  1.00  0.00    -0.305 A  
ENDBRANCH  19  27
ENDBRANCH   2  15
TORSDOF 4
ENDMDL
MODEL       86
REMARK 921   NORMALIZED FREE ENERGY PREDICTED BY IDOCK:   -6.28 KCAL/MOL
REMARK 922        TOTAL FREE ENERGY PREDICTED BY IDOCK:   -8.62 KCAL/MOL
REMARK 923 INTER-LIGAND FREE ENERGY PREDICTED BY IDOCK:   -7.76 KCAL/MOL
REMARK 924 INTRA-LIGAND FREE ENERGY PREDICTED BY IDOCK:   -0.85 KCAL/MOL
REMARK 927      BINDING AFFINITY PREDICTED BY RF-SCORE:    0.00 PKD
ROOT
HETATM    1  C   UNL     1     -10.682   8.603  68.320  1.00  0.00    -0.107 C  
HETATM    2  C   UNL     1      -9.764   9.794  68.590  1.00  0.00    -0.155 C  
ENDROOT
BRANCH   2   3
HETATM    3  N   UNL     1      -9.480  10.006  70.003  1.00  0.00    -0.381 NA 
HETATM    4  H   UNL     1      -8.886  10.778  70.303  1.00  0.00     0.000 HD 
BRANCH   3   5
HETATM    5  C   UNL     1     -10.034   9.136  70.940  1.00  0.00    -0.288 A  
HETATM    6  C   UNL     1     -11.797   8.409  72.367  1.00  0.00    -0.384 A  
HETATM    7  N   UNL     1     -11.161   7.330  72.842  1.00  0.00    -0.309 NA 
HETATM    8  C   UNL     1     -13.311   9.960  71.967  1.00  0.00    -0.432 A  
HETATM    9  H   UNL     1     -12.217  11.113  70.593  1.00  0.00     0.000 HD 
HETATM   10  N   UNL     1     -12.287  10.307  71.215  1.00  0.00    -0.371 NA 
HETATM   11  C   UNL     1      -9.930   7.236  72.302  1.00  0.00    -0.169 A  
HETATM   12  C   UNL     1     -11.329   9.341  71.456  1.00  0.00    -0.385 A  
HETATM   13  N   UNL     1     -13.061   8.814  72.674  1.00  0.00    -0.341 NA 
HETATM   14  N   UNL     1      -9.345   8.055  71.399  1.00  0.00    -0.139 NA 
ENDBRANCH   3   5
ENDBRANCH   2   3
BRANCH   2  15
HETATM   15  C   UNL     1     -10.086  11.151  67.941  1.00  0.00    -0.176 C  
HETATM   16  O   UNL     1      -9.902  13.199  64.975  1.00  0.00    -0.172 OA 
HETATM   17  C   UNL     1     -10.703  12.023  68.761  1.00  0.00    -0.252 C  
HETATM   18  C   UNL     1     -10.976  13.395  68.386  1.00  0.00    -0.291 A  
HETATM   19  N   UNL     1      -9.735  11.557  66.633  1.00  0.00    -0.195 N  
HETATM   20  C   UNL     1     -11.473  14.273  69.361  1.00  0.00    -0.337 A  
HETATM   21  C   UNL     1     -10.095  12.855  66.140  1.00  0.00    -0.276 C  
HETATM   22  C   UNL     1     -10.721  13.832  67.083  1.00  0.00    -0.283 A  
HETATM   23 CL   UNL     1     -10.838  15.868  65.187  1.00  0.00    -0.443 Cl 
HETATM   24  C   UNL     1     -11.729  15.600  69.044  1.00  0.00    -0.408 A  
HETATM   25  C   UNL     1     -11.515  16.040  67.741  1.00  0.00    -0.080 A  
HETATM   26  C   UNL     1     -11.024  15.167  66.758  1.00  0.00    -0.321 A  
BRANCH  19  27
HETATM   27  C   UNL     1      -8.968  10.763  65.709  1.00  0.00    -0.187 A  
HETATM   28  C   UNL     1      -7.567  10.730  65.836  1.00  0.00    -0.106 A  
HETATM   29  C   UNL     1      -6.780   9.965  64.967  1.00  0.00    -0.121 A  
HETATM   30  C   UNL     1      -7.383   9.226  63.953  1.00  0.00    -0.102 A  
HETATM   31  C   UNL     1      -8.770   9.276  63.795  1.00  0.00    -0.190 A  
HETATM   32  C   UNL     1      -9.556  10.057  64.656  1.00  0.00    -0.363 A  
ENDBRANCH  19  27
ENDBRANCH   2  15
TORSDOF 4
ENDMDL
MODEL       87
REMARK 921   NORMALIZED FREE ENERGY PREDICTED BY IDOCK:   -6.21 KCAL/MOL
REMARK 922        TOTAL FREE ENERGY PREDICTED BY IDOCK:   -8.53 KCAL/MOL
REMARK 923 INTER-LIGAND FREE ENERGY PREDICTED BY IDOCK:   -8.00 KCAL/MOL
REMARK 924 INTRA-LIGAND FREE ENERGY PREDICTED BY IDOCK:   -0.53 KCAL/MOL
REMARK 927      BINDING AFFINITY PREDICTED BY RF-SCORE:    0.00 PKD
ROOT
HETATM    1  C   UNL     1     -12.081  11.173  67.853  1.00  0.00     0.231 C  
HETATM    2  C   UNL     1     -11.052  12.132  68.450  1.00  0.00    -0.245 C  
ENDROOT
BRANCH   2   3
HETATM    3  N   UNL     1     -11.040  12.145  69.907  1.00  0.00    -0.447 NA 
HETATM    4  H   UNL     1     -10.570  12.894  70.414  1.00  0.00     0.000 HD 
BRANCH   3   5
HETATM    5  C   UNL     1     -11.681  11.118  70.595  1.00  0.00    -0.207 A  
HETATM    6  C   UNL     1     -11.804   8.895  71.442  1.00  0.00    -0.317 A  
HETATM    7  N   UNL     1     -13.001   9.031  72.028  1.00  0.00    -0.375 NA 
HETATM    8  C   UNL     1      -9.884   8.080  70.730  1.00  0.00    -0.183 A  
HETATM    9  H   UNL     1      -9.177   9.787  69.729  1.00  0.00     0.000 HD 
HETATM   10  N   UNL     1      -9.896   9.318  70.281  1.00  0.00    -0.205 NA 
HETATM   11  C   UNL     1     -13.480  10.275  71.832  1.00  0.00    -0.302 A  
HETATM   12  C   UNL     1     -11.096   9.842  70.723  1.00  0.00    -0.345 A  
HETATM   13  N   UNL     1     -11.015   7.784  71.444  1.00  0.00    -0.233 NA 
HETATM   14  N   UNL     1     -12.903  11.302  71.168  1.00  0.00    -0.374 NA 
ENDBRANCH   3   5
ENDBRANCH   2   3
BRANCH   2  15
HETATM   15  C   UNL     1     -10.997  13.583  67.941  1.00  0.00    -0.256 C  
HETATM   16  O   UNL     1     -11.176  15.794  65.094  1.00  0.00    -0.320 OA 
HETATM   17  C   UNL     1     -10.793  14.499  68.907  1.00  0.00    -0.262 C  
HETATM   18  C   UNL     1     -10.581  15.904  68.624  1.00  0.00    -0.250 A  
HETATM   19  N   UNL     1     -11.069  14.000  66.593  1.00  0.00    -0.304 N  
HETATM   20  C   UNL     1     -10.216  16.754  69.678  1.00  0.00    -0.093 A  
HETATM   21  C   UNL     1     -11.007  15.390  66.244  1.00  0.00    -0.278 C  
HETATM   22  C   UNL     1     -10.716  16.387  67.320  1.00  0.00    -0.257 A  
HETATM   23 CL   UNL     1     -10.711  18.551  65.567  1.00  0.00    -0.205 Cl 
HETATM   24  C   UNL     1      -9.986  18.103  69.442  1.00  0.00     0.045 A  
HETATM   25  C   UNL     1     -10.152  18.605  68.156  1.00  0.00    -0.418 A  
HETATM   26  C   UNL     1     -10.524  17.763  67.096  1.00  0.00    -0.335 A  
BRANCH  19  27
HETATM   27  C   UNL     1     -11.161  13.109  65.466  1.00  0.00    -0.278 A  
HETATM   28  C   UNL     1      -9.977  12.616  64.887  1.00  0.00    -0.169 A  
HETATM   29  C   UNL     1     -10.015  11.740  63.796  1.00  0.00    -0.379 A  
HETATM   30  C   UNL     1     -11.240  11.349  63.262  1.00  0.00    -0.152 A  
HETATM   31  C   UNL     1     -12.422  11.857  63.806  1.00  0.00    -0.537 A  
HETATM   32  C   UNL     1     -12.381  12.749  64.888  1.00  0.00    -0.551 A  
ENDBRANCH  19  27
ENDBRANCH   2  15
TORSDOF 4
ENDMDL
MODEL       88
REMARK 921   NORMALIZED FREE ENERGY PREDICTED BY IDOCK:   -6.20 KCAL/MOL
REMARK 922        TOTAL FREE ENERGY PREDICTED BY IDOCK:   -8.53 KCAL/MOL
REMARK 923 INTER-LIGAND FREE ENERGY PREDICTED BY IDOCK:   -7.24 KCAL/MOL
REMARK 924 INTRA-LIGAND FREE ENERGY PREDICTED BY IDOCK:   -1.29 KCAL/MOL
REMARK 927      BINDING AFFINITY PREDICTED BY RF-SCORE:    0.00 PKD
ROOT
HETATM    1  C   UNL     1     -12.475  10.332  70.804  1.00  0.00    -0.439 C  
HETATM    2  C   UNL     1     -11.241  10.024  69.957  1.00  0.00    -0.288 C  
ENDROOT
BRANCH   2   3
HETATM    3  N   UNL     1      -9.983  10.205  70.669  1.00  0.00    -0.277 NA 
HETATM    4  H   UNL     1      -9.682  11.135  70.960  1.00  0.00     0.000 HD 
BRANCH   3   5
HETATM    5  C   UNL     1      -9.197   9.089  70.944  1.00  0.00    -0.259 A  
HETATM    6  C   UNL     1      -7.100   8.002  71.245  1.00  0.00    -0.057 A  
HETATM    7  N   UNL     1      -7.603   6.795  71.533  1.00  0.00    -0.087 NA 
HETATM    8  C   UNL     1      -5.715   9.676  70.871  1.00  0.00    -0.071 A  
HETATM    9  H   UNL     1      -7.138  11.167  70.459  1.00  0.00     0.000 HD 
HETATM   10  N   UNL     1      -6.911  10.203  70.705  1.00  0.00    -0.339 NA 
HETATM   11  C   UNL     1      -8.950   6.828  71.494  1.00  0.00    -0.137 A  
HETATM   12  C   UNL     1      -7.790   9.162  70.938  1.00  0.00    -0.132 A  
HETATM   13  N   UNL     1      -5.782   8.350  71.204  1.00  0.00    -0.033 NA 
HETATM   14  N   UNL     1      -9.757   7.880  71.225  1.00  0.00    -0.157 NA 
ENDBRANCH   3   5
ENDBRANCH   2   3
BRANCH   2  15
HETATM   15  C   UNL     1     -11.116  10.655  68.560  1.00  0.00    -0.263 C  
HETATM   16  O   UNL     1     -10.202  10.176  65.101  1.00  0.00    -0.306 OA 
HETATM   17  C   UNL     1     -11.479  11.951  68.504  1.00  0.00    -0.349 C  
HETATM   18  C   UNL     1     -11.313  12.762  67.316  1.00  0.00    -0.364 A  
HETATM   19  N   UNL     1     -10.604  10.027  67.401  1.00  0.00    -0.261 N  
HETATM   20  C   UNL     1     -11.568  14.139  67.400  1.00  0.00    -0.399 A  
HETATM   21  C   UNL     1     -10.538  10.725  66.149  1.00  0.00    -0.175 C  
HETATM   22  C   UNL     1     -10.885  12.179  66.120  1.00  0.00    -0.317 A  
HETATM   23 CL   UNL     1     -10.306  12.450  63.409  1.00  0.00    -0.402 Cl 
HETATM   24  C   UNL     1     -11.402  14.952  66.288  1.00  0.00    -0.306 A  
HETATM   25  C   UNL     1     -11.011  14.380  65.081  1.00  0.00    -0.380 A  
HETATM   26  C   UNL     1     -10.761  13.002  64.985  1.00  0.00    -0.315 A  
BRANCH  19  27
HETATM   27  C   UNL     1     -10.070   8.691  67.364  1.00  0.00    -0.229 A  
HETATM   28  C   UNL     1      -8.683   8.514  67.206  1.00  0.00    -0.133 A  
HETATM   29  C   UNL     1      -8.116   7.235  67.174  1.00  0.00    -0.114 A  
HETATM   30  C   UNL     1      -8.930   6.111  67.293  1.00  0.00    -0.112 A  
HETATM   31  C   UNL     1     -10.312   6.272  67.418  1.00  0.00    -0.262 A  
HETATM   32  C   UNL     1     -10.880   7.554  67.432  1.00  0.00    -0.272 A  
ENDBRANCH  19  27
ENDBRANCH   2  15
TORSDOF 4
ENDMDL
MODEL       89
REMARK 921   NORMALIZED FREE ENERGY PREDICTED BY IDOCK:   -6.18 KCAL/MOL
REMARK 922        TOTAL FREE ENERGY PREDICTED BY IDOCK:   -8.50 KCAL/MOL
REMARK 923 INTER-LIGAND FREE ENERGY PREDICTED BY IDOCK:   -7.38 KCAL/MOL
REMARK 924 INTRA-LIGAND FREE ENERGY PREDICTED BY IDOCK:   -1.12 KCAL/MOL
REMARK 927      BINDING AFFINITY PREDICTED BY RF-SCORE:    0.00 PKD
ROOT
HETATM    1  C   UNL     1      -8.063  13.096  68.689  1.00  0.00    -0.014 C  
HETATM    2  C   UNL     1      -9.099  12.403  67.805  1.00  0.00    -0.193 C  
ENDROOT
BRANCH   2   3
HETATM    3  N   UNL     1     -10.336  13.157  67.652  1.00  0.00    -0.220 NA 
HETATM    4  H   UNL     1     -11.182  12.870  68.143  1.00  0.00     0.000 HD 
BRANCH   3   5
HETATM    5  C   UNL     1     -10.345  14.277  66.824  1.00  0.00    -0.274 A  
HETATM    6  C   UNL     1     -10.386  16.628  66.448  1.00  0.00    -0.306 A  
HETATM    7  N   UNL     1     -10.339  16.561  65.111  1.00  0.00    -0.623 NA 
HETATM    8  C   UNL     1     -10.458  17.372  68.522  1.00  0.00    -0.370 A  
HETATM    9  H   UNL     1     -10.472  15.520  69.514  1.00  0.00     0.000 HD 
HETATM   10  N   UNL     1     -10.449  16.062  68.649  1.00  0.00    -0.239 NA 
HETATM   11  C   UNL     1     -10.306  15.276  64.708  1.00  0.00    -0.097 A  
HETATM   12  C   UNL     1     -10.402  15.582  67.353  1.00  0.00    -0.266 A  
HETATM   13  N   UNL     1     -10.414  17.759  67.209  1.00  0.00    -0.363 NA 
HETATM   14  N   UNL     1     -10.303  14.157  65.468  1.00  0.00    -0.333 NA 
ENDBRANCH   3   5
ENDBRANCH   2   3
BRANCH   2  15
HETATM   15  C   UNL     1      -9.447  10.929  68.075  1.00  0.00    -0.163 C  
HETATM   16  O   UNL     1      -9.482   7.552  66.802  1.00  0.00    -0.160 OA 
HETATM   17  C   UNL     1      -9.983  10.702  69.291  1.00  0.00    -0.215 C  
HETATM   18  C   UNL     1     -10.498   9.409  69.691  1.00  0.00    -0.236 A  
HETATM   19  N   UNL     1      -9.322   9.859  67.161  1.00  0.00    -0.144 N  
HETATM   20  C   UNL     1     -11.183   9.307  70.911  1.00  0.00    -0.372 A  
HETATM   21  C   UNL     1      -9.681   8.521  67.534  1.00  0.00    -0.162 C  
HETATM   22  C   UNL     1     -10.333   8.297  68.861  1.00  0.00    -0.230 A  
HETATM   23 CL   UNL     1     -10.663   5.563  68.445  1.00  0.00    -0.217 Cl 
HETATM   24  C   UNL     1     -11.708   8.089  71.321  1.00  0.00    -0.311 A  
HETATM   25  C   UNL     1     -11.519   6.966  70.522  1.00  0.00    -0.390 A  
HETATM   26  C   UNL     1     -10.829   7.057  69.303  1.00  0.00    -0.214 A  
BRANCH  19  27
HETATM   27  C   UNL     1      -8.882   9.996  65.798  1.00  0.00    -0.150 A  
HETATM   28  C   UNL     1      -7.502  10.005  65.522  1.00  0.00    -0.137 A  
HETATM   29  C   UNL     1      -7.026  10.126  64.212  1.00  0.00    -0.103 A  
HETATM   30  C   UNL     1      -7.926  10.248  63.155  1.00  0.00    -0.151 A  
HETATM   31  C   UNL     1      -9.297  10.274  63.418  1.00  0.00    -0.340 A  
HETATM   32  C   UNL     1      -9.772  10.170  64.734  1.00  0.00    -0.389 A  
ENDBRANCH  19  27
ENDBRANCH   2  15
TORSDOF 4
ENDMDL
MODEL       90
REMARK 921   NORMALIZED FREE ENERGY PREDICTED BY IDOCK:   -6.14 KCAL/MOL
REMARK 922        TOTAL FREE ENERGY PREDICTED BY IDOCK:   -8.45 KCAL/MOL
REMARK 923 INTER-LIGAND FREE ENERGY PREDICTED BY IDOCK:   -7.42 KCAL/MOL
REMARK 924 INTRA-LIGAND FREE ENERGY PREDICTED BY IDOCK:   -1.02 KCAL/MOL
REMARK 927      BINDING AFFINITY PREDICTED BY RF-SCORE:    0.00 PKD
ROOT
HETATM    1  C   UNL     1      -7.499   9.979  69.555  1.00  0.00    -0.123 C  
HETATM    2  C   UNL     1      -9.012   9.831  69.403  1.00  0.00    -0.190 C  
ENDROOT
BRANCH   2   3
HETATM    3  N   UNL     1      -9.489   8.468  69.596  1.00  0.00    -0.164 NA 
HETATM    4  H   UNL     1      -9.453   7.794  68.832  1.00  0.00     0.000 HD 
BRANCH   3   5
HETATM    5  C   UNL     1      -9.996   8.101  70.840  1.00  0.00    -0.187 A  
HETATM    6  C   UNL     1     -11.660   8.148  72.542  1.00  0.00    -0.404 A  
HETATM    7  N   UNL     1     -11.028   7.320  73.384  1.00  0.00    -0.327 NA 
HETATM    8  C   UNL     1     -13.144   9.496  71.625  1.00  0.00    -0.401 A  
HETATM    9  H   UNL     1     -12.125   9.904  69.834  1.00  0.00     0.000 HD 
HETATM   10  N   UNL     1     -12.173   9.432  70.738  1.00  0.00    -0.218 NA 
HETATM   11  C   UNL     1      -9.850   6.929  72.860  1.00  0.00    -0.172 A  
HETATM   12  C   UNL     1     -11.235   8.588  71.301  1.00  0.00    -0.265 A  
HETATM   13  N   UNL     1     -12.879   8.729  72.728  1.00  0.00    -0.281 NA 
HETATM   14  N   UNL     1      -9.311   7.261  71.665  1.00  0.00    -0.151 NA 
ENDBRANCH   3   5
ENDBRANCH   2   3
BRANCH   2  15
HETATM   15  C   UNL     1      -9.702  10.427  68.163  1.00  0.00    -0.151 C  
HETATM   16  O   UNL     1     -10.218  10.210  64.598  1.00  0.00    -0.279 OA 
HETATM   17  C   UNL     1     -10.465  11.506  68.422  1.00  0.00    -0.226 C  
HETATM   18  C   UNL     1     -11.094  12.290  67.379  1.00  0.00    -0.333 A  
HETATM   19  N   UNL     1      -9.545   9.991  66.828  1.00  0.00    -0.174 N  
HETATM   20  C   UNL     1     -11.734  13.488  67.731  1.00  0.00    -0.394 A  
HETATM   21  C   UNL     1     -10.247  10.632  65.753  1.00  0.00    -0.252 C  
HETATM   22  C   UNL     1     -11.038  11.866  66.048  1.00  0.00    -0.369 A  
HETATM   23 CL   UNL     1     -11.775  12.250  63.390  1.00  0.00    -0.547 Cl 
HETATM   24  C   UNL     1     -12.332  14.276  66.757  1.00  0.00    -0.280 A  
HETATM   25  C   UNL     1     -12.315  13.848  65.433  1.00  0.00    -0.494 A  
HETATM   26  C   UNL     1     -11.683  12.647  65.073  1.00  0.00    -0.359 A  
BRANCH  19  27
HETATM   27  C   UNL     1      -8.663   8.933  66.412  1.00  0.00    -0.129 A  
HETATM   28  C   UNL     1      -9.152   7.614  66.366  1.00  0.00    -0.214 A  
HETATM   29  C   UNL     1      -8.336   6.553  65.959  1.00  0.00    -0.133 A  
HETATM   30  C   UNL     1      -7.012   6.794  65.598  1.00  0.00    -0.063 A  
HETATM   31  C   UNL     1      -6.504   8.093  65.672  1.00  0.00    -0.049 A  
HETATM   32  C   UNL     1      -7.319   9.153  66.096  1.00  0.00    -0.095 A  
ENDBRANCH  19  27
ENDBRANCH   2  15
TORSDOF 4
ENDMDL
MODEL       91
REMARK 921   NORMALIZED FREE ENERGY PREDICTED BY IDOCK:   -6.13 KCAL/MOL
REMARK 922        TOTAL FREE ENERGY PREDICTED BY IDOCK:   -8.44 KCAL/MOL
REMARK 923 INTER-LIGAND FREE ENERGY PREDICTED BY IDOCK:   -7.76 KCAL/MOL
REMARK 924 INTRA-LIGAND FREE ENERGY PREDICTED BY IDOCK:   -0.68 KCAL/MOL
REMARK 927      BINDING AFFINITY PREDICTED BY RF-SCORE:    0.00 PKD
ROOT
HETATM    1  C   UNL     1      -8.515  13.059  68.436  1.00  0.00    -0.118 C  
HETATM    2  C   UNL     1      -9.601  12.365  67.615  1.00  0.00    -0.193 C  
ENDROOT
BRANCH   2   3
HETATM    3  N   UNL     1     -10.906  13.006  67.710  1.00  0.00    -0.235 NA 
HETATM    4  H   UNL     1     -11.697  12.652  67.173  1.00  0.00     0.000 HD 
BRANCH   3   5
HETATM    5  C   UNL     1     -11.055  14.110  68.546  1.00  0.00    -0.255 A  
HETATM    6  C   UNL     1     -10.915  16.441  69.016  1.00  0.00    -0.325 A  
HETATM    7  N   UNL     1     -11.388  16.364  70.267  1.00  0.00    -0.286 NA 
HETATM    8  C   UNL     1     -10.121  17.195  67.103  1.00  0.00    -0.295 A  
HETATM    9  H   UNL     1      -9.968  15.362  66.088  1.00  0.00     0.000 HD 
HETATM   10  N   UNL     1     -10.212  15.894  66.924  1.00  0.00    -0.270 NA 
HETATM   11  C   UNL     1     -11.667  15.084  70.584  1.00  0.00    -0.308 A  
HETATM   12  C   UNL     1     -10.711  15.408  68.118  1.00  0.00    -0.271 A  
HETATM   13  N   UNL     1     -10.542  17.570  68.351  1.00  0.00    -0.365 NA 
HETATM   14  N   UNL     1     -11.534  13.980  69.814  1.00  0.00    -0.251 NA 
ENDBRANCH   3   5
ENDBRANCH   2   3
BRANCH   2  15
HETATM   15  C   UNL     1      -9.785  10.844  67.751  1.00  0.00    -0.168 C  
HETATM   16  O   UNL     1      -9.619   7.624  66.129  1.00  0.00    -0.128 OA 
HETATM   17  C   UNL     1     -10.187  10.444  68.974  1.00  0.00    -0.233 C  
HETATM   18  C   UNL     1     -10.542   9.071  69.272  1.00  0.00    -0.226 A  
HETATM   19  N   UNL     1      -9.642   9.888  66.720  1.00  0.00    -0.175 N  
HETATM   20  C   UNL     1     -11.103   8.779  70.525  1.00  0.00    -0.278 A  
HETATM   21  C   UNL     1      -9.841   8.490  66.974  1.00  0.00    -0.224 C  
HETATM   22  C   UNL     1     -10.348   8.070  68.317  1.00  0.00    -0.240 A  
HETATM   23 CL   UNL     1     -10.458   5.372  67.636  1.00  0.00    -0.236 Cl 
HETATM   24  C   UNL     1     -11.473   7.480  70.841  1.00  0.00    -0.303 A  
HETATM   25  C   UNL     1     -11.253   6.466  69.913  1.00  0.00    -0.485 A  
HETATM   26  C   UNL     1     -10.686   6.748  68.660  1.00  0.00    -0.234 A  
BRANCH  19  27
HETATM   27  C   UNL     1      -9.341  10.204  65.349  1.00  0.00    -0.216 A  
HETATM   28  C   UNL     1     -10.344  10.771  64.542  1.00  0.00    -0.401 A  
HETATM   29  C   UNL     1     -10.096  11.105  63.206  1.00  0.00    -0.426 A  
HETATM   30  C   UNL     1      -8.839  10.870  62.653  1.00  0.00    -0.333 A  
HETATM   31  C   UNL     1      -7.843  10.277  63.434  1.00  0.00    -0.136 A  
HETATM   32  C   UNL     1      -8.100   9.927  64.768  1.00  0.00    -0.151 A  
ENDBRANCH  19  27
ENDBRANCH   2  15
TORSDOF 4
ENDMDL
MODEL       92
REMARK 921   NORMALIZED FREE ENERGY PREDICTED BY IDOCK:   -6.07 KCAL/MOL
REMARK 922        TOTAL FREE ENERGY PREDICTED BY IDOCK:   -8.37 KCAL/MOL
REMARK 923 INTER-LIGAND FREE ENERGY PREDICTED BY IDOCK:   -7.24 KCAL/MOL
REMARK 924 INTRA-LIGAND FREE ENERGY PREDICTED BY IDOCK:   -1.12 KCAL/MOL
REMARK 927      BINDING AFFINITY PREDICTED BY RF-SCORE:    0.00 PKD
ROOT
HETATM    1  C   UNL     1     -10.600  11.530  65.375  1.00  0.00    -0.336 C  
HETATM    2  C   UNL     1     -10.054  11.486  66.801  1.00  0.00    -0.215 C  
ENDROOT
BRANCH   2   3
HETATM    3  N   UNL     1      -9.620  10.160  67.220  1.00  0.00    -0.157 NA 
HETATM    4  H   UNL     1     -10.215   9.584  67.815  1.00  0.00     0.000 HD 
BRANCH   3   5
HETATM    5  C   UNL     1      -8.379   9.692  66.796  1.00  0.00    -0.117 A  
HETATM    6  C   UNL     1      -6.062   9.247  67.123  1.00  0.00    -0.057 A  
HETATM    7  N   UNL     1      -5.847   8.707  65.917  1.00  0.00    -0.046 NA 
HETATM    8  C   UNL     1      -5.790   9.992  69.180  1.00  0.00    -0.037 A  
HETATM    9  H   UNL     1      -7.755  10.648  69.533  1.00  0.00     0.000 HD 
HETATM   10  N   UNL     1      -7.060  10.221  68.919  1.00  0.00    -0.071 NA 
HETATM   11  C   UNL     1      -6.984   8.709  65.194  1.00  0.00    -0.072 A  
HETATM   12  C   UNL     1      -7.244   9.757  67.630  1.00  0.00    -0.089 A  
HETATM   13  N   UNL     1      -5.150   9.397  68.125  1.00  0.00    -0.033 NA 
HETATM   14  N   UNL     1      -8.208   9.157  65.555  1.00  0.00    -0.118 NA 
ENDBRANCH   3   5
ENDBRANCH   2   3
BRANCH   2  15
HETATM   15  C   UNL     1     -10.874  12.121  67.937  1.00  0.00    -0.217 C  
HETATM   16  O   UNL     1     -12.014  15.168  69.500  1.00  0.00    -0.312 OA 
HETATM   17  C   UNL     1     -11.455  11.230  68.763  1.00  0.00    -0.359 C  
HETATM   18  C   UNL     1     -12.161  11.620  69.966  1.00  0.00    -0.395 A  
HETATM   19  N   UNL     1     -10.998  13.503  68.208  1.00  0.00    -0.249 N  
HETATM   20  C   UNL     1     -12.591  10.617  70.848  1.00  0.00    -0.503 A  
HETATM   21  C   UNL     1     -11.797  13.973  69.303  1.00  0.00    -0.344 C  
HETATM   22  C   UNL     1     -12.381  12.971  70.247  1.00  0.00    -0.311 A  
HETATM   23 CL   UNL     1     -13.515  14.910  71.894  1.00  0.00    -0.430 Cl 
HETATM   24  C   UNL     1     -13.254  10.952  72.021  1.00  0.00    -0.456 A  
HETATM   25  C   UNL     1     -13.513  12.292  72.295  1.00  0.00    -0.365 A  
HETATM   26  C   UNL     1     -13.092  13.301  71.415  1.00  0.00    -0.277 A  
BRANCH  19  27
HETATM   27  C   UNL     1     -10.326  14.543  67.475  1.00  0.00    -0.244 A  
HETATM   28  C   UNL     1     -10.903  15.024  66.286  1.00  0.00    -0.333 A  
HETATM   29  C   UNL     1     -10.292  16.041  65.544  1.00  0.00    -0.415 A  
HETATM   30  C   UNL     1      -9.087  16.588  65.978  1.00  0.00    -0.290 A  
HETATM   31  C   UNL     1      -8.487  16.098  67.139  1.00  0.00    -0.218 A  
HETATM   32  C   UNL     1      -9.092  15.067  67.872  1.00  0.00    -0.180 A  
ENDBRANCH  19  27
ENDBRANCH   2  15
TORSDOF 4
ENDMDL
MODEL       93
REMARK 921   NORMALIZED FREE ENERGY PREDICTED BY IDOCK:   -6.00 KCAL/MOL
REMARK 922        TOTAL FREE ENERGY PREDICTED BY IDOCK:   -8.28 KCAL/MOL
REMARK 923 INTER-LIGAND FREE ENERGY PREDICTED BY IDOCK:   -7.75 KCAL/MOL
REMARK 924 INTRA-LIGAND FREE ENERGY PREDICTED BY IDOCK:   -0.53 KCAL/MOL
REMARK 927      BINDING AFFINITY PREDICTED BY RF-SCORE:    0.00 PKD
ROOT
HETATM    1  C   UNL     1      -8.858   9.784  68.835  1.00  0.00    -0.140 C  
HETATM    2  C   UNL     1     -10.385   9.831  68.846  1.00  0.00    -0.210 C  
ENDROOT
BRANCH   2   3
HETATM    3  N   UNL     1     -10.985   9.657  67.529  1.00  0.00    -0.421 NA 
HETATM    4  H   UNL     1     -11.983   9.472  67.435  1.00  0.00     0.000 HD 
BRANCH   3   5
HETATM    5  C   UNL     1     -10.172   9.747  66.402  1.00  0.00    -0.217 A  
HETATM    6  C   UNL     1      -8.704   8.817  64.774  1.00  0.00    -0.097 A  
HETATM    7  N   UNL     1      -8.529   9.946  64.076  1.00  0.00    -0.164 NA 
HETATM    8  C   UNL     1      -8.604   6.725  65.463  1.00  0.00    -0.086 A  
HETATM    9  H   UNL     1      -9.855   6.893  67.142  1.00  0.00     0.000 HD 
HETATM   10  N   UNL     1      -9.396   7.314  66.334  1.00  0.00    -0.171 NA 
HETATM   11  C   UNL     1      -9.226  10.954  64.635  1.00  0.00    -0.197 A  
HETATM   12  C   UNL     1      -9.468   8.628  65.912  1.00  0.00    -0.173 A  
HETATM   13  N   UNL     1      -8.168   7.594  64.498  1.00  0.00    -0.099 NA 
HETATM   14  N   UNL     1     -10.020  10.921  65.729  1.00  0.00    -0.235 NA 
ENDBRANCH   3   5
ENDBRANCH   2   3
BRANCH   2  15
HETATM   15  C   UNL     1     -11.094  10.992  69.563  1.00  0.00    -0.263 C  
HETATM   16  O   UNL     1     -13.296  11.994  72.242  1.00  0.00    -0.485 OA 
HETATM   17  C   UNL     1     -10.850  12.204  69.026  1.00  0.00    -0.208 C  
HETATM   18  C   UNL     1     -11.521  13.408  69.471  1.00  0.00    -0.308 A  
HETATM   19  N   UNL     1     -11.996  10.882  70.646  1.00  0.00    -0.347 N  
HETATM   20  C   UNL     1     -11.325  14.593  68.747  1.00  0.00    -0.302 A  
HETATM   21  C   UNL     1     -12.595  12.046  71.232  1.00  0.00    -0.252 C  
HETATM   22  C   UNL     1     -12.364  13.374  70.585  1.00  0.00    -0.423 A  
HETATM   23 CL   UNL     1     -13.997  14.739  72.382  1.00  0.00    -0.560 Cl 
HETATM   24  C   UNL     1     -11.965  15.764  69.131  1.00  0.00    -0.312 A  
HETATM   25  C   UNL     1     -12.779  15.753  70.260  1.00  0.00    -0.126 A  
HETATM   26  C   UNL     1     -12.976  14.573  70.994  1.00  0.00    -0.358 A  
BRANCH  19  27
HETATM   27  C   UNL     1     -12.431   9.637  71.223  1.00  0.00    -0.355 A  
HETATM   28  C   UNL     1     -13.782   9.263  71.104  1.00  0.00    -0.165 A  
HETATM   29  C   UNL     1     -14.250   8.058  71.639  1.00  0.00    -0.549 A  
HETATM   30  C   UNL     1     -13.373   7.209  72.310  1.00  0.00     0.116 A  
HETATM   31  C   UNL     1     -12.036   7.583  72.464  1.00  0.00    -0.215 A  
HETATM   32  C   UNL     1     -11.573   8.799  71.941  1.00  0.00    -0.432 A  
ENDBRANCH  19  27
ENDBRANCH   2  15
TORSDOF 4
ENDMDL
MODEL       94
REMARK 921   NORMALIZED FREE ENERGY PREDICTED BY IDOCK:   -5.99 KCAL/MOL
REMARK 922        TOTAL FREE ENERGY PREDICTED BY IDOCK:   -8.27 KCAL/MOL
REMARK 923 INTER-LIGAND FREE ENERGY PREDICTED BY IDOCK:   -7.55 KCAL/MOL
REMARK 924 INTRA-LIGAND FREE ENERGY PREDICTED BY IDOCK:   -0.72 KCAL/MOL
REMARK 927      BINDING AFFINITY PREDICTED BY RF-SCORE:    0.00 PKD
ROOT
HETATM    1  C   UNL     1      -9.540  15.442  69.739  1.00  0.00    -0.190 C  
HETATM    2  C   UNL     1     -10.060  14.732  68.489  1.00  0.00    -0.230 C  
ENDROOT
BRANCH   2   3
HETATM    3  N   UNL     1     -11.485  14.432  68.537  1.00  0.00    -0.281 NA 
HETATM    4  H   UNL     1     -12.111  14.774  67.808  1.00  0.00     0.000 HD 
BRANCH   3   5
HETATM    5  C   UNL     1     -11.978  13.671  69.593  1.00  0.00    -0.343 A  
HETATM    6  C   UNL     1     -13.102  13.426  71.679  1.00  0.00    -0.375 A  
HETATM    7  N   UNL     1     -13.003  12.091  71.740  1.00  0.00    -0.389 NA 
HETATM    8  C   UNL     1     -13.580  15.529  72.134  1.00  0.00    -0.497 A  
HETATM    9  H   UNL     1     -12.711  16.417  70.440  1.00  0.00     0.000 HD 
HETATM   10  N   UNL     1     -12.936  15.585  70.987  1.00  0.00    -0.483 NA 
HETATM   11  C   UNL     1     -12.349  11.621  70.660  1.00  0.00    -0.344 A  
HETATM   12  C   UNL     1     -12.630  14.271  70.689  1.00  0.00    -0.355 A  
HETATM   13  N   UNL     1     -13.710  14.242  72.585  1.00  0.00    -0.603 NA 
HETATM   14  N   UNL     1     -11.845  12.315  69.614  1.00  0.00    -0.328 NA 
ENDBRANCH   3   5
ENDBRANCH   2   3
BRANCH   2  15
HETATM   15  C   UNL     1      -9.310  13.495  67.964  1.00  0.00    -0.213 C  
HETATM   16  O   UNL     1      -8.929  11.107  65.285  1.00  0.00    -0.191 OA 
HETATM   17  C   UNL     1      -8.368  13.023  68.804  1.00  0.00     0.134 C  
HETATM   18  C   UNL     1      -7.642  11.794  68.556  1.00  0.00    -0.131 A  
HETATM   19  N   UNL     1      -9.573  12.807  66.758  1.00  0.00    -0.237 N  
HETATM   20  C   UNL     1      -6.800  11.297  69.561  1.00  0.00    -0.115 A  
HETATM   21  C   UNL     1      -8.800  11.661  66.376  1.00  0.00    -0.182 C  
HETATM   22  C   UNL     1      -7.803  11.113  67.347  1.00  0.00    -0.121 A  
HETATM   23 CL   UNL     1      -7.079   8.995  65.689  1.00  0.00    -0.080 Cl 
HETATM   24  C   UNL     1      -6.101  10.113  69.369  1.00  0.00    -0.041 A  
HETATM   25  C   UNL     1      -6.224   9.442  68.156  1.00  0.00    -0.053 A  
HETATM   26  C   UNL     1      -7.059   9.936  67.141  1.00  0.00    -0.085 A  
BRANCH  19  27
HETATM   27  C   UNL     1     -10.632  13.140  65.842  1.00  0.00    -0.280 A  
HETATM   28  C   UNL     1     -10.529  14.316  65.076  1.00  0.00    -0.458 A  
HETATM   29  C   UNL     1     -11.529  14.676  64.165  1.00  0.00    -0.040 A  
HETATM   30  C   UNL     1     -12.652  13.868  64.011  1.00  0.00    -0.107 A  
HETATM   31  C   UNL     1     -12.782  12.715  64.789  1.00  0.00    -0.460 A  
HETATM   32  C   UNL     1     -11.788  12.364  65.714  1.00  0.00    -0.467 A  
ENDBRANCH  19  27
ENDBRANCH   2  15
TORSDOF 4
ENDMDL
MODEL       95
REMARK 921   NORMALIZED FREE ENERGY PREDICTED BY IDOCK:   -5.99 KCAL/MOL
REMARK 922        TOTAL FREE ENERGY PREDICTED BY IDOCK:   -8.26 KCAL/MOL
REMARK 923 INTER-LIGAND FREE ENERGY PREDICTED BY IDOCK:   -7.20 KCAL/MOL
REMARK 924 INTRA-LIGAND FREE ENERGY PREDICTED BY IDOCK:   -1.06 KCAL/MOL
REMARK 927      BINDING AFFINITY PREDICTED BY RF-SCORE:    0.00 PKD
ROOT
HETATM    1  C   UNL     1     -10.893  16.262  69.037  1.00  0.00    -0.315 C  
HETATM    2  C   UNL     1      -9.712  15.909  68.134  1.00  0.00    -0.212 C  
ENDROOT
BRANCH   2   3
HETATM    3  N   UNL     1      -9.234  17.027  67.332  1.00  0.00    -0.232 NA 
HETATM    4  H   UNL     1      -9.724  17.301  66.480  1.00  0.00     0.000 HD 
BRANCH   3   5
HETATM    5  C   UNL     1      -8.097  17.716  67.746  1.00  0.00    -0.224 A  
HETATM    6  C   UNL     1      -6.422  19.387  67.477  1.00  0.00    -0.207 A  
HETATM    7  N   UNL     1      -5.778  19.131  68.623  1.00  0.00    -0.207 NA 
HETATM    8  C   UNL     1      -7.028  20.264  65.547  1.00  0.00    -0.271 A  
HETATM    9  H   UNL     1      -8.691  19.041  65.160  1.00  0.00     0.000 HD 
HETATM   10  N   UNL     1      -7.909  19.309  65.758  1.00  0.00    -0.451 NA 
HETATM   11  C   UNL     1      -6.375  18.117  69.279  1.00  0.00    -0.256 A  
HETATM   12  C   UNL     1      -7.541  18.751  66.968  1.00  0.00    -0.229 A  
HETATM   13  N   UNL     1      -6.114  20.352  66.564  1.00  0.00    -0.181 NA 
HETATM   14  N   UNL     1      -7.472  17.413  68.917  1.00  0.00    -0.254 NA 
ENDBRANCH   3   5
ENDBRANCH   2   3
BRANCH   2  15
HETATM   15  C   UNL     1      -9.801  14.660  67.240  1.00  0.00    -0.231 C  
HETATM   16  O   UNL     1      -8.286  11.534  66.260  1.00  0.00    -0.159 OA 
HETATM   17  C   UNL     1     -10.879  14.634  66.432  1.00  0.00    -0.315 C  
HETATM   18  C   UNL     1     -11.080  13.614  65.424  1.00  0.00    -0.304 A  
HETATM   19  N   UNL     1      -8.845  13.622  67.154  1.00  0.00    -0.224 N  
HETATM   20  C   UNL     1     -12.145  13.759  64.523  1.00  0.00    -0.463 A  
HETATM   21  C   UNL     1      -9.042  12.504  66.278  1.00  0.00    -0.069 C  
HETATM   22  C   UNL     1     -10.210  12.523  65.343  1.00  0.00    -0.303 A  
HETATM   23 CL   UNL     1      -9.531  10.098  64.153  1.00  0.00    -0.342 Cl 
HETATM   24  C   UNL     1     -12.358  12.811  63.531  1.00  0.00    -0.559 A  
HETATM   25  C   UNL     1     -11.522  11.702  63.461  1.00  0.00    -0.427 A  
HETATM   26  C   UNL     1     -10.458  11.544  64.363  1.00  0.00    -0.325 A  
BRANCH  19  27
HETATM   27  C   UNL     1      -7.597  13.600  67.871  1.00  0.00    -0.156 A  
HETATM   28  C   UNL     1      -7.459  12.739  68.976  1.00  0.00     0.103 A  
HETATM   29  C   UNL     1      -6.263  12.675  69.699  1.00  0.00    -0.122 A  
HETATM   30  C   UNL     1      -5.186  13.478  69.331  1.00  0.00    -0.082 A  
HETATM   31  C   UNL     1      -5.320  14.361  68.257  1.00  0.00    -0.114 A  
HETATM   32  C   UNL     1      -6.526  14.436  67.545  1.00  0.00    -0.066 A  
ENDBRANCH  19  27
ENDBRANCH   2  15
TORSDOF 4
ENDMDL
MODEL       96
REMARK 921   NORMALIZED FREE ENERGY PREDICTED BY IDOCK:   -5.98 KCAL/MOL
REMARK 922        TOTAL FREE ENERGY PREDICTED BY IDOCK:   -8.25 KCAL/MOL
REMARK 923 INTER-LIGAND FREE ENERGY PREDICTED BY IDOCK:   -7.38 KCAL/MOL
REMARK 924 INTRA-LIGAND FREE ENERGY PREDICTED BY IDOCK:   -0.87 KCAL/MOL
REMARK 927      BINDING AFFINITY PREDICTED BY RF-SCORE:    0.00 PKD
ROOT
HETATM    1  C   UNL     1      -7.908  12.078  67.841  1.00  0.00    -0.144 C  
HETATM    2  C   UNL     1      -8.331  10.610  67.854  1.00  0.00    -0.120 C  
ENDROOT
BRANCH   2   3
HETATM    3  N   UNL     1      -8.709  10.098  66.544  1.00  0.00    -0.129 NA 
HETATM    4  H   UNL     1      -9.235  10.680  65.892  1.00  0.00     0.000 HD 
BRANCH   3   5
HETATM    5  C   UNL     1      -8.342   8.801  66.195  1.00  0.00    -0.123 A  
HETATM    6  C   UNL     1      -8.756   6.463  66.013  1.00  0.00    -0.151 A  
HETATM    7  N   UNL     1      -7.580   6.151  65.454  1.00  0.00    -0.083 NA 
HETATM    8  C   UNL     1     -10.787   6.341  66.861  1.00  0.00    -0.354 A  
HETATM    9  H   UNL     1     -11.054   8.375  67.316  1.00  0.00     0.000 HD 
HETATM   10  N   UNL     1     -10.479   7.619  66.943  1.00  0.00    -0.332 NA 
HETATM   11  C   UNL     1      -6.824   7.257  65.307  1.00  0.00    -0.051 A  
HETATM   12  C   UNL     1      -9.206   7.709  66.413  1.00  0.00    -0.175 A  
HETATM   13  N   UNL     1      -9.777   5.607  66.299  1.00  0.00    -0.154 NA 
HETATM   14  N   UNL     1      -7.130   8.533  65.635  1.00  0.00    -0.078 NA 
ENDBRANCH   3   5
ENDBRANCH   2   3
BRANCH   2  15
HETATM   15  C   UNL     1      -9.367  10.138  68.888  1.00  0.00    -0.179 C  
HETATM   16  O   UNL     1     -12.695  10.538  70.227  1.00  0.00    -0.310 OA 
HETATM   17  C   UNL     1      -8.933   9.150  69.694  1.00  0.00    -0.158 C  
HETATM   18  C   UNL     1      -9.706   8.655  70.815  1.00  0.00    -0.237 A  
HETATM   19  N   UNL     1     -10.653  10.687  69.095  1.00  0.00    -0.213 N  
HETATM   20  C   UNL     1      -9.106   7.740  71.693  1.00  0.00    -0.163 A  
HETATM   21  C   UNL     1     -11.533  10.157  70.096  1.00  0.00    -0.296 C  
HETATM   22  C   UNL     1     -11.013   9.104  71.022  1.00  0.00    -0.375 A  
HETATM   23 CL   UNL     1     -13.377   8.965  72.487  1.00  0.00    -0.475 Cl 
HETATM   24  C   UNL     1      -9.808   7.257  72.789  1.00  0.00    -0.219 A  
HETATM   25  C   UNL     1     -11.123   7.668  72.988  1.00  0.00    -0.437 A  
HETATM   26  C   UNL     1     -11.733   8.578  72.110  1.00  0.00    -0.378 A  
BRANCH  19  27
HETATM   27  C   UNL     1     -11.180  11.823  68.384  1.00  0.00    -0.251 A  
HETATM   28  C   UNL     1     -11.586  11.664  67.046  1.00  0.00    -0.268 A  
HETATM   29  C   UNL     1     -12.114  12.736  66.318  1.00  0.00    -0.400 A  
HETATM   30  C   UNL     1     -12.237  13.988  66.915  1.00  0.00    -0.415 A  
HETATM   31  C   UNL     1     -11.807  14.167  68.232  1.00  0.00    -0.391 A  
HETATM   32  C   UNL     1     -11.263  13.096  68.955  1.00  0.00    -0.324 A  
ENDBRANCH  19  27
ENDBRANCH   2  15
TORSDOF 4
ENDMDL
MODEL       97
REMARK 921   NORMALIZED FREE ENERGY PREDICTED BY IDOCK:   -5.98 KCAL/MOL
REMARK 922        TOTAL FREE ENERGY PREDICTED BY IDOCK:   -8.25 KCAL/MOL
REMARK 923 INTER-LIGAND FREE ENERGY PREDICTED BY IDOCK:   -7.60 KCAL/MOL
REMARK 924 INTRA-LIGAND FREE ENERGY PREDICTED BY IDOCK:   -0.64 KCAL/MOL
REMARK 927      BINDING AFFINITY PREDICTED BY RF-SCORE:    0.00 PKD
ROOT
HETATM    1  C   UNL     1      -8.981   8.800  70.588  1.00  0.00    -0.219 C  
HETATM    2  C   UNL     1     -10.482   9.026  70.413  1.00  0.00    -0.213 C  
ENDROOT
BRANCH   2   3
HETATM    3  N   UNL     1     -11.098   8.137  69.437  1.00  0.00    -0.438 NA 
HETATM    4  H   UNL     1     -11.803   8.487  68.790  1.00  0.00     0.000 HD 
BRANCH   3   5
HETATM    5  C   UNL     1     -10.707   6.800  69.403  1.00  0.00    -0.255 A  
HETATM    6  C   UNL     1     -10.091   4.807  68.255  1.00  0.00    -0.039 A  
HETATM    7  N   UNL     1      -9.885   4.067  69.352  1.00  0.00    -0.133 NA 
HETATM    8  C   UNL     1     -10.243   5.478  66.161  1.00  0.00    -0.088 A  
HETATM    9  H   UNL     1     -10.865   7.453  66.514  1.00  0.00     0.000 HD 
HETATM   10  N   UNL     1     -10.589   6.535  66.864  1.00  0.00    -0.292 NA 
HETATM   11  C   UNL     1     -10.131   4.793  70.460  1.00  0.00    -0.220 A  
HETATM   12  C   UNL     1     -10.496   6.128  68.182  1.00  0.00    -0.230 A  
HETATM   13  N   UNL     1      -9.927   4.412  66.961  1.00  0.00    -0.191 NA 
HETATM   14  N   UNL     1     -10.519   6.086  70.547  1.00  0.00    -0.226 NA 
ENDBRANCH   3   5
ENDBRANCH   2   3
BRANCH   2  15
HETATM   15  C   UNL     1     -11.002  10.455  70.178  1.00  0.00    -0.300 C  
HETATM   16  O   UNL     1     -10.808  13.448  68.171  1.00  0.00    -0.240 OA 
HETATM   17  C   UNL     1     -11.940  10.853  71.060  1.00  0.00    -0.375 C  
HETATM   18  C   UNL     1     -12.463  12.203  71.093  1.00  0.00    -0.337 A  
HETATM   19  N   UNL     1     -10.540  11.363  69.199  1.00  0.00    -0.194 N  
HETATM   20  C   UNL     1     -13.314  12.569  72.147  1.00  0.00    -0.540 A  
HETATM   21  C   UNL     1     -11.109  12.675  69.079  1.00  0.00    -0.238 C  
HETATM   22  C   UNL     1     -12.102  13.122  70.104  1.00  0.00    -0.392 A  
HETATM   23 CL   UNL     1     -12.374  15.664  68.998  1.00  0.00    -0.111 Cl 
HETATM   24  C   UNL     1     -13.820  13.859  72.223  1.00  0.00    -0.669 A  
HETATM   25  C   UNL     1     -13.498  14.775  71.225  1.00  0.00    -0.478 A  
HETATM   26  C   UNL     1     -12.653  14.415  70.164  1.00  0.00    -0.286 A  
BRANCH  19  27
HETATM   27  C   UNL     1      -9.461  11.099  68.284  1.00  0.00    -0.182 A  
HETATM   28  C   UNL     1      -8.149  11.443  68.658  1.00  0.00    -0.141 A  
HETATM   29  C   UNL     1      -7.065  11.197  67.807  1.00  0.00    -0.086 A  
HETATM   30  C   UNL     1      -7.279  10.609  66.563  1.00  0.00    -0.134 A  
HETATM   31  C   UNL     1      -8.580  10.292  66.166  1.00  0.00    -0.146 A  
HETATM   32  C   UNL     1      -9.667  10.556  67.013  1.00  0.00    -0.212 A  
ENDBRANCH  19  27
ENDBRANCH   2  15
TORSDOF 4
ENDMDL
MODEL       98
REMARK 921   NORMALIZED FREE ENERGY PREDICTED BY IDOCK:   -5.96 KCAL/MOL
REMARK 922        TOTAL FREE ENERGY PREDICTED BY IDOCK:   -8.23 KCAL/MOL
REMARK 923 INTER-LIGAND FREE ENERGY PREDICTED BY IDOCK:   -7.32 KCAL/MOL
REMARK 924 INTRA-LIGAND FREE ENERGY PREDICTED BY IDOCK:   -0.91 KCAL/MOL
REMARK 927      BINDING AFFINITY PREDICTED BY RF-SCORE:    0.00 PKD
ROOT
HETATM    1  C   UNL     1      -7.407  10.280  69.769  1.00  0.00    -0.167 C  
HETATM    2  C   UNL     1      -8.838   9.820  69.498  1.00  0.00    -0.193 C  
ENDROOT
BRANCH   2   3
HETATM    3  N   UNL     1      -8.997   8.372  69.498  1.00  0.00    -0.148 NA 
HETATM    4  H   UNL     1      -8.389   7.784  68.929  1.00  0.00     0.000 HD 
BRANCH   3   5
HETATM    5  C   UNL     1      -9.994   7.803  70.287  1.00  0.00    -0.189 A  
HETATM    6  C   UNL     1     -10.902   7.122  72.381  1.00  0.00    -0.246 A  
HETATM    7  N   UNL     1     -12.057   6.654  71.891  1.00  0.00    -0.338 NA 
HETATM    8  C   UNL     1      -9.273   7.714  73.743  1.00  0.00    -0.277 A  
HETATM    9  H   UNL     1      -7.938   8.482  72.314  1.00  0.00     0.000 HD 
HETATM   10  N   UNL     1      -8.832   8.049  72.549  1.00  0.00    -0.157 NA 
HETATM   11  C   UNL     1     -12.090   6.797  70.552  1.00  0.00    -0.274 A  
HETATM   12  C   UNL     1      -9.846   7.683  71.683  1.00  0.00    -0.162 A  
HETATM   13  N   UNL     1     -10.523   7.157  73.690  1.00  0.00    -0.378 NA 
HETATM   14  N   UNL     1     -11.150   7.333  69.741  1.00  0.00    -0.221 NA 
ENDBRANCH   3   5
ENDBRANCH   2   3
BRANCH   2  15
HETATM   15  C   UNL     1      -9.597  10.402  68.292  1.00  0.00    -0.144 C  
HETATM   16  O   UNL     1     -10.262  10.183  64.752  1.00  0.00    -0.296 OA 
HETATM   17  C   UNL     1     -10.375  11.461  68.588  1.00  0.00    -0.219 C  
HETATM   18  C   UNL     1     -11.068  12.231  67.576  1.00  0.00    -0.326 A  
HETATM   19  N   UNL     1      -9.487   9.975  66.949  1.00  0.00    -0.161 N  
HETATM   20  C   UNL     1     -11.722  13.412  67.961  1.00  0.00    -0.391 A  
HETATM   21  C   UNL     1     -10.251  10.600  65.909  1.00  0.00    -0.251 C  
HETATM   22  C   UNL     1     -11.059  11.813  66.243  1.00  0.00    -0.364 A  
HETATM   23 CL   UNL     1     -11.921  12.186  63.621  1.00  0.00    -0.590 Cl 
HETATM   24  C   UNL     1     -12.382  14.187  67.017  1.00  0.00    -0.253 A  
HETATM   25  C   UNL     1     -12.412  13.764  65.692  1.00  0.00    -0.541 A  
HETATM   26  C   UNL     1     -11.766  12.580  65.300  1.00  0.00    -0.386 A  
BRANCH  19  27
HETATM   27  C   UNL     1      -8.597   8.940  66.492  1.00  0.00    -0.124 A  
HETATM   28  C   UNL     1      -7.262   9.269  66.193  1.00  0.00    -0.091 A  
HETATM   29  C   UNL     1      -6.357   8.296  65.754  1.00  0.00    -0.052 A  
HETATM   30  C   UNL     1      -6.777   6.977  65.600  1.00  0.00    -0.052 A  
HETATM   31  C   UNL     1      -8.108   6.643  65.862  1.00  0.00    -0.126 A  
HETATM   32  C   UNL     1      -9.017   7.623  66.285  1.00  0.00    -0.203 A  
ENDBRANCH  19  27
ENDBRANCH   2  15
TORSDOF 4
ENDMDL
MODEL       99
REMARK 921   NORMALIZED FREE ENERGY PREDICTED BY IDOCK:   -5.96 KCAL/MOL
REMARK 922        TOTAL FREE ENERGY PREDICTED BY IDOCK:   -8.23 KCAL/MOL
REMARK 923 INTER-LIGAND FREE ENERGY PREDICTED BY IDOCK:   -7.61 KCAL/MOL
REMARK 924 INTRA-LIGAND FREE ENERGY PREDICTED BY IDOCK:   -0.62 KCAL/MOL
REMARK 927      BINDING AFFINITY PREDICTED BY RF-SCORE:    0.00 PKD
ROOT
HETATM    1  C   UNL     1     -12.011  10.778  70.236  1.00  0.00    -0.438 C  
HETATM    2  C   UNL     1     -11.301  11.613  69.172  1.00  0.00    -0.283 C  
ENDROOT
BRANCH   2   3
HETATM    3  N   UNL     1     -12.117  12.695  68.637  1.00  0.00    -0.203 NA 
HETATM    4  H   UNL     1     -12.931  12.493  68.058  1.00  0.00     0.000 HD 
BRANCH   3   5
HETATM    5  C   UNL     1     -11.767  14.011  68.930  1.00  0.00    -0.340 A  
HETATM    6  C   UNL     1     -10.967  16.171  68.325  1.00  0.00    -0.340 A  
HETATM    7  N   UNL     1     -11.076  16.712  69.545  1.00  0.00    -0.239 NA 
HETATM    8  C   UNL     1     -10.588  15.877  66.173  1.00  0.00    -0.305 A  
HETATM    9  H   UNL     1     -11.152  13.858  66.033  1.00  0.00     0.000 HD 
HETATM   10  N   UNL     1     -11.023  14.705  66.587  1.00  0.00    -0.316 NA 
HETATM   11  C   UNL     1     -11.543  15.801  70.421  1.00  0.00    -0.360 A  
HETATM   12  C   UNL     1     -11.266  14.877  67.937  1.00  0.00    -0.315 A  
HETATM   13  N   UNL     1     -10.544  16.795  67.189  1.00  0.00    -0.294 NA 
HETATM   14  N   UNL     1     -11.889  14.514  70.190  1.00  0.00    -0.290 NA 
ENDBRANCH   3   5
ENDBRANCH   2   3
BRANCH   2  15
HETATM   15  C   UNL     1     -10.599  10.898  68.005  1.00  0.00    -0.202 C  
HETATM   16  O   UNL     1      -8.391   8.231  66.986  1.00  0.00    -0.119 OA 
HETATM   17  C   UNL     1     -10.857  11.433  66.795  1.00  0.00    -0.336 C  
HETATM   18  C   UNL     1     -10.195  10.990  65.585  1.00  0.00    -0.318 A  
HETATM   19  N   UNL     1      -9.690   9.821  68.108  1.00  0.00    -0.143 N  
HETATM   20  C   UNL     1     -10.406  11.712  64.401  1.00  0.00    -0.362 A  
HETATM   21  C   UNL     1      -9.099   9.237  66.939  1.00  0.00    -0.131 C  
HETATM   22  C   UNL     1      -9.345   9.881  65.612  1.00  0.00    -0.269 A  
HETATM   23 CL   UNL     1      -7.715   8.092  64.234  1.00  0.00    -0.120 Cl 
HETATM   24  C   UNL     1      -9.774  11.331  63.225  1.00  0.00    -0.405 A  
HETATM   25  C   UNL     1      -8.954  10.207  63.229  1.00  0.00    -0.262 A  
HETATM   26  C   UNL     1      -8.743   9.474  64.408  1.00  0.00    -0.208 A  
BRANCH  19  27
HETATM   27  C   UNL     1      -9.240   9.248  69.350  1.00  0.00    -0.159 A  
HETATM   28  C   UNL     1     -10.048   8.292  69.993  1.00  0.00    -0.196 A  
HETATM   29  C   UNL     1      -9.649   7.699  71.196  1.00  0.00    -0.168 A  
HETATM   30  C   UNL     1      -8.437   8.060  71.779  1.00  0.00    -0.164 A  
HETATM   31  C   UNL     1      -7.641   9.031  71.168  1.00  0.00    -0.130 A  
HETATM   32  C   UNL     1      -8.050   9.637  69.971  1.00  0.00    -0.190 A  
ENDBRANCH  19  27
ENDBRANCH   2  15
TORSDOF 4
ENDMDL
MODEL      100
REMARK 921   NORMALIZED FREE ENERGY PREDICTED BY IDOCK:   -5.94 KCAL/MOL
REMARK 922        TOTAL FREE ENERGY PREDICTED BY IDOCK:   -8.20 KCAL/MOL
REMARK 923 INTER-LIGAND FREE ENERGY PREDICTED BY IDOCK:   -7.59 KCAL/MOL
REMARK 924 INTRA-LIGAND FREE ENERGY PREDICTED BY IDOCK:   -0.61 KCAL/MOL
REMARK 927      BINDING AFFINITY PREDICTED BY RF-SCORE:    0.00 PKD
ROOT
HETATM    1  C   UNL     1     -10.692   8.919  67.959  1.00  0.00    -0.168 C  
HETATM    2  C   UNL     1      -9.999  10.095  68.645  1.00  0.00    -0.170 C  
ENDROOT
BRANCH   2   3
HETATM    3  N   UNL     1     -10.221  10.146  70.084  1.00  0.00    -0.396 NA 
HETATM    4  H   UNL     1      -9.626  10.720  70.680  1.00  0.00     0.000 HD 
BRANCH   3   5
HETATM    5  C   UNL     1     -11.259   9.397  70.633  1.00  0.00    -0.284 A  
HETATM    6  C   UNL     1     -12.182   7.381  71.502  1.00  0.00    -0.337 A  
HETATM    7  N   UNL     1     -13.392   7.884  71.778  1.00  0.00    -0.337 NA 
HETATM    8  C   UNL     1     -10.458   6.023  71.301  1.00  0.00    -0.230 A  
HETATM    9  H   UNL     1      -9.099   7.375  70.441  1.00  0.00     0.000 HD 
HETATM   10  N   UNL     1     -10.023   7.169  70.820  1.00  0.00    -0.190 NA 
HETATM   11  C   UNL     1     -13.449   9.185  71.429  1.00  0.00    -0.298 A  
HETATM   12  C   UNL     1     -11.097   8.032  70.941  1.00  0.00    -0.255 A  
HETATM   13  N   UNL     1     -11.755   6.107  71.731  1.00  0.00    -0.287 NA 
HETATM   14  N   UNL     1     -12.476   9.953  70.888  1.00  0.00    -0.314 NA 
ENDBRANCH   3   5
ENDBRANCH   2   3
BRANCH   2  15
HETATM   15  C   UNL     1     -10.176  11.509  68.066  1.00  0.00    -0.191 C  
HETATM   16  O   UNL     1      -9.750  13.681  65.215  1.00  0.00    -0.148 OA 
HETATM   17  C   UNL     1     -10.713  12.395  68.928  1.00  0.00    -0.202 C  
HETATM   18  C   UNL     1     -10.842  13.805  68.623  1.00  0.00    -0.280 A  
HETATM   19  N   UNL     1      -9.769  11.946  66.785  1.00  0.00    -0.200 N  
HETATM   20  C   UNL     1     -11.262  14.677  69.640  1.00  0.00    -0.307 A  
HETATM   21  C   UNL     1      -9.992  13.298  66.359  1.00  0.00    -0.288 C  
HETATM   22  C   UNL     1     -10.529  14.282  67.348  1.00  0.00    -0.264 A  
HETATM   23 CL   UNL     1     -10.417  16.416  65.561  1.00  0.00    -0.378 Cl 
HETATM   24  C   UNL     1     -11.380  16.037  69.392  1.00  0.00    -0.355 A  
HETATM   25  C   UNL     1     -11.106  16.521  68.117  1.00  0.00    -0.303 A  
HETATM   26  C   UNL     1     -10.693  15.656  67.092  1.00  0.00    -0.314 A  
BRANCH  19  27
HETATM   27  C   UNL     1      -9.074  11.129  65.826  1.00  0.00    -0.206 A  
HETATM   28  C   UNL     1      -7.669  11.066  65.872  1.00  0.00    -0.012 A  
HETATM   29  C   UNL     1      -6.950  10.277  64.967  1.00  0.00    -0.112 A  
HETATM   30  C   UNL     1      -7.626   9.543  63.995  1.00  0.00    -0.122 A  
HETATM   31  C   UNL     1      -9.018   9.622  63.917  1.00  0.00    -0.254 A  
HETATM   32  C   UNL     1      -9.736  10.427  64.814  1.00  0.00    -0.383 A  
ENDBRANCH  19  27
ENDBRANCH   2  15
TORSDOF 4
ENDMDL
MODEL      101
REMARK 921   NORMALIZED FREE ENERGY PREDICTED BY IDOCK:   -5.92 KCAL/MOL
REMARK 922        TOTAL FREE ENERGY PREDICTED BY IDOCK:   -8.18 KCAL/MOL
REMARK 923 INTER-LIGAND FREE ENERGY PREDICTED BY IDOCK:   -7.54 KCAL/MOL
REMARK 924 INTRA-LIGAND FREE ENERGY PREDICTED BY IDOCK:   -0.64 KCAL/MOL
REMARK 927      BINDING AFFINITY PREDICTED BY RF-SCORE:    0.00 PKD
ROOT
HETATM    1  C   UNL     1      -7.467  10.500  69.125  1.00  0.00    -0.114 C  
HETATM    2  C   UNL     1      -8.955  10.844  69.182  1.00  0.00    -0.038 C  
ENDROOT
BRANCH   2   3
HETATM    3  N   UNL     1      -9.783   9.773  69.719  1.00  0.00    -0.216 NA 
HETATM    4  H   UNL     1      -9.510   8.797  69.599  1.00  0.00     0.000 HD 
BRANCH   3   5
HETATM    5  C   UNL     1     -10.953  10.101  70.399  1.00  0.00    -0.319 A  
HETATM    6  C   UNL     1     -12.917   9.537  71.622  1.00  0.00    -0.396 A  
HETATM    7  N   UNL     1     -13.337  10.795  71.808  1.00  0.00    -0.371 NA 
HETATM    8  C   UNL     1     -12.755   7.339  71.663  1.00  0.00    -0.375 A  
HETATM    9  H   UNL     1     -10.974   7.140  70.566  1.00  0.00     0.000 HD 
HETATM   10  N   UNL     1     -11.698   7.728  70.980  1.00  0.00    -0.285 NA 
HETATM   11  C   UNL     1     -12.484  11.663  71.230  1.00  0.00    -0.266 A  
HETATM   12  C   UNL     1     -11.787   9.107  70.948  1.00  0.00    -0.270 A  
HETATM   13  N   UNL     1     -13.516   8.400  72.076  1.00  0.00    -0.352 NA 
HETATM   14  N   UNL     1     -11.343  11.397  70.555  1.00  0.00     0.074 NA 
ENDBRANCH   3   5
ENDBRANCH   2   3
BRANCH   2  15
HETATM   15  C   UNL     1      -9.640  11.420  67.931  1.00  0.00    -0.177 C  
HETATM   16  O   UNL     1     -11.013  10.747  64.662  1.00  0.00    -0.123 OA 
HETATM   17  C   UNL     1      -9.861  12.748  67.984  1.00  0.00    -0.226 C  
HETATM   18  C   UNL     1     -10.375  13.502  66.859  1.00  0.00    -0.265 A  
HETATM   19  N   UNL     1      -9.972  10.707  66.756  1.00  0.00    -0.201 N  
HETATM   20  C   UNL     1     -10.419  14.902  66.952  1.00  0.00    -0.280 A  
HETATM   21  C   UNL     1     -10.613  11.359  65.651  1.00  0.00    -0.258 C  
HETATM   22  C   UNL     1     -10.792  12.843  65.700  1.00  0.00    -0.296 A  
HETATM   23 CL   UNL     1     -11.929  12.973  63.161  1.00  0.00    -0.493 Cl 
HETATM   24  C   UNL     1     -10.888  15.660  65.889  1.00  0.00    -0.297 A  
HETATM   25  C   UNL     1     -11.340  15.015  64.742  1.00  0.00    -0.409 A  
HETATM   26  C   UNL     1     -11.307  13.616  64.643  1.00  0.00    -0.366 A  
BRANCH  19  27
HETATM   27  C   UNL     1      -9.673   9.317  66.532  1.00  0.00    -0.240 A  
HETATM   28  C   UNL     1     -10.615   8.345  66.917  1.00  0.00    -0.285 A  
HETATM   29  C   UNL     1     -10.374   6.982  66.711  1.00  0.00    -0.291 A  
HETATM   30  C   UNL     1      -9.181   6.569  66.122  1.00  0.00    -0.126 A  
HETATM   31  C   UNL     1      -8.223   7.521  65.766  1.00  0.00    -0.137 A  
HETATM   32  C   UNL     1      -8.460   8.886  65.989  1.00  0.00    -0.138 A  
ENDBRANCH  19  27
ENDBRANCH   2  15
TORSDOF 4
ENDMDL
MODEL      102
REMARK 921   NORMALIZED FREE ENERGY PREDICTED BY IDOCK:   -5.92 KCAL/MOL
REMARK 922        TOTAL FREE ENERGY PREDICTED BY IDOCK:   -8.18 KCAL/MOL
REMARK 923 INTER-LIGAND FREE ENERGY PREDICTED BY IDOCK:   -7.50 KCAL/MOL
REMARK 924 INTRA-LIGAND FREE ENERGY PREDICTED BY IDOCK:   -0.68 KCAL/MOL
REMARK 927      BINDING AFFINITY PREDICTED BY RF-SCORE:    0.00 PKD
ROOT
HETATM    1  C   UNL     1      -9.462  10.975  66.296  1.00  0.00    -0.219 C  
HETATM    2  C   UNL     1     -10.610  10.258  67.004  1.00  0.00    -0.239 C  
ENDROOT
BRANCH   2   3
HETATM    3  N   UNL     1     -11.745  11.121  67.301  1.00  0.00    -0.506 NA 
HETATM    4  H   UNL     1     -12.642  10.722  67.576  1.00  0.00     0.000 HD 
BRANCH   3   5
HETATM    5  C   UNL     1     -11.586  12.502  67.203  1.00  0.00    -0.368 A  
HETATM    6  C   UNL     1     -11.625  14.554  65.995  1.00  0.00    -0.356 A  
HETATM    7  N   UNL     1     -11.276  15.334  67.026  1.00  0.00    -0.312 NA 
HETATM    8  C   UNL     1     -12.219  13.840  63.996  1.00  0.00    -0.380 A  
HETATM    9  H   UNL     1     -12.347  11.787  64.427  1.00  0.00     0.000 HD 
HETATM   10  N   UNL     1     -12.160  12.745  64.725  1.00  0.00    -0.406 NA 
HETATM   11  C   UNL     1     -11.087  14.590  68.133  1.00  0.00    -0.266 A  
HETATM   12  C   UNL     1     -11.789  13.180  65.984  1.00  0.00    -0.407 A  
HETATM   13  N   UNL     1     -11.910  14.957  64.725  1.00  0.00    -0.400 NA 
HETATM   14  N   UNL     1     -11.221  13.252  68.279  1.00  0.00    -0.260 NA 
ENDBRANCH   3   5
ENDBRANCH   2   3
BRANCH   2  15
HETATM   15  C   UNL     1     -10.305   9.397  68.242  1.00  0.00    -0.212 C  
HETATM   16  O   UNL     1      -8.294   6.760  69.666  1.00  0.00    -0.129 OA 
HETATM   17  C   UNL     1     -11.079   9.673  69.310  1.00  0.00    -0.149 C  
HETATM   18  C   UNL     1     -11.041   8.891  70.529  1.00  0.00    -0.288 A  
HETATM   19  N   UNL     1      -9.369   8.341  68.317  1.00  0.00    -0.135 N  
HETATM   20  C   UNL     1     -11.995   9.150  71.524  1.00  0.00    -0.422 A  
HETATM   21  C   UNL     1      -9.175   7.609  69.536  1.00  0.00    -0.150 C  
HETATM   22  C   UNL     1     -10.085   7.885  70.690  1.00  0.00    -0.197 A  
HETATM   23 CL   UNL     1      -8.926   5.934  72.305  1.00  0.00    -0.142 Cl 
HETATM   24  C   UNL     1     -12.002   8.410  72.698  1.00  0.00    -0.346 A  
HETATM   25  C   UNL     1     -11.034   7.429  72.888  1.00  0.00    -0.408 A  
HETATM   26  C   UNL     1     -10.071   7.167  71.900  1.00  0.00    -0.182 A  
BRANCH  19  27
HETATM   27  C   UNL     1      -8.576   7.872  67.211  1.00  0.00    -0.128 A  
HETATM   28  C   UNL     1      -7.271   8.370  67.047  1.00  0.00    -0.080 A  
HETATM   29  C   UNL     1      -6.458   7.937  65.993  1.00  0.00    -0.046 A  
HETATM   30  C   UNL     1      -6.943   7.002  65.081  1.00  0.00    -0.052 A  
HETATM   31  C   UNL     1      -8.248   6.524  65.214  1.00  0.00    -0.135 A  
HETATM   32  C   UNL     1      -9.067   6.972  66.261  1.00  0.00    -0.178 A  
ENDBRANCH  19  27
ENDBRANCH   2  15
TORSDOF 4
ENDMDL
MODEL      103
REMARK 921   NORMALIZED FREE ENERGY PREDICTED BY IDOCK:   -5.91 KCAL/MOL
REMARK 922        TOTAL FREE ENERGY PREDICTED BY IDOCK:   -8.17 KCAL/MOL
REMARK 923 INTER-LIGAND FREE ENERGY PREDICTED BY IDOCK:   -7.15 KCAL/MOL
REMARK 924 INTRA-LIGAND FREE ENERGY PREDICTED BY IDOCK:   -1.02 KCAL/MOL
REMARK 927      BINDING AFFINITY PREDICTED BY RF-SCORE:    0.00 PKD
ROOT
HETATM    1  C   UNL     1      -8.469   7.271  68.466  1.00  0.00    -0.125 C  
HETATM    2  C   UNL     1      -9.820   7.659  67.867  1.00  0.00    -0.157 C  
ENDROOT
BRANCH   2   3
HETATM    3  N   UNL     1      -9.976   7.268  66.472  1.00  0.00    -0.416 NA 
HETATM    4  H   UNL     1     -10.397   7.907  65.799  1.00  0.00     0.000 HD 
BRANCH   3   5
HETATM    5  C   UNL     1      -9.540   6.007  66.073  1.00  0.00     0.010 A  
HETATM    6  C   UNL     1      -8.132   4.559  64.811  1.00  0.00    -0.101 A  
HETATM    7  N   UNL     1      -8.643   3.414  65.282  1.00  0.00    -0.107 NA 
HETATM    8  C   UNL     1      -6.910   6.030  63.715  1.00  0.00    -0.038 A  
HETATM    9  H   UNL     1      -7.790   7.784  64.467  1.00  0.00     0.000 HD 
HETATM   10  N   UNL     1      -7.734   6.765  64.432  1.00  0.00    -0.105 NA 
HETATM   11  C   UNL     1      -9.632   3.671  66.161  1.00  0.00    -0.129 A  
HETATM   12  C   UNL     1      -8.506   5.853  65.126  1.00  0.00    -0.130 A  
HETATM   13  N   UNL     1      -7.110   4.691  63.918  1.00  0.00    -0.049 NA 
HETATM   14  N   UNL     1     -10.097   4.871  66.575  1.00  0.00    -0.229 NA 
ENDBRANCH   3   5
ENDBRANCH   2   3
BRANCH   2  15
HETATM   15  C   UNL     1     -10.329   9.101  68.037  1.00  0.00    -0.222 C  
HETATM   16  O   UNL     1     -11.472  11.650  70.322  1.00  0.00    -0.216 OA 
HETATM   17  C   UNL     1     -10.429   9.790  66.884  1.00  0.00    -0.281 C  
HETATM   18  C   UNL     1     -11.008  11.116  66.811  1.00  0.00    -0.309 A  
HETATM   19  N   UNL     1     -10.749   9.703  69.245  1.00  0.00    -0.225 N  
HETATM   20  C   UNL     1     -11.218  11.689  65.548  1.00  0.00    -0.267 A  
HETATM   21  C   UNL     1     -11.204  11.063  69.275  1.00  0.00    -0.257 C  
HETATM   22  C   UNL     1     -11.369  11.792  67.980  1.00  0.00    -0.355 A  
HETATM   23 CL   UNL     1     -12.351  14.099  69.192  1.00  0.00    -0.275 Cl 
HETATM   24  C   UNL     1     -11.788  12.950  65.436  1.00  0.00    -0.444 A  
HETATM   25  C   UNL     1     -12.119  13.650  66.592  1.00  0.00    -0.459 A  
HETATM   26  C   UNL     1     -11.906  13.087  67.861  1.00  0.00    -0.343 A  
BRANCH  19  27
HETATM   27  C   UNL     1     -10.807   9.030  70.516  1.00  0.00    -0.251 A  
HETATM   28  C   UNL     1     -11.976   8.331  70.866  1.00  0.00    -0.194 A  
HETATM   29  C   UNL     1     -12.077   7.653  72.086  1.00  0.00    -0.325 A  
HETATM   30  C   UNL     1     -11.009   7.671  72.980  1.00  0.00    -0.457 A  
HETATM   31  C   UNL     1      -9.855   8.389  72.660  1.00  0.00    -0.329 A  
HETATM   32  C   UNL     1      -9.763   9.082  71.444  1.00  0.00    -0.369 A  
ENDBRANCH  19  27
ENDBRANCH   2  15
TORSDOF 4
ENDMDL
MODEL      104
REMARK 921   NORMALIZED FREE ENERGY PREDICTED BY IDOCK:   -5.91 KCAL/MOL
REMARK 922        TOTAL FREE ENERGY PREDICTED BY IDOCK:   -8.16 KCAL/MOL
REMARK 923 INTER-LIGAND FREE ENERGY PREDICTED BY IDOCK:   -7.22 KCAL/MOL
REMARK 924 INTRA-LIGAND FREE ENERGY PREDICTED BY IDOCK:   -0.95 KCAL/MOL
REMARK 927      BINDING AFFINITY PREDICTED BY RF-SCORE:    0.00 PKD
ROOT
HETATM    1  C   UNL     1      -7.736   7.432  67.473  1.00  0.00    -0.111 C  
HETATM    2  C   UNL     1      -9.237   7.607  67.244  1.00  0.00    -0.131 C  
ENDROOT
BRANCH   2   3
HETATM    3  N   UNL     1      -9.768   6.765  66.180  1.00  0.00    -0.401 NA 
HETATM    4  H   UNL     1     -10.375   7.158  65.462  1.00  0.00     0.000 HD 
BRANCH   3   5
HETATM    5  C   UNL     1      -9.432   5.413  66.160  1.00  0.00    -0.157 A  
HETATM    6  C   UNL     1      -8.450   3.494  65.148  1.00  0.00    -0.102 A  
HETATM    7  N   UNL     1      -8.733   2.645  66.144  1.00  0.00    -0.123 NA 
HETATM    8  C   UNL     1      -7.711   4.361  63.260  1.00  0.00    -0.066 A  
HETATM    9  H   UNL     1      -8.372   6.334  63.547  1.00  0.00     0.000 HD 
HETATM   10  N   UNL     1      -8.288   5.371  63.876  1.00  0.00    -0.129 NA 
HETATM   11  C   UNL     1      -9.394   3.284  67.130  1.00  0.00    -0.181 A  
HETATM   12  C   UNL     1      -8.756   4.841  65.063  1.00  0.00    -0.147 A  
HETATM   13  N   UNL     1      -7.779   3.208  63.996  1.00  0.00    -0.075 NA 
HETATM   14  N   UNL     1      -9.749   4.588  67.195  1.00  0.00    -0.189 NA 
ENDBRANCH   3   5
ENDBRANCH   2   3
BRANCH   2  15
HETATM   15  C   UNL     1      -9.810   9.025  67.086  1.00  0.00    -0.203 C  
HETATM   16  O   UNL     1     -11.315  11.873  68.714  1.00  0.00    -0.227 OA 
HETATM   17  C   UNL     1      -9.786   9.493  65.822  1.00  0.00    -0.363 C  
HETATM   18  C   UNL     1     -10.395  10.750  65.440  1.00  0.00    -0.315 A  
HETATM   19  N   UNL     1     -10.398   9.809  68.105  1.00  0.00    -0.191 N  
HETATM   20  C   UNL     1     -10.464  11.077  64.077  1.00  0.00    -0.433 A  
HETATM   21  C   UNL     1     -10.899  11.125  67.831  1.00  0.00    -0.235 C  
HETATM   22  C   UNL     1     -10.923  11.602  66.414  1.00  0.00    -0.345 A  
HETATM   23 CL   UNL     1     -12.126  14.030  67.059  1.00  0.00    -0.473 Cl 
HETATM   24  C   UNL     1     -11.056  12.264  63.670  1.00  0.00    -0.537 A  
HETATM   25  C   UNL     1     -11.554  13.139  64.631  1.00  0.00    -0.384 A  
HETATM   26  C   UNL     1     -11.483  12.823  65.997  1.00  0.00    -0.350 A  
BRANCH  19  27
HETATM   27  C   UNL     1     -10.594   9.371  69.462  1.00  0.00    -0.222 A  
HETATM   28  C   UNL     1      -9.479   9.266  70.314  1.00  0.00    -0.277 A  
HETATM   29  C   UNL     1      -9.620   8.854  71.643  1.00  0.00    -0.363 A  
HETATM   30  C   UNL     1     -10.881   8.533  72.141  1.00  0.00    -0.427 A  
HETATM   31  C   UNL     1     -11.992   8.602  71.297  1.00  0.00    -0.339 A  
HETATM   32  C   UNL     1     -11.846   8.998  69.959  1.00  0.00     0.281 A  
ENDBRANCH  19  27
ENDBRANCH   2  15
TORSDOF 4
ENDMDL
MODEL      105
REMARK 921   NORMALIZED FREE ENERGY PREDICTED BY IDOCK:   -5.90 KCAL/MOL
REMARK 922        TOTAL FREE ENERGY PREDICTED BY IDOCK:   -8.16 KCAL/MOL
REMARK 923 INTER-LIGAND FREE ENERGY PREDICTED BY IDOCK:   -7.65 KCAL/MOL
REMARK 924 INTRA-LIGAND FREE ENERGY PREDICTED BY IDOCK:   -0.50 KCAL/MOL
REMARK 927      BINDING AFFINITY PREDICTED BY RF-SCORE:    0.00 PKD
ROOT
HETATM    1  C   UNL     1     -10.587  14.465  68.300  1.00  0.00    -0.243 C  
HETATM    2  C   UNL     1      -9.277  13.922  67.731  1.00  0.00    -0.197 C  
ENDROOT
BRANCH   2   3
HETATM    3  N   UNL     1      -8.900  14.520  66.457  1.00  0.00    -0.454 NA 
HETATM    4  H   UNL     1      -9.109  14.045  65.579  1.00  0.00     0.000 HD 
BRANCH   3   5
HETATM    5  C   UNL     1      -8.250  15.752  66.456  1.00  0.00    -0.243 A  
HETATM    6  C   UNL     1      -8.216  18.124  66.253  1.00  0.00    -0.212 A  
HETATM    7  N   UNL     1      -6.904  18.269  66.482  1.00  0.00    -0.201 NA 
HETATM    8  C   UNL     1     -10.344  18.529  65.842  1.00  0.00    -0.315 A  
HETATM    9  H   UNL     1     -11.045  16.549  65.865  1.00  0.00     0.000 HD 
HETATM   10  N   UNL     1     -10.280  17.219  65.953  1.00  0.00    -0.539 NA 
HETATM   11  C   UNL     1      -6.329  17.068  66.683  1.00  0.00    -0.212 A  
HETATM   12  C   UNL     1      -8.949  16.951  66.212  1.00  0.00    -0.270 A  
HETATM   13  N   UNL     1      -9.121  19.118  66.024  1.00  0.00    -0.447 NA 
HETATM   14  N   UNL     1      -6.911  15.847  66.686  1.00  0.00    -0.152 NA 
ENDBRANCH   3   5
ENDBRANCH   2   3
BRANCH   2  15
HETATM   15  C   UNL     1      -9.073  12.400  67.643  1.00  0.00    -0.186 C  
HETATM   16  O   UNL     1      -9.775   9.358  65.833  1.00  0.00    -0.253 OA 
HETATM   17  C   UNL     1      -8.319  11.886  68.635  1.00  0.00    -0.058 C  
HETATM   18  C   UNL     1      -8.114  10.463  68.808  1.00  0.00    -0.125 A  
HETATM   19  N   UNL     1      -9.649  11.532  66.688  1.00  0.00    -0.193 N  
HETATM   20  C   UNL     1      -7.451  10.014  69.959  1.00  0.00    -0.181 A  
HETATM   21  C   UNL     1      -9.379  10.123  66.711  1.00  0.00    -0.160 C  
HETATM   22  C   UNL     1      -8.594   9.562  67.854  1.00  0.00    -0.119 A  
HETATM   23 CL   UNL     1      -8.812   6.935  66.952  1.00  0.00    -0.117 Cl 
HETATM   24  C   UNL     1      -7.253   8.656  70.170  1.00  0.00    -0.052 A  
HETATM   25  C   UNL     1      -7.693   7.749  69.211  1.00  0.00    -0.100 A  
HETATM   26  C   UNL     1      -8.352   8.190  68.052  1.00  0.00    -0.129 A  
BRANCH  19  27
HETATM   27  C   UNL     1     -10.568  11.943  65.660  1.00  0.00    -0.268 A  
HETATM   28  C   UNL     1     -11.858  12.370  66.027  1.00  0.00    -0.459 A  
HETATM   29  C   UNL     1     -12.783  12.788  65.065  1.00  0.00    -0.455 A  
HETATM   30  C   UNL     1     -12.434  12.779  63.716  1.00  0.00    -0.474 A  
HETATM   31  C   UNL     1     -11.169  12.327  63.335  1.00  0.00    -0.497 A  
HETATM   32  C   UNL     1     -10.249  11.892  64.300  1.00  0.00    -0.346 A  
ENDBRANCH  19  27
ENDBRANCH   2  15
TORSDOF 4
ENDMDL
MODEL      106
REMARK 921   NORMALIZED FREE ENERGY PREDICTED BY IDOCK:   -5.89 KCAL/MOL
REMARK 922        TOTAL FREE ENERGY PREDICTED BY IDOCK:   -8.15 KCAL/MOL
REMARK 923 INTER-LIGAND FREE ENERGY PREDICTED BY IDOCK:   -6.94 KCAL/MOL
REMARK 924 INTRA-LIGAND FREE ENERGY PREDICTED BY IDOCK:   -1.21 KCAL/MOL
REMARK 927      BINDING AFFINITY PREDICTED BY RF-SCORE:    0.00 PKD
ROOT
HETATM    1  C   UNL     1     -11.892  11.520  68.527  1.00  0.00    -0.365 C  
HETATM    2  C   UNL     1     -10.581  12.144  68.050  1.00  0.00    -0.210 C  
ENDROOT
BRANCH   2   3
HETATM    3  N   UNL     1      -9.469  11.942  68.968  1.00  0.00    -0.397 NA 
HETATM    4  H   UNL     1      -9.274  12.621  69.704  1.00  0.00     0.000 HD 
BRANCH   3   5
HETATM    5  C   UNL     1      -8.674  10.807  68.825  1.00  0.00    -0.163 A  
HETATM    6  C   UNL     1      -8.016   8.598  69.424  1.00  0.00    -0.102 A  
HETATM    7  N   UNL     1      -7.052   8.481  68.503  1.00  0.00    -0.072 NA 
HETATM    8  C   UNL     1      -9.419   8.188  71.075  1.00  0.00    -0.156 A  
HETATM    9  H   UNL     1     -10.430  10.029  71.085  1.00  0.00     0.000 HD 
HETATM   10  N   UNL     1      -9.715   9.414  70.697  1.00  0.00    -0.267 NA 
HETATM   11  C   UNL     1      -6.961   9.610  67.774  1.00  0.00    -0.079 A  
HETATM   12  C   UNL     1      -8.842   9.684  69.660  1.00  0.00    -0.201 A  
HETATM   13  N   UNL     1      -8.403   7.654  70.328  1.00  0.00    -0.130 NA 
HETATM   14  N   UNL     1      -7.700  10.738  67.877  1.00  0.00    -0.098 NA 
ENDBRANCH   3   5
ENDBRANCH   2   3
BRANCH   2  15
HETATM   15  C   UNL     1     -10.577  13.610  67.582  1.00  0.00    -0.241 C  
HETATM   16  O   UNL     1     -11.303  15.930  64.914  1.00  0.00    -0.335 OA 
HETATM   17  C   UNL     1     -10.112  14.481  68.499  1.00  0.00    -0.242 C  
HETATM   18  C   UNL     1      -9.905  15.886  68.211  1.00  0.00    -0.217 A  
HETATM   19  N   UNL     1     -10.939  14.080  66.299  1.00  0.00    -0.298 N  
HETATM   20  C   UNL     1      -9.267  16.681  69.174  1.00  0.00    -0.167 A  
HETATM   21  C   UNL     1     -10.893  15.478  65.982  1.00  0.00    -0.300 C  
HETATM   22  C   UNL     1     -10.315  16.422  66.988  1.00  0.00    -0.293 A  
HETATM   23 CL   UNL     1     -10.611  18.648  65.340  1.00  0.00    -0.059 Cl 
HETATM   24  C   UNL     1      -9.034  18.028  68.928  1.00  0.00    -0.139 A  
HETATM   25  C   UNL     1      -9.468  18.584  67.729  1.00  0.00    -0.308 A  
HETATM   26  C   UNL     1     -10.115  17.796  66.763  1.00  0.00    -0.349 A  
BRANCH  19  27
HETATM   27  C   UNL     1     -11.330  13.236  65.200  1.00  0.00    -0.297 A  
HETATM   28  C   UNL     1     -10.346  12.785  64.301  1.00  0.00    -0.402 A  
HETATM   29  C   UNL     1     -10.676  11.955  63.223  1.00  0.00    -0.415 A  
HETATM   30  C   UNL     1     -11.999  11.568  63.025  1.00  0.00     0.200 A  
HETATM   31  C   UNL     1     -12.990  12.035  63.891  1.00  0.00    -0.299 A  
HETATM   32  C   UNL     1     -12.660  12.881  64.960  1.00  0.00    -0.538 A  
ENDBRANCH  19  27
ENDBRANCH   2  15
TORSDOF 4
ENDMDL
MODEL      107
REMARK 921   NORMALIZED FREE ENERGY PREDICTED BY IDOCK:   -5.88 KCAL/MOL
REMARK 922        TOTAL FREE ENERGY PREDICTED BY IDOCK:   -8.13 KCAL/MOL
REMARK 923 INTER-LIGAND FREE ENERGY PREDICTED BY IDOCK:   -7.60 KCAL/MOL
REMARK 924 INTRA-LIGAND FREE ENERGY PREDICTED BY IDOCK:   -0.54 KCAL/MOL
REMARK 927      BINDING AFFINITY PREDICTED BY RF-SCORE:    0.00 PKD
ROOT
HETATM    1  C   UNL     1      -7.131  10.440  69.655  1.00  0.00    -0.135 C  
HETATM    2  C   UNL     1      -8.651  10.290  69.608  1.00  0.00    -0.107 C  
ENDROOT
BRANCH   2   3
HETATM    3  N   UNL     1      -9.120   8.961  69.978  1.00  0.00    -0.157 NA 
HETATM    4  H   UNL     1      -9.787   8.840  70.739  1.00  0.00     0.000 HD 
BRANCH   3   5
HETATM    5  C   UNL     1      -8.641   7.858  69.276  1.00  0.00    -0.138 A  
HETATM    6  C   UNL     1      -8.870   6.108  67.676  1.00  0.00    -0.103 A  
HETATM    7  N   UNL     1      -7.635   5.612  67.829  1.00  0.00    -0.088 NA 
HETATM    8  C   UNL     1     -10.934   6.455  66.985  1.00  0.00    -0.389 A  
HETATM    9  H   UNL     1     -11.396   8.101  68.205  1.00  0.00     0.000 HD 
HETATM   10  N   UNL     1     -10.738   7.386  67.895  1.00  0.00    -0.184 NA 
HETATM   11  C   UNL     1      -6.960   6.315  68.758  1.00  0.00    -0.076 A  
HETATM   12  C   UNL     1      -9.444   7.181  68.336  1.00  0.00    -0.138 A  
HETATM   13  N   UNL     1      -9.829   5.664  66.815  1.00  0.00    -0.151 NA 
HETATM   14  N   UNL     1      -7.379   7.385  69.472  1.00  0.00    -0.083 NA 
ENDBRANCH   3   5
ENDBRANCH   2   3
BRANCH   2  15
HETATM   15  C   UNL     1      -9.410  10.751  68.352  1.00  0.00    -0.167 C  
HETATM   16  O   UNL     1     -12.351  12.368  67.025  1.00  0.00    -0.399 OA 
HETATM   17  C   UNL     1      -8.784  10.468  67.193  1.00  0.00    -0.130 C  
HETATM   18  C   UNL     1      -9.389  10.701  65.898  1.00  0.00    -0.224 A  
HETATM   19  N   UNL     1     -10.688  11.355  68.321  1.00  0.00    -0.192 N  
HETATM   20  C   UNL     1      -8.731  10.226  64.753  1.00  0.00    -0.201 A  
HETATM   21  C   UNL     1     -11.293  11.743  67.080  1.00  0.00    -0.321 C  
HETATM   22  C   UNL     1     -10.615  11.364  65.802  1.00  0.00    -0.315 A  
HETATM   23 CL   UNL     1     -12.623  12.445  64.202  1.00  0.00    -0.529 Cl 
HETATM   24  C   UNL     1      -9.288  10.413  63.496  1.00  0.00    -0.333 A  
HETATM   25  C   UNL     1     -10.491  11.103  63.383  1.00  0.00    -0.382 A  
HETATM   26  C   UNL     1     -11.153  11.589  64.521  1.00  0.00    -0.273 A  
BRANCH  19  27
HETATM   27  C   UNL     1     -11.507  11.594  69.481  1.00  0.00    -0.304 A  
HETATM   28  C   UNL     1     -11.682  12.915  69.933  1.00  0.00    -0.324 A  
HETATM   29  C   UNL     1     -12.477  13.198  71.050  1.00  0.00    -0.406 A  
HETATM   30  C   UNL     1     -13.104  12.161  71.736  1.00  0.00    -0.457 A  
HETATM   31  C   UNL     1     -12.912  10.842  71.317  1.00  0.00    -0.492 A  
HETATM   32  C   UNL     1     -12.101  10.559  70.208  1.00  0.00    -0.402 A  
ENDBRANCH  19  27
ENDBRANCH   2  15
TORSDOF 4
ENDMDL
MODEL      108
REMARK 921   NORMALIZED FREE ENERGY PREDICTED BY IDOCK:   -5.88 KCAL/MOL
REMARK 922        TOTAL FREE ENERGY PREDICTED BY IDOCK:   -8.13 KCAL/MOL
REMARK 923 INTER-LIGAND FREE ENERGY PREDICTED BY IDOCK:   -6.93 KCAL/MOL
REMARK 924 INTRA-LIGAND FREE ENERGY PREDICTED BY IDOCK:   -1.20 KCAL/MOL
REMARK 927      BINDING AFFINITY PREDICTED BY RF-SCORE:    0.00 PKD
ROOT
HETATM    1  C   UNL     1     -11.424  12.311  66.798  1.00  0.00    -0.421 C  
HETATM    2  C   UNL     1     -10.175  12.519  67.652  1.00  0.00    -0.219 C  
ENDROOT
BRANCH   2   3
HETATM    3  N   UNL     1     -10.392  12.279  69.073  1.00  0.00    -0.423 NA 
HETATM    4  H   UNL     1     -10.470  13.060  69.724  1.00  0.00     0.000 HD 
BRANCH   3   5
HETATM    5  C   UNL     1     -10.490  10.966  69.527  1.00  0.00    -0.138 A  
HETATM    6  C   UNL     1     -11.534   9.239  70.792  1.00  0.00    -0.292 A  
HETATM    7  N   UNL     1     -10.688   8.265  70.431  1.00  0.00    -0.229 NA 
HETATM    8  C   UNL     1     -13.199  10.355  71.709  1.00  0.00    -0.424 A  
HETATM    9  H   UNL     1     -12.785  12.249  70.898  1.00  0.00     0.000 HD 
HETATM   10  N   UNL     1     -12.558  11.259  70.998  1.00  0.00    -0.399 NA 
HETATM   11  C   UNL     1      -9.744   8.749  69.601  1.00  0.00    -0.173 A  
HETATM   12  C   UNL     1     -11.510  10.571  70.415  1.00  0.00    -0.341 A  
HETATM   13  N   UNL     1     -12.619   9.119  71.608  1.00  0.00    -0.338 NA 
HETATM   14  N   UNL     1      -9.600  10.012  69.137  1.00  0.00    -0.197 NA 
ENDBRANCH   3   5
ENDBRANCH   2   3
BRANCH   2  15
HETATM   15  C   UNL     1      -9.362  13.814  67.487  1.00  0.00    -0.222 C  
HETATM   16  O   UNL     1      -6.092  15.340  67.422  1.00  0.00    -0.315 OA 
HETATM   17  C   UNL     1     -10.112  14.913  67.273  1.00  0.00    -0.235 C  
HETATM   18  C   UNL     1      -9.550  16.248  67.220  1.00  0.00    -0.231 A  
HETATM   19  N   UNL     1      -7.960  13.944  67.609  1.00  0.00    -0.160 N  
HETATM   20  C   UNL     1     -10.425  17.343  67.156  1.00  0.00    -0.305 A  
HETATM   21  C   UNL     1      -7.315  15.213  67.431  1.00  0.00    -0.205 C  
HETATM   22  C   UNL     1      -8.165  16.431  67.258  1.00  0.00    -0.193 A  
HETATM   23 CL   UNL     1      -5.986  18.161  67.149  1.00  0.00    -0.160 Cl 
HETATM   24  C   UNL     1      -9.925  18.637  67.123  1.00  0.00    -0.360 A  
HETATM   25  C   UNL     1      -8.548  18.834  67.124  1.00  0.00    -0.287 A  
HETATM   26  C   UNL     1      -7.665  17.744  67.181  1.00  0.00    -0.205 A  
BRANCH  19  27
HETATM   27  C   UNL     1      -7.068  12.870  67.959  1.00  0.00    -0.111 A  
HETATM   28  C   UNL     1      -6.717  12.684  69.309  1.00  0.00    -0.054 A  
HETATM   29  C   UNL     1      -5.861  11.648  69.699  1.00  0.00    -0.091 A  
HETATM   30  C   UNL     1      -5.336  10.784  68.741  1.00  0.00    -0.041 A  
HETATM   31  C   UNL     1      -5.650  10.976  67.394  1.00  0.00    -0.048 A  
HETATM   32  C   UNL     1      -6.494  12.026  67.003  1.00  0.00    -0.114 A  
ENDBRANCH  19  27
ENDBRANCH   2  15
TORSDOF 4
ENDMDL
MODEL      109
REMARK 921   NORMALIZED FREE ENERGY PREDICTED BY IDOCK:   -5.85 KCAL/MOL
REMARK 922        TOTAL FREE ENERGY PREDICTED BY IDOCK:   -8.09 KCAL/MOL
REMARK 923 INTER-LIGAND FREE ENERGY PREDICTED BY IDOCK:   -6.85 KCAL/MOL
REMARK 924 INTRA-LIGAND FREE ENERGY PREDICTED BY IDOCK:   -1.25 KCAL/MOL
REMARK 927      BINDING AFFINITY PREDICTED BY RF-SCORE:    0.00 PKD
ROOT
HETATM    1  C   UNL     1      -7.696   7.215  66.052  1.00  0.00    -0.099 C  
HETATM    2  C   UNL     1      -8.971   7.105  66.887  1.00  0.00    -0.134 C  
ENDROOT
BRANCH   2   3
HETATM    3  N   UNL     1     -10.002   6.279  66.274  1.00  0.00    -0.387 NA 
HETATM    4  H   UNL     1     -10.918   6.671  66.056  1.00  0.00     0.000 HD 
BRANCH   3   5
HETATM    5  C   UNL     1      -9.718   4.945  65.990  1.00  0.00    -0.188 A  
HETATM    6  C   UNL     1      -9.265   2.697  66.633  1.00  0.00    -0.073 A  
HETATM    7  N   UNL     1      -9.157   2.211  65.390  1.00  0.00    -0.125 NA 
HETATM    8  C   UNL     1      -9.333   2.879  68.829  1.00  0.00    -0.168 A  
HETATM    9  H   UNL     1      -9.730   4.938  68.956  1.00  0.00     0.000 HD 
HETATM   10  N   UNL     1      -9.562   4.102  68.397  1.00  0.00    -0.148 NA 
HETATM   11  C   UNL     1      -9.341   3.193  64.486  1.00  0.00    -0.144 A  
HETATM   12  C   UNL     1      -9.523   4.001  67.018  1.00  0.00    -0.199 A  
HETATM   13  N   UNL     1      -9.155   1.997  67.797  1.00  0.00    -0.156 NA 
HETATM   14  N   UNL     1      -9.611   4.500  64.708  1.00  0.00    -0.133 NA 
ENDBRANCH   3   5
ENDBRANCH   2   3
BRANCH   2  15
HETATM   15  C   UNL     1      -9.622   8.387  67.433  1.00  0.00    -0.157 C  
HETATM   16  O   UNL     1     -10.959  10.107  70.311  1.00  0.00    -0.278 OA 
HETATM   17  C   UNL     1      -9.827   9.341  66.504  1.00  0.00    -0.331 C  
HETATM   18  C   UNL     1     -10.543  10.568  66.784  1.00  0.00    -0.284 A  
HETATM   19  N   UNL     1     -10.067   8.602  68.757  1.00  0.00    -0.191 N  
HETATM   20  C   UNL     1     -10.849  11.427  65.717  1.00  0.00    -0.290 A  
HETATM   21  C   UNL     1     -10.662   9.848  69.146  1.00  0.00    -0.224 C  
HETATM   22  C   UNL     1     -10.939  10.870  68.090  1.00  0.00    -0.302 A  
HETATM   23 CL   UNL     1     -12.122  12.656  69.870  1.00  0.00    -0.356 Cl 
HETATM   24  C   UNL     1     -11.550  12.603  65.943  1.00  0.00    -0.443 A  
HETATM   25  C   UNL     1     -11.919  12.934  67.243  1.00  0.00    -0.371 A  
HETATM   26  C   UNL     1     -11.612  12.085  68.317  1.00  0.00    -0.334 A  
BRANCH  19  27
HETATM   27  C   UNL     1     -10.018   7.616  69.805  1.00  0.00    -0.184 A  
HETATM   28  C   UNL     1     -11.178   6.876  70.102  1.00  0.00    -0.361 A  
HETATM   29  C   UNL     1     -11.176   5.901  71.106  1.00  0.00    -0.281 A  
HETATM   30  C   UNL     1     -10.014   5.655  71.833  1.00  0.00    -0.223 A  
HETATM   31  C   UNL     1      -8.866   6.405  71.571  1.00  0.00    -0.137 A  
HETATM   32  C   UNL     1      -8.874   7.394  70.577  1.00  0.00    -0.148 A  
ENDBRANCH  19  27
ENDBRANCH   2  15
TORSDOF 4
ENDMDL
MODEL      110
REMARK 921   NORMALIZED FREE ENERGY PREDICTED BY IDOCK:   -5.84 KCAL/MOL
REMARK 922        TOTAL FREE ENERGY PREDICTED BY IDOCK:   -8.08 KCAL/MOL
REMARK 923 INTER-LIGAND FREE ENERGY PREDICTED BY IDOCK:   -7.24 KCAL/MOL
REMARK 924 INTRA-LIGAND FREE ENERGY PREDICTED BY IDOCK:   -0.84 KCAL/MOL
REMARK 927      BINDING AFFINITY PREDICTED BY RF-SCORE:    0.00 PKD
ROOT
HETATM    1  C   UNL     1      -9.072  10.390  68.838  1.00  0.00    -0.175 C  
HETATM    2  C   UNL     1      -9.792   9.672  67.698  1.00  0.00    -0.164 C  
ENDROOT
BRANCH   2   3
HETATM    3  N   UNL     1     -11.169  10.107  67.510  1.00  0.00    -0.433 NA 
HETATM    4  H   UNL     1     -11.941   9.452  67.633  1.00  0.00     0.000 HD 
BRANCH   3   5
HETATM    5  C   UNL     1     -11.416  11.432  67.159  1.00  0.00    -0.190 A  
HETATM    6  C   UNL     1     -11.506  13.222  65.590  1.00  0.00    -0.318 A  
HETATM    7  N   UNL     1     -11.947  14.147  66.453  1.00  0.00    -0.420 NA 
HETATM    8  C   UNL     1     -10.827  12.196  63.761  1.00  0.00    -0.432 A  
HETATM    9  H   UNL     1     -10.505  10.288  64.579  1.00  0.00     0.000 HD 
HETATM   10  N   UNL     1     -10.788  11.262  64.688  1.00  0.00    -0.299 NA 
HETATM   11  C   UNL     1     -12.088  13.612  67.681  1.00  0.00    -0.293 A  
HETATM   12  C   UNL     1     -11.213  11.893  65.842  1.00  0.00    -0.322 A  
HETATM   13  N   UNL     1     -11.262  13.395  64.260  1.00  0.00    -0.383 NA 
HETATM   14  N   UNL     1     -11.856  12.339  68.075  1.00  0.00    -0.430 NA 
ENDBRANCH   3   5
ENDBRANCH   2   3
BRANCH   2  15
HETATM   15  C   UNL     1      -9.744   8.136  67.631  1.00  0.00    -0.159 C  
HETATM   16  O   UNL     1     -10.308   5.019  69.362  1.00  0.00    -0.226 OA 
HETATM   17  C   UNL     1      -9.312   7.647  66.452  1.00  0.00    -0.228 C  
HETATM   18  C   UNL     1      -9.072   6.236  66.229  1.00  0.00    -0.166 A  
HETATM   19  N   UNL     1     -10.036   7.243  68.687  1.00  0.00    -0.171 N  
HETATM   20  C   UNL     1      -8.470   5.839  65.026  1.00  0.00    -0.124 A  
HETATM   21  C   UNL     1      -9.956   5.823  68.500  1.00  0.00    -0.154 C  
HETATM   22  C   UNL     1      -9.414   5.300  67.208  1.00  0.00    -0.134 A  
HETATM   23 CL   UNL     1      -9.599   2.636  67.998  1.00  0.00    -0.196 Cl 
HETATM   24  C   UNL     1      -8.206   4.498  64.783  1.00  0.00    -0.108 A  
HETATM   25  C   UNL     1      -8.574   3.551  65.733  1.00  0.00    -0.115 A  
HETATM   26  C   UNL     1      -9.184   3.939  66.937  1.00  0.00    -0.174 A  
BRANCH  19  27
HETATM   27  C   UNL     1     -10.385   7.646  70.025  1.00  0.00    -0.223 A  
HETATM   28  C   UNL     1     -11.735   7.897  70.332  1.00  0.00    -0.020 A  
HETATM   29  C   UNL     1     -12.125   8.281  71.620  1.00  0.00    -0.346 A  
HETATM   30  C   UNL     1     -11.167   8.427  72.621  1.00  0.00    -0.339 A  
HETATM   31  C   UNL     1      -9.819   8.213  72.321  1.00  0.00    -0.329 A  
HETATM   32  C   UNL     1      -9.429   7.845  71.025  1.00  0.00    -0.172 A  
ENDBRANCH  19  27
ENDBRANCH   2  15
TORSDOF 4
ENDMDL
MODEL      111
REMARK 921   NORMALIZED FREE ENERGY PREDICTED BY IDOCK:   -5.79 KCAL/MOL
REMARK 922        TOTAL FREE ENERGY PREDICTED BY IDOCK:   -8.01 KCAL/MOL
REMARK 923 INTER-LIGAND FREE ENERGY PREDICTED BY IDOCK:   -6.81 KCAL/MOL
REMARK 924 INTRA-LIGAND FREE ENERGY PREDICTED BY IDOCK:   -1.21 KCAL/MOL
REMARK 927      BINDING AFFINITY PREDICTED BY RF-SCORE:    0.00 PKD
ROOT
HETATM    1  C   UNL     1      -7.880   7.965  67.501  1.00  0.00    -0.122 C  
HETATM    2  C   UNL     1      -9.252   8.029  68.169  1.00  0.00    -0.133 C  
ENDROOT
BRANCH   2   3
HETATM    3  N   UNL     1     -10.247   7.164  67.549  1.00  0.00    -0.191 NA 
HETATM    4  H   UNL     1     -11.103   7.555  67.157  1.00  0.00     0.000 HD 
BRANCH   3   5
HETATM    5  C   UNL     1     -10.009   5.792  67.499  1.00  0.00    -0.148 A  
HETATM    6  C   UNL     1      -9.568   3.685  68.517  1.00  0.00    -0.094 A  
HETATM    7  N   UNL     1      -9.546   2.978  67.380  1.00  0.00    -0.101 NA 
HETATM    8  C   UNL     1      -9.499   4.265  70.643  1.00  0.00    -0.171 A  
HETATM    9  H   UNL     1      -9.842   6.325  70.412  1.00  0.00     0.000 HD 
HETATM   10  N   UNL     1      -9.727   5.395  70.007  1.00  0.00    -0.170 NA 
HETATM   11  C   UNL     1      -9.762   3.785  66.323  1.00  0.00    -0.121 A  
HETATM   12  C   UNL     1      -9.773   5.045  68.671  1.00  0.00    -0.158 A  
HETATM   13  N   UNL     1      -9.403   3.204  69.782  1.00  0.00    -0.155 NA 
HETATM   14  N   UNL     1      -9.989   5.118  66.316  1.00  0.00    -0.190 NA 
ENDBRANCH   3   5
ENDBRANCH   2   3
BRANCH   2  15
HETATM   15  C   UNL     1      -9.891   9.403  68.439  1.00  0.00    -0.160 C  
HETATM   16  O   UNL     1     -11.544  11.550  70.824  1.00  0.00    -0.076 OA 
HETATM   17  C   UNL     1      -9.878  10.235  67.379  1.00  0.00    -0.214 C  
HETATM   18  C   UNL     1     -10.542  11.523  67.385  1.00  0.00    -0.252 A  
HETATM   19  N   UNL     1     -10.525   9.811  69.634  1.00  0.00    -0.225 N  
HETATM   20  C   UNL     1     -10.613  12.248  66.186  1.00  0.00    -0.281 A  
HETATM   21  C   UNL     1     -11.084  11.126  69.764  1.00  0.00    -0.202 C  
HETATM   22  C   UNL     1     -11.118  12.012  68.560  1.00  0.00    -0.289 A  
HETATM   23 CL   UNL     1     -12.440  14.073  69.888  1.00  0.00    -0.358 Cl 
HETATM   24  C   UNL     1     -11.257  13.477  66.148  1.00  0.00    -0.306 A  
HETATM   25  C   UNL     1     -11.804  13.993  67.318  1.00  0.00    -0.445 A  
HETATM   26  C   UNL     1     -11.731  13.278  68.523  1.00  0.00    -0.352 A  
BRANCH  19  27
HETATM   27  C   UNL     1     -10.712   8.971  70.788  1.00  0.00    -0.241 A  
HETATM   28  C   UNL     1      -9.710   8.932  71.775  1.00  0.00    -0.365 A  
HETATM   29  C   UNL     1      -9.851   8.138  72.919  1.00  0.00    -0.339 A  
HETATM   30  C   UNL     1     -10.996   7.363  73.089  1.00  0.00    -0.408 A  
HETATM   31  C   UNL     1     -11.983   7.367  72.101  1.00  0.00    -0.307 A  
HETATM   32  C   UNL     1     -11.832   8.150  70.948  1.00  0.00    -0.232 A  
ENDBRANCH  19  27
ENDBRANCH   2  15
TORSDOF 4
ENDMDL
MODEL      112
REMARK 921   NORMALIZED FREE ENERGY PREDICTED BY IDOCK:   -5.78 KCAL/MOL
REMARK 922        TOTAL FREE ENERGY PREDICTED BY IDOCK:   -8.00 KCAL/MOL
REMARK 923 INTER-LIGAND FREE ENERGY PREDICTED BY IDOCK:   -7.02 KCAL/MOL
REMARK 924 INTRA-LIGAND FREE ENERGY PREDICTED BY IDOCK:   -0.98 KCAL/MOL
REMARK 927      BINDING AFFINITY PREDICTED BY RF-SCORE:    0.00 PKD
ROOT
HETATM    1  C   UNL     1     -12.229  11.803  68.960  1.00  0.00    -0.132 C  
HETATM    2  C   UNL     1     -10.963  12.329  68.286  1.00  0.00    -0.232 C  
ENDROOT
BRANCH   2   3
HETATM    3  N   UNL     1      -9.742  12.038  69.025  1.00  0.00    -0.404 NA 
HETATM    4  H   UNL     1      -9.786  11.647  69.966  1.00  0.00     0.000 HD 
BRANCH   3   5
HETATM    5  C   UNL     1      -8.512  12.302  68.426  1.00  0.00    -0.138 A  
HETATM    6  C   UNL     1      -6.709  11.755  66.970  1.00  0.00    -0.139 A  
HETATM    7  N   UNL     1      -6.002  12.870  67.191  1.00  0.00    -0.299 NA 
HETATM    8  C   UNL     1      -7.381   9.799  66.205  1.00  0.00    -0.099 A  
HETATM    9  H   UNL     1      -9.183   9.652  67.277  1.00  0.00     0.000 HD 
HETATM   10  N   UNL     1      -8.332  10.163  67.040  1.00  0.00    -0.125 NA 
HETATM   11  C   UNL     1      -6.640  13.661  68.076  1.00  0.00    -0.136 A  
HETATM   12  C   UNL     1      -7.923  11.391  67.527  1.00  0.00    -0.127 A  
HETATM   13  N   UNL     1      -6.384  10.734  66.126  1.00  0.00    -0.127 NA 
HETATM   14  N   UNL     1      -7.827  13.448  68.689  1.00  0.00    -0.111 NA 
ENDBRANCH   3   5
ENDBRANCH   2   3
BRANCH   2  15
HETATM   15  C   UNL     1     -10.919  13.793  67.814  1.00  0.00    -0.256 C  
HETATM   16  O   UNL     1     -11.049  16.069  65.016  1.00  0.00    -0.390 OA 
HETATM   17  C   UNL     1     -10.763  14.689  68.808  1.00  0.00    -0.252 C  
HETATM   18  C   UNL     1     -10.568  16.104  68.565  1.00  0.00    -0.284 A  
HETATM   19  N   UNL     1     -10.956  14.242  66.474  1.00  0.00    -0.311 N  
HETATM   20  C   UNL     1     -10.252  16.935  69.650  1.00  0.00    -0.050 A  
HETATM   21  C   UNL     1     -10.909  15.641  66.161  1.00  0.00    -0.264 C  
HETATM   22  C   UNL     1     -10.671  16.616  67.269  1.00  0.00    -0.227 A  
HETATM   23 CL   UNL     1     -10.650  18.822  65.570  1.00  0.00    -0.244 Cl 
HETATM   24  C   UNL     1     -10.039  18.292  69.455  1.00  0.00     0.079 A  
HETATM   25  C   UNL     1     -10.174  18.823  68.175  1.00  0.00    -0.433 A  
HETATM   26  C   UNL     1     -10.497  18.000  67.085  1.00  0.00    -0.367 A  
BRANCH  19  27
HETATM   27  C   UNL     1     -10.996  13.377  65.324  1.00  0.00    -0.295 A  
HETATM   28  C   UNL     1      -9.789  12.867  64.812  1.00  0.00    -0.045 A  
HETATM   29  C   UNL     1      -9.777  12.015  63.701  1.00  0.00    -0.218 A  
HETATM   30  C   UNL     1     -10.974  11.666  63.081  1.00  0.00    -0.247 A  
HETATM   31  C   UNL     1     -12.176  12.192  63.559  1.00  0.00    -0.670 A  
HETATM   32  C   UNL     1     -12.185  13.060  64.661  1.00  0.00    -0.477 A  
ENDBRANCH  19  27
ENDBRANCH   2  15
TORSDOF 4
ENDMDL
MODEL      113
REMARK 921   NORMALIZED FREE ENERGY PREDICTED BY IDOCK:   -5.77 KCAL/MOL
REMARK 922        TOTAL FREE ENERGY PREDICTED BY IDOCK:   -7.99 KCAL/MOL
REMARK 923 INTER-LIGAND FREE ENERGY PREDICTED BY IDOCK:   -6.70 KCAL/MOL
REMARK 924 INTRA-LIGAND FREE ENERGY PREDICTED BY IDOCK:   -1.28 KCAL/MOL
REMARK 927      BINDING AFFINITY PREDICTED BY RF-SCORE:    0.00 PKD
ROOT
HETATM    1  C   UNL     1     -11.707  12.271  69.419  1.00  0.00    -0.392 C  
HETATM    2  C   UNL     1     -10.491  12.210  68.496  1.00  0.00    -0.233 C  
ENDROOT
BRANCH   2   3
HETATM    3  N   UNL     1      -9.447  11.308  68.962  1.00  0.00    -0.398 NA 
HETATM    4  H   UNL     1      -8.976  11.475  69.850  1.00  0.00     0.000 HD 
BRANCH   3   5
HETATM    5  C   UNL     1      -9.103  10.212  68.174  1.00  0.00    -0.128 A  
HETATM    6  C   UNL     1      -7.529   8.859  67.005  1.00  0.00    -0.087 A  
HETATM    7  N   UNL     1      -8.413   7.948  66.577  1.00  0.00    -0.128 NA 
HETATM    8  C   UNL     1      -5.665   9.968  67.400  1.00  0.00    -0.046 A  
HETATM    9  H   UNL     1      -6.475  11.536  68.540  1.00  0.00     0.000 HD 
HETATM   10  N   UNL     1      -6.595  10.673  68.009  1.00  0.00    -0.063 NA 
HETATM   11  C   UNL     1      -9.652   8.264  66.999  1.00  0.00    -0.191 A  
HETATM   12  C   UNL     1      -7.771   9.987  67.770  1.00  0.00    -0.090 A  
HETATM   13  N   UNL     1      -6.184   8.859  66.786  1.00  0.00    -0.058 NA 
HETATM   14  N   UNL     1     -10.040   9.316  67.756  1.00  0.00    -0.191 NA 
ENDBRANCH   3   5
ENDBRANCH   2   3
BRANCH   2  15
HETATM   15  C   UNL     1      -9.839  13.524  68.030  1.00  0.00    -0.238 C  
HETATM   16  O   UNL     1      -9.546  15.986  65.408  1.00  0.00    -0.409 OA 
HETATM   17  C   UNL     1      -8.985  14.063  68.922  1.00  0.00     0.059 C  
HETATM   18  C   UNL     1      -8.172  15.225  68.626  1.00  0.00    -0.159 A  
HETATM   19  N   UNL     1     -10.004  14.139  66.768  1.00  0.00    -0.260 N  
HETATM   20  C   UNL     1      -7.197  15.617  69.555  1.00  0.00    -0.198 A  
HETATM   21  C   UNL     1      -9.339  15.370  66.452  1.00  0.00    -0.299 C  
HETATM   22  C   UNL     1      -8.347  15.920  67.427  1.00  0.00    -0.192 A  
HETATM   23 CL   UNL     1      -7.669  18.076  65.800  1.00  0.00    -0.111 Cl 
HETATM   24  C   UNL     1      -6.386  16.714  69.299  1.00  0.00    -0.202 A  
HETATM   25  C   UNL     1      -6.573  17.437  68.125  1.00  0.00    -0.166 A  
HETATM   26  C   UNL     1      -7.551  17.056  67.194  1.00  0.00    -0.174 A  
BRANCH  19  27
HETATM   27  C   UNL     1     -10.789  13.595  65.691  1.00  0.00    -0.279 A  
HETATM   28  C   UNL     1     -10.137  12.903  64.653  1.00  0.00    -0.254 A  
HETATM   29  C   UNL     1     -10.857  12.347  63.590  1.00  0.00    -0.509 A  
HETATM   30  C   UNL     1     -12.243  12.482  63.544  1.00  0.00    -0.652 A  
HETATM   31  C   UNL     1     -12.899  13.195  64.550  1.00  0.00    -0.173 A  
HETATM   32  C   UNL     1     -12.173  13.766  65.606  1.00  0.00    -0.484 A  
ENDBRANCH  19  27
ENDBRANCH   2  15
TORSDOF 4
ENDMDL
MODEL      114
REMARK 921   NORMALIZED FREE ENERGY PREDICTED BY IDOCK:   -5.76 KCAL/MOL
REMARK 922        TOTAL FREE ENERGY PREDICTED BY IDOCK:   -7.98 KCAL/MOL
REMARK 923 INTER-LIGAND FREE ENERGY PREDICTED BY IDOCK:   -7.07 KCAL/MOL
REMARK 924 INTRA-LIGAND FREE ENERGY PREDICTED BY IDOCK:   -0.91 KCAL/MOL
REMARK 927      BINDING AFFINITY PREDICTED BY RF-SCORE:    0.00 PKD
ROOT
HETATM    1  C   UNL     1      -7.663   7.340  67.460  1.00  0.00    -0.111 C  
HETATM    2  C   UNL     1      -9.179   7.517  67.385  1.00  0.00    -0.132 C  
ENDROOT
BRANCH   2   3
HETATM    3  N   UNL     1      -9.806   6.741  66.323  1.00  0.00    -0.404 NA 
HETATM    4  H   UNL     1     -10.680   7.054  65.900  1.00  0.00     0.000 HD 
BRANCH   3   5
HETATM    5  C   UNL     1      -9.193   5.566  65.894  1.00  0.00    -0.147 A  
HETATM    6  C   UNL     1      -8.598   3.275  66.156  1.00  0.00    -0.121 A  
HETATM    7  N   UNL     1      -7.951   3.161  64.989  1.00  0.00    -0.082 NA 
HETATM    8  C   UNL     1      -9.504   2.840  68.117  1.00  0.00    -0.157 A  
HETATM    9  H   UNL     1     -10.297   4.743  68.521  1.00  0.00     0.000 HD 
HETATM   10  N   UNL     1      -9.781   4.110  67.909  1.00  0.00    -0.139 NA 
HETATM   11  C   UNL     1      -7.967   4.335  64.327  1.00  0.00    -0.090 A  
HETATM   12  C   UNL     1      -9.219   4.396  66.679  1.00  0.00    -0.137 A  
HETATM   13  N   UNL     1      -8.796   2.293  67.080  1.00  0.00    -0.125 NA 
HETATM   14  N   UNL     1      -8.539   5.502  64.702  1.00  0.00    -0.111 NA 
ENDBRANCH   3   5
ENDBRANCH   2   3
BRANCH   2  15
HETATM   15  C   UNL     1      -9.768   8.938  67.375  1.00  0.00    -0.176 C  
HETATM   16  O   UNL     1     -10.983  11.717  69.331  1.00  0.00    -0.211 OA 
HETATM   17  C   UNL     1      -9.949   9.451  66.143  1.00  0.00    -0.351 C  
HETATM   18  C   UNL     1     -10.610  10.720  65.911  1.00  0.00    -0.216 A  
HETATM   19  N   UNL     1     -10.181   9.681  68.504  1.00  0.00    -0.185 N  
HETATM   20  C   UNL     1     -10.899  11.096  64.591  1.00  0.00    -0.295 A  
HETATM   21  C   UNL     1     -10.717  11.004  68.364  1.00  0.00    -0.203 C  
HETATM   22  C   UNL     1     -10.971  11.532  66.989  1.00  0.00    -0.347 A  
HETATM   23 CL   UNL     1     -12.049  13.930  67.911  1.00  0.00    -0.377 Cl 
HETATM   24  C   UNL     1     -11.548  12.295  64.330  1.00  0.00    -0.428 A  
HETATM   25  C   UNL     1     -11.881  13.132  65.391  1.00  0.00    -0.410 A  
HETATM   26  C   UNL     1     -11.590  12.766  66.715  1.00  0.00    -0.370 A  
BRANCH  19  27
HETATM   27  C   UNL     1     -10.154   9.192  69.858  1.00  0.00    -0.202 A  
HETATM   28  C   UNL     1     -11.350   8.736  70.444  1.00  0.00    -0.213 A  
HETATM   29  C   UNL     1     -11.372   8.243  71.753  1.00  0.00    -0.350 A  
HETATM   30  C   UNL     1     -10.197   8.204  72.501  1.00  0.00    -0.383 A  
HETATM   31  C   UNL     1      -9.010   8.684  71.942  1.00  0.00    -0.301 A  
HETATM   32  C   UNL     1      -8.993   9.194  70.636  1.00  0.00    -0.292 A  
ENDBRANCH  19  27
ENDBRANCH   2  15
TORSDOF 4
ENDMDL
MODEL      115
REMARK 921   NORMALIZED FREE ENERGY PREDICTED BY IDOCK:   -5.75 KCAL/MOL
REMARK 922        TOTAL FREE ENERGY PREDICTED BY IDOCK:   -7.97 KCAL/MOL
REMARK 923 INTER-LIGAND FREE ENERGY PREDICTED BY IDOCK:   -7.12 KCAL/MOL
REMARK 924 INTRA-LIGAND FREE ENERGY PREDICTED BY IDOCK:   -0.85 KCAL/MOL
REMARK 927      BINDING AFFINITY PREDICTED BY RF-SCORE:    0.00 PKD
ROOT
HETATM    1  C   UNL     1      -9.056   9.713  66.497  1.00  0.00    -0.185 C  
HETATM    2  C   UNL     1     -10.344   9.088  67.031  1.00  0.00    -0.269 C  
ENDROOT
BRANCH   2   3
HETATM    3  N   UNL     1     -11.395  10.058  67.308  1.00  0.00    -0.333 NA 
HETATM    4  H   UNL     1     -12.306   9.752  67.649  1.00  0.00     0.000 HD 
BRANCH   3   5
HETATM    5  C   UNL     1     -11.136  11.410  67.098  1.00  0.00    -0.305 A  
HETATM    6  C   UNL     1     -11.121  13.376  65.753  1.00  0.00    -0.282 A  
HETATM    7  N   UNL     1     -10.620  14.189  66.693  1.00  0.00    -0.276 NA 
HETATM    8  C   UNL     1     -11.946  12.587  63.868  1.00  0.00    -0.480 A  
HETATM    9  H   UNL     1     -12.196  10.585  64.454  1.00  0.00     0.000 HD 
HETATM   10  N   UNL     1     -11.909  11.541  64.666  1.00  0.00    -0.013 NA 
HETATM   11  C   UNL     1     -10.392  13.504  67.831  1.00  0.00    -0.249 A  
HETATM   12  C   UNL     1     -11.393  12.023  65.855  1.00  0.00    -0.337 A  
HETATM   13  N   UNL     1     -11.486  13.719  64.486  1.00  0.00    -0.374 NA 
HETATM   14  N   UNL     1     -10.618  12.195  68.083  1.00  0.00    -0.208 NA 
ENDBRANCH   3   5
ENDBRANCH   2   3
BRANCH   2  15
HETATM   15  C   UNL     1     -10.264   8.096  68.205  1.00  0.00    -0.209 C  
HETATM   16  O   UNL     1      -9.572   4.714  69.259  1.00  0.00    -0.150 OA 
HETATM   17  C   UNL     1     -10.574   8.631  69.401  1.00  0.00    -0.207 C  
HETATM   18  C   UNL     1     -10.685   7.840  70.610  1.00  0.00    -0.233 A  
HETATM   19  N   UNL     1      -9.974   6.716  68.116  1.00  0.00    -0.142 N  
HETATM   20  C   UNL     1     -11.170   8.454  71.774  1.00  0.00    -0.360 A  
HETATM   21  C   UNL     1      -9.928   5.892  69.289  1.00  0.00    -0.174 C  
HETATM   22  C   UNL     1     -10.337   6.486  70.599  1.00  0.00    -0.239 A  
HETATM   23 CL   UNL     1      -9.994   4.102  71.997  1.00  0.00    -0.244 Cl 
HETATM   24  C   UNL     1     -11.309   7.724  72.946  1.00  0.00    -0.406 A  
HETATM   25  C   UNL     1     -10.932   6.384  72.960  1.00  0.00    -0.269 A  
HETATM   26  C   UNL     1     -10.438   5.763  71.802  1.00  0.00    -0.228 A  
BRANCH  19  27
HETATM   27  C   UNL     1      -9.750   6.006  66.884  1.00  0.00    -0.148 A  
HETATM   28  C   UNL     1     -10.783   5.210  66.356  1.00  0.00    -0.275 A  
HETATM   29  C   UNL     1     -10.616   4.509  65.157  1.00  0.00    -0.132 A  
HETATM   30  C   UNL     1      -9.408   4.588  64.468  1.00  0.00    -0.114 A  
HETATM   31  C   UNL     1      -8.363   5.348  64.998  1.00  0.00    -0.145 A  
HETATM   32  C   UNL     1      -8.526   6.036  66.209  1.00  0.00    -0.130 A  
ENDBRANCH  19  27
ENDBRANCH   2  15
TORSDOF 4
ENDMDL
MODEL      116
REMARK 921   NORMALIZED FREE ENERGY PREDICTED BY IDOCK:   -5.73 KCAL/MOL
REMARK 922        TOTAL FREE ENERGY PREDICTED BY IDOCK:   -7.94 KCAL/MOL
REMARK 923 INTER-LIGAND FREE ENERGY PREDICTED BY IDOCK:   -7.05 KCAL/MOL
REMARK 924 INTRA-LIGAND FREE ENERGY PREDICTED BY IDOCK:   -0.89 KCAL/MOL
REMARK 927      BINDING AFFINITY PREDICTED BY RF-SCORE:    0.00 PKD
ROOT
HETATM    1  C   UNL     1      -9.441   9.944  69.921  1.00  0.00    -0.256 C  
HETATM    2  C   UNL     1      -9.975   9.799  68.497  1.00  0.00    -0.160 C  
ENDROOT
BRANCH   2   3
HETATM    3  N   UNL     1     -11.365  10.210  68.349  1.00  0.00    -0.508 NA 
HETATM    4  H   UNL     1     -12.122   9.583  68.622  1.00  0.00     0.000 HD 
BRANCH   3   5
HETATM    5  C   UNL     1     -11.643  11.472  67.830  1.00  0.00    -0.282 A  
HETATM    6  C   UNL     1     -11.975  13.821  68.046  1.00  0.00    -0.355 A  
HETATM    7  N   UNL     1     -12.193  14.055  66.745  1.00  0.00    -0.438 NA 
HETATM    8  C   UNL     1     -11.694  14.075  70.218  1.00  0.00    -0.238 A  
HETATM    9  H   UNL     1     -11.337  12.066  70.720  1.00  0.00     0.000 HD 
HETATM   10  N   UNL     1     -11.540  12.782  70.021  1.00  0.00    -0.188 NA 
HETATM   11  C   UNL     1     -12.124  12.906  66.045  1.00  0.00    -0.422 A  
HETATM   12  C   UNL     1     -11.712  12.609  68.661  1.00  0.00    -0.325 A  
HETATM   13  N   UNL     1     -11.952  14.742  69.050  1.00  0.00    -0.295 NA 
HETATM   14  N   UNL     1     -11.866  11.659  66.500  1.00  0.00    -0.440 NA 
ENDBRANCH   3   5
ENDBRANCH   2   3
BRANCH   2  15
HETATM   15  C   UNL     1      -9.769   8.469  67.752  1.00  0.00    -0.162 C  
HETATM   16  O   UNL     1     -10.033   4.871  67.865  1.00  0.00    -0.158 OA 
HETATM   17  C   UNL     1      -9.275   8.606  66.506  1.00  0.00    -0.236 C  
HETATM   18  C   UNL     1      -8.888   7.474  65.688  1.00  0.00    -0.072 A  
HETATM   19  N   UNL     1      -9.982   7.174  68.276  1.00  0.00    -0.152 N  
HETATM   20  C   UNL     1      -8.233   7.717  64.471  1.00  0.00    -0.060 A  
HETATM   21  C   UNL     1      -9.754   6.005  67.477  1.00  0.00    -0.116 C  
HETATM   22  C   UNL     1      -9.145   6.171  66.121  1.00  0.00    -0.158 A  
HETATM   23 CL   UNL     1      -9.067   3.433  65.620  1.00  0.00    -0.146 Cl 
HETATM   24  C   UNL     1      -7.831   6.659  63.668  1.00  0.00    -0.109 A  
HETATM   25  C   UNL     1      -8.112   5.357  64.070  1.00  0.00    -0.123 A  
HETATM   26  C   UNL     1      -8.774   5.105  65.282  1.00  0.00    -0.150 A  
BRANCH  19  27
HETATM   27  C   UNL     1     -10.388   6.897  69.629  1.00  0.00    -0.206 A  
HETATM   28  C   UNL     1      -9.403   6.604  70.591  1.00  0.00    -0.164 A  
HETATM   29  C   UNL     1      -9.748   6.338  71.921  1.00  0.00    -0.166 A  
HETATM   30  C   UNL     1     -11.086   6.355  72.309  1.00  0.00    -0.302 A  
HETATM   31  C   UNL     1     -12.075   6.612  71.357  1.00  0.00    -0.400 A  
HETATM   32  C   UNL     1     -11.729   6.861  70.021  1.00  0.00    -0.261 A  
ENDBRANCH  19  27
ENDBRANCH   2  15
TORSDOF 4
ENDMDL
MODEL      117
REMARK 921   NORMALIZED FREE ENERGY PREDICTED BY IDOCK:   -5.73 KCAL/MOL
REMARK 922        TOTAL FREE ENERGY PREDICTED BY IDOCK:   -7.94 KCAL/MOL
REMARK 923 INTER-LIGAND FREE ENERGY PREDICTED BY IDOCK:   -7.43 KCAL/MOL
REMARK 924 INTRA-LIGAND FREE ENERGY PREDICTED BY IDOCK:   -0.51 KCAL/MOL
REMARK 927      BINDING AFFINITY PREDICTED BY RF-SCORE:    0.00 PKD
ROOT
HETATM    1  C   UNL     1      -8.559   8.045  68.924  1.00  0.00    -0.131 C  
HETATM    2  C   UNL     1     -10.046   8.335  69.119  1.00  0.00    -0.202 C  
ENDROOT
BRANCH   2   3
HETATM    3  N   UNL     1     -10.919   7.468  68.337  1.00  0.00    -0.431 NA 
HETATM    4  H   UNL     1     -11.867   7.762  68.104  1.00  0.00     0.000 HD 
BRANCH   3   5
HETATM    5  C   UNL     1     -10.437   6.232  67.914  1.00  0.00    -0.230 A  
HETATM    6  C   UNL     1      -9.645   4.022  68.314  1.00  0.00    -0.125 A  
HETATM    7  N   UNL     1      -9.470   3.697  67.026  1.00  0.00    -0.199 NA 
HETATM    8  C   UNL     1      -9.730   3.950  70.515  1.00  0.00    -0.177 A  
HETATM    9  H   UNL     1     -10.434   5.899  70.861  1.00  0.00     0.000 HD 
HETATM   10  N   UNL     1     -10.143   5.164  70.216  1.00  0.00    -0.247 NA 
HETATM   11  C   UNL     1      -9.805   4.732  66.233  1.00  0.00    -0.220 A  
HETATM   12  C   UNL     1     -10.096   5.222  68.836  1.00  0.00    -0.184 A  
HETATM   13  N   UNL     1      -9.425   3.223  69.396  1.00  0.00    -0.165 NA 
HETATM   14  N   UNL     1     -10.269   5.951  66.592  1.00  0.00    -0.201 NA 
ENDBRANCH   3   5
ENDBRANCH   2   3
BRANCH   2  15
HETATM   15  C   UNL     1     -10.550   9.784  68.996  1.00  0.00    -0.219 C  
HETATM   16  O   UNL     1     -10.517  12.840  67.076  1.00  0.00    -0.235 OA 
HETATM   17  C   UNL     1     -11.359  10.174  70.001  1.00  0.00    -0.351 C  
HETATM   18  C   UNL     1     -11.834  11.535  70.141  1.00  0.00    -0.440 A  
HETATM   19  N   UNL     1     -10.186  10.714  67.996  1.00  0.00    -0.169 N  
HETATM   20  C   UNL     1     -12.536  11.885  71.304  1.00  0.00    -0.383 A  
HETATM   21  C   UNL     1     -10.727  12.043  67.990  1.00  0.00    -0.212 C  
HETATM   22  C   UNL     1     -11.571  12.479  69.145  1.00  0.00    -0.375 A  
HETATM   23 CL   UNL     1     -11.903  15.064  68.162  1.00  0.00    -0.335 Cl 
HETATM   24  C   UNL     1     -12.991  13.185  71.483  1.00  0.00    -0.412 A  
HETATM   25  C   UNL     1     -12.768  14.126  70.483  1.00  0.00    -0.374 A  
HETATM   26  C   UNL     1     -12.073  13.783  69.314  1.00  0.00    -0.329 A  
BRANCH  19  27
HETATM   27  C   UNL     1      -9.236  10.456  66.946  1.00  0.00    -0.150 A  
HETATM   28  C   UNL     1      -9.656   9.748  65.804  1.00  0.00    -0.318 A  
HETATM   29  C   UNL     1      -8.772   9.481  64.753  1.00  0.00    -0.225 A  
HETATM   30  C   UNL     1      -7.450   9.912  64.831  1.00  0.00    -0.135 A  
HETATM   31  C   UNL     1      -7.012  10.587  65.973  1.00  0.00    -0.134 A  
HETATM   32  C   UNL     1      -7.895  10.838  67.033  1.00  0.00    -0.121 A  
ENDBRANCH  19  27
ENDBRANCH   2  15
TORSDOF 4
ENDMDL
MODEL      118
REMARK 921   NORMALIZED FREE ENERGY PREDICTED BY IDOCK:   -5.71 KCAL/MOL
REMARK 922        TOTAL FREE ENERGY PREDICTED BY IDOCK:   -7.92 KCAL/MOL
REMARK 923 INTER-LIGAND FREE ENERGY PREDICTED BY IDOCK:   -7.61 KCAL/MOL
REMARK 924 INTRA-LIGAND FREE ENERGY PREDICTED BY IDOCK:   -0.31 KCAL/MOL
REMARK 927      BINDING AFFINITY PREDICTED BY RF-SCORE:    0.00 PKD
ROOT
HETATM    1  C   UNL     1     -10.216  15.554  69.876  1.00  0.00    -0.305 C  
HETATM    2  C   UNL     1     -10.625  14.779  68.624  1.00  0.00    -0.255 C  
ENDROOT
BRANCH   2   3
HETATM    3  N   UNL     1     -11.984  14.258  68.676  1.00  0.00    -0.459 NA 
HETATM    4  H   UNL     1     -12.499  14.068  67.817  1.00  0.00     0.000 HD 
BRANCH   3   5
HETATM    5  C   UNL     1     -12.569  14.024  69.918  1.00  0.00    -0.142 A  
HETATM    6  C   UNL     1     -13.173  12.611  71.738  1.00  0.00    -0.359 A  
HETATM    7  N   UNL     1     -13.753  13.566  72.476  1.00  0.00    -0.708 NA 
HETATM    8  C   UNL     1     -12.378  10.678  71.036  1.00  0.00    -0.403 A  
HETATM    9  H   UNL     1     -11.613  11.314  69.185  1.00  0.00     0.000 HD 
HETATM   10  N   UNL     1     -12.092  11.518  70.062  1.00  0.00    -0.330 NA 
HETATM   11  C   UNL     1     -13.701  14.749  71.833  1.00  0.00    -0.419 A  
HETATM   12  C   UNL     1     -12.585  12.736  70.491  1.00  0.00    -0.114 A  
HETATM   13  N   UNL     1     -13.024  11.298  72.072  1.00  0.00    -0.389 NA 
HETATM   14  N   UNL     1     -13.154  15.028  70.628  1.00  0.00    -0.348 NA 
ENDBRANCH   3   5
ENDBRANCH   2   3
BRANCH   2  15
HETATM   15  C   UNL     1      -9.693  13.679  68.087  1.00  0.00    -0.229 C  
HETATM   16  O   UNL     1      -6.328  12.758  67.160  1.00  0.00    -0.227 OA 
HETATM   17  C   UNL     1     -10.314  12.517  67.808  1.00  0.00    -0.224 C  
HETATM   18  C   UNL     1      -9.643  11.401  67.174  1.00  0.00    -0.193 A  
HETATM   19  N   UNL     1      -8.313  13.813  67.809  1.00  0.00    -0.165 N  
HETATM   20  C   UNL     1     -10.408  10.294  66.775  1.00  0.00    -0.288 A  
HETATM   21  C   UNL     1      -7.549  12.707  67.308  1.00  0.00    -0.120 C  
HETATM   22  C   UNL     1      -8.265  11.446  66.945  1.00  0.00    -0.157 A  
HETATM   23 CL   UNL     1      -5.956  10.177  66.044  1.00  0.00    -0.073 Cl 
HETATM   24  C   UNL     1      -9.804   9.214  66.147  1.00  0.00    -0.363 A  
HETATM   25  C   UNL     1      -8.427   9.230  65.945  1.00  0.00    -0.141 A  
HETATM   26  C   UNL     1      -7.653  10.329  66.347  1.00  0.00    -0.117 A  
BRANCH  19  27
HETATM   27  C   UNL     1      -7.567  15.036  67.946  1.00  0.00    -0.139 A  
HETATM   28  C   UNL     1      -7.596  15.975  66.898  1.00  0.00    -0.268 A  
HETATM   29  C   UNL     1      -6.895  17.183  66.989  1.00  0.00    -0.228 A  
HETATM   30  C   UNL     1      -6.147  17.467  68.130  1.00  0.00    -0.164 A  
HETATM   31  C   UNL     1      -6.084  16.530  69.163  1.00  0.00    -0.162 A  
HETATM   32  C   UNL     1      -6.773  15.312  69.062  1.00  0.00    -0.122 A  
ENDBRANCH  19  27
ENDBRANCH   2  15
TORSDOF 4
ENDMDL
MODEL      119
REMARK 921   NORMALIZED FREE ENERGY PREDICTED BY IDOCK:   -5.69 KCAL/MOL
REMARK 922        TOTAL FREE ENERGY PREDICTED BY IDOCK:   -7.89 KCAL/MOL
REMARK 923 INTER-LIGAND FREE ENERGY PREDICTED BY IDOCK:   -6.58 KCAL/MOL
REMARK 924 INTRA-LIGAND FREE ENERGY PREDICTED BY IDOCK:   -1.31 KCAL/MOL
REMARK 927      BINDING AFFINITY PREDICTED BY RF-SCORE:    0.00 PKD
ROOT
HETATM    1  C   UNL     1     -10.761   7.107  67.250  1.00  0.00    -0.399 C  
HETATM    2  C   UNL     1     -10.341   8.177  68.256  1.00  0.00    -0.197 C  
ENDROOT
BRANCH   2   3
HETATM    3  N   UNL     1      -9.613   9.289  67.658  1.00  0.00    -0.139 NA 
HETATM    4  H   UNL     1      -8.708   9.136  67.213  1.00  0.00     0.000 HD 
BRANCH   3   5
HETATM    5  C   UNL     1     -10.172  10.563  67.704  1.00  0.00    -0.197 A  
HETATM    6  C   UNL     1     -10.030  12.939  67.621  1.00  0.00    -0.218 A  
HETATM    7  N   UNL     1     -11.340  13.167  67.779  1.00  0.00    -0.273 NA 
HETATM    8  C   UNL     1      -7.861  13.207  67.326  1.00  0.00    -0.117 A  
HETATM    9  H   UNL     1      -7.296  11.184  67.333  1.00  0.00     0.000 HD 
HETATM   10  N   UNL     1      -8.018  11.902  67.398  1.00  0.00    -0.153 NA 
HETATM   11  C   UNL     1     -12.006  12.003  67.905  1.00  0.00    -0.134 A  
HETATM   12  C   UNL     1      -9.376  11.720  67.582  1.00  0.00    -0.180 A  
HETATM   13  N   UNL     1      -9.052  13.873  67.448  1.00  0.00    -0.207 NA 
HETATM   14  N   UNL     1     -11.511  10.745  67.875  1.00  0.00    -0.486 NA 
ENDBRANCH   3   5
ENDBRANCH   2   3
BRANCH   2  15
HETATM   15  C   UNL     1      -9.620   7.750  69.547  1.00  0.00    -0.160 C  
HETATM   16  O   UNL     1      -9.876   7.179  73.101  1.00  0.00    -0.174 OA 
HETATM   17  C   UNL     1      -8.321   7.438  69.375  1.00  0.00    -0.132 C  
HETATM   18  C   UNL     1      -7.434   7.137  70.481  1.00  0.00    -0.087 A  
HETATM   19  N   UNL     1     -10.173   7.732  70.847  1.00  0.00    -0.199 N  
HETATM   20  C   UNL     1      -6.064   6.983  70.222  1.00  0.00    -0.024 A  
HETATM   21  C   UNL     1      -9.395   7.311  71.976  1.00  0.00    -0.133 C  
HETATM   22  C   UNL     1      -7.940   7.029  71.779  1.00  0.00    -0.099 A  
HETATM   23 CL   UNL     1      -7.494   6.476  74.472  1.00  0.00    -0.099 Cl 
HETATM   24  C   UNL     1      -5.181   6.713  71.258  1.00  0.00    -0.026 A  
HETATM   25  C   UNL     1      -5.674   6.568  72.550  1.00  0.00    -0.038 A  
HETATM   26  C   UNL     1      -7.045   6.713  72.818  1.00  0.00    -0.080 A  
BRANCH  19  27
HETATM   27  C   UNL     1     -11.507   8.162  71.174  1.00  0.00    -0.276 A  
HETATM   28  C   UNL     1     -12.540   7.208  71.223  1.00  0.00    -0.421 A  
HETATM   29  C   UNL     1     -13.851   7.576  71.545  1.00  0.00    -0.487 A  
HETATM   30  C   UNL     1     -14.151   8.909  71.817  1.00  0.00    -0.426 A  
HETATM   31  C   UNL     1     -13.142   9.871  71.739  1.00  0.00    -0.553 A  
HETATM   32  C   UNL     1     -11.832   9.503  71.399  1.00  0.00    -0.464 A  
ENDBRANCH  19  27
ENDBRANCH   2  15
TORSDOF 4
ENDMDL
MODEL      120
REMARK 921   NORMALIZED FREE ENERGY PREDICTED BY IDOCK:   -5.68 KCAL/MOL
REMARK 922        TOTAL FREE ENERGY PREDICTED BY IDOCK:   -7.89 KCAL/MOL
REMARK 923 INTER-LIGAND FREE ENERGY PREDICTED BY IDOCK:   -7.25 KCAL/MOL
REMARK 924 INTRA-LIGAND FREE ENERGY PREDICTED BY IDOCK:   -0.64 KCAL/MOL
REMARK 927      BINDING AFFINITY PREDICTED BY RF-SCORE:    0.00 PKD
ROOT
HETATM    1  C   UNL     1     -10.588  11.135  64.897  1.00  0.00    -0.356 C  
HETATM    2  C   UNL     1     -10.781  11.152  66.413  1.00  0.00    -0.247 C  
ENDROOT
BRANCH   2   3
HETATM    3  N   UNL     1     -11.695  12.188  66.875  1.00  0.00    -0.552 NA 
HETATM    4  H   UNL     1     -12.127  12.831  66.212  1.00  0.00     0.000 HD 
BRANCH   3   5
HETATM    5  C   UNL     1     -11.969  12.286  68.237  1.00  0.00    -0.200 A  
HETATM    6  C   UNL     1     -12.260  13.523  70.251  1.00  0.00    -0.347 A  
HETATM    7  N   UNL     1     -12.556  12.470  71.025  1.00  0.00    -0.326 NA 
HETATM    8  C   UNL     1     -11.874  15.571  69.532  1.00  0.00    -0.372 A  
HETATM    9  H   UNL     1     -11.466  15.120  67.521  1.00  0.00     0.000 HD 
HETATM   10  N   UNL     1     -11.714  14.818  68.464  1.00  0.00    -0.318 NA 
HETATM   11  C   UNL     1     -12.523  11.334  70.301  1.00  0.00    -0.250 A  
HETATM   12  C   UNL     1     -11.955  13.529  68.901  1.00  0.00    -0.341 A  
HETATM   13  N   UNL     1     -12.212  14.830  70.633  1.00  0.00    -0.296 NA 
HETATM   14  N   UNL     1     -12.256  11.184  68.984  1.00  0.00    -0.481 NA 
ENDBRANCH   3   5
ENDBRANCH   2   3
BRANCH   2  15
HETATM   15  C   UNL     1      -9.542  11.142  67.325  1.00  0.00    -0.165 C  
HETATM   16  O   UNL     1      -7.439   9.219  69.540  1.00  0.00    -0.072 OA 
HETATM   17  C   UNL     1      -8.897  12.322  67.394  1.00  0.00    -0.185 C  
HETATM   18  C   UNL     1      -7.787  12.559  68.295  1.00  0.00    -0.144 A  
HETATM   19  N   UNL     1      -9.093  10.059  68.115  1.00  0.00    -0.121 N  
HETATM   20  C   UNL     1      -7.285  13.863  68.414  1.00  0.00    -0.110 A  
HETATM   21  C   UNL     1      -7.917  10.173  68.928  1.00  0.00    -0.110 C  
HETATM   22  C   UNL     1      -7.252  11.507  69.043  1.00  0.00    -0.106 A  
HETATM   23 CL   UNL     1      -5.326  10.597  70.838  1.00  0.00    -0.092 Cl 
HETATM   24  C   UNL     1      -6.234  14.132  69.281  1.00  0.00    -0.103 A  
HETATM   25  C   UNL     1      -5.667  13.089  70.006  1.00  0.00    -0.134 A  
HETATM   26  C   UNL     1      -6.159  11.779  69.886  1.00  0.00    -0.151 A  
BRANCH  19  27
HETATM   27  C   UNL     1      -9.767   8.791  68.222  1.00  0.00    -0.158 A  
HETATM   28  C   UNL     1     -10.327   8.417  69.457  1.00  0.00    -0.219 A  
HETATM   29  C   UNL     1     -11.000   7.199  69.608  1.00  0.00    -0.236 A  
HETATM   30  C   UNL     1     -11.118   6.333  68.524  1.00  0.00    -0.397 A  
HETATM   31  C   UNL     1     -10.539   6.677  67.301  1.00  0.00    -0.387 A  
HETATM   32  C   UNL     1      -9.849   7.890  67.157  1.00  0.00    -0.273 A  
ENDBRANCH  19  27
ENDBRANCH   2  15
TORSDOF 4
ENDMDL
MODEL      121
REMARK 921   NORMALIZED FREE ENERGY PREDICTED BY IDOCK:   -5.63 KCAL/MOL
REMARK 922        TOTAL FREE ENERGY PREDICTED BY IDOCK:   -7.82 KCAL/MOL
REMARK 923 INTER-LIGAND FREE ENERGY PREDICTED BY IDOCK:   -7.08 KCAL/MOL
REMARK 924 INTRA-LIGAND FREE ENERGY PREDICTED BY IDOCK:   -0.74 KCAL/MOL
REMARK 927      BINDING AFFINITY PREDICTED BY RF-SCORE:    0.00 PKD
ROOT
HETATM    1  C   UNL     1      -9.829   9.988  66.337  1.00  0.00    -0.283 C  
HETATM    2  C   UNL     1      -9.490  11.362  66.911  1.00  0.00    -0.179 C  
ENDROOT
BRANCH   2   3
HETATM    3  N   UNL     1      -8.111  11.483  67.366  1.00  0.00    -0.139 NA 
HETATM    4  H   UNL     1      -7.542  12.282  67.088  1.00  0.00     0.000 HD 
BRANCH   3   5
HETATM    5  C   UNL     1      -7.583  10.490  68.186  1.00  0.00    -0.091 A  
HETATM    6  C   UNL     1      -6.305   8.515  68.562  1.00  0.00    -0.054 A  
HETATM    7  N   UNL     1      -6.490   8.474  69.887  1.00  0.00    -0.035 NA 
HETATM    8  C   UNL     1      -5.646   8.059  66.508  1.00  0.00    -0.032 A  
HETATM    9  H   UNL     1      -6.594   9.652  65.519  1.00  0.00     0.000 HD 
HETATM   10  N   UNL     1      -6.381   9.144  66.378  1.00  0.00    -0.065 NA 
HETATM   11  C   UNL     1      -7.264   9.503  70.284  1.00  0.00    -0.118 A  
HETATM   12  C   UNL     1      -6.800   9.442  67.661  1.00  0.00    -0.076 A  
HETATM   13  N   UNL     1      -5.567   7.649  67.812  1.00  0.00    -0.034 NA 
HETATM   14  N   UNL     1      -7.806  10.486  69.530  1.00  0.00    -0.151 NA 
ENDBRANCH   3   5
ENDBRANCH   2   3
BRANCH   2  15
HETATM   15  C   UNL     1     -10.417  11.981  67.971  1.00  0.00    -0.207 C  
HETATM   16  O   UNL     1     -11.736  15.004  69.436  1.00  0.00    -0.291 OA 
HETATM   17  C   UNL     1     -11.056  11.078  68.740  1.00  0.00    -0.293 C  
HETATM   18  C   UNL     1     -11.872  11.452  69.877  1.00  0.00    -0.435 A  
HETATM   19  N   UNL     1     -10.585  13.359  68.235  1.00  0.00    -0.247 N  
HETATM   20  C   UNL     1     -12.364  10.440  70.714  1.00  0.00    -0.463 A  
HETATM   21  C   UNL     1     -11.485  13.813  69.256  1.00  0.00    -0.293 C  
HETATM   22  C   UNL     1     -12.136  12.799  70.140  1.00  0.00    -0.370 A  
HETATM   23 CL   UNL     1     -13.440  14.714  71.686  1.00  0.00    -0.417 Cl 
HETATM   24  C   UNL     1     -13.134  10.761  71.824  1.00  0.00    -0.573 A  
HETATM   25  C   UNL     1     -13.435  12.095  72.078  1.00  0.00    -0.388 A  
HETATM   26  C   UNL     1     -12.953  13.114  71.242  1.00  0.00    -0.254 A  
BRANCH  19  27
HETATM   27  C   UNL     1      -9.865  14.412  67.568  1.00  0.00    -0.220 A  
HETATM   28  C   UNL     1      -8.598  14.787  68.052  1.00  0.00    -0.166 A  
HETATM   29  C   UNL     1      -7.856  15.798  67.431  1.00  0.00    -0.203 A  
HETATM   30  C   UNL     1      -8.374  16.456  66.318  1.00  0.00    -0.362 A  
HETATM   31  C   UNL     1      -9.645  16.116  65.847  1.00  0.00    -0.359 A  
HETATM   32  C   UNL     1     -10.394  15.115  66.481  1.00  0.00    -0.286 A  
ENDBRANCH  19  27
ENDBRANCH   2  15
TORSDOF 4
ENDMDL
MODEL      122
REMARK 921   NORMALIZED FREE ENERGY PREDICTED BY IDOCK:   -5.58 KCAL/MOL
REMARK 922        TOTAL FREE ENERGY PREDICTED BY IDOCK:   -7.76 KCAL/MOL
REMARK 923 INTER-LIGAND FREE ENERGY PREDICTED BY IDOCK:   -7.17 KCAL/MOL
REMARK 924 INTRA-LIGAND FREE ENERGY PREDICTED BY IDOCK:   -0.58 KCAL/MOL
REMARK 927      BINDING AFFINITY PREDICTED BY RF-SCORE:    0.00 PKD
ROOT
HETATM    1  C   UNL     1     -11.719  10.768  68.969  1.00  0.00    -0.357 C  
HETATM    2  C   UNL     1     -10.324  10.411  68.460  1.00  0.00    -0.176 C  
ENDROOT
BRANCH   2   3
HETATM    3  N   UNL     1      -9.814  11.333  67.453  1.00  0.00    -0.180 NA 
HETATM    4  H   UNL     1      -8.838  11.294  67.161  1.00  0.00     0.000 HD 
BRANCH   3   5
HETATM    5  C   UNL     1     -10.682  12.269  66.896  1.00  0.00    -0.232 A  
HETATM    6  C   UNL     1     -11.506  14.487  66.621  1.00  0.00    -0.366 A  
HETATM    7  N   UNL     1     -12.454  14.177  65.727  1.00  0.00    -0.478 NA 
HETATM    8  C   UNL     1     -10.176  15.589  67.990  1.00  0.00    -0.229 A  
HETATM    9  H   UNL     1      -9.039  13.967  68.690  1.00  0.00     0.000 HD 
HETATM   10  N   UNL     1      -9.786  14.336  68.101  1.00  0.00    -0.220 NA 
HETATM   11  C   UNL     1     -12.449  12.854  65.478  1.00  0.00    -0.402 A  
HETATM   12  C   UNL     1     -10.613  13.633  67.245  1.00  0.00    -0.267 A  
HETATM   13  N   UNL     1     -11.208  15.727  67.101  1.00  0.00    -0.185 NA 
HETATM   14  N   UNL     1     -11.636  11.905  65.996  1.00  0.00    -0.433 NA 
ENDBRANCH   3   5
ENDBRANCH   2   3
BRANCH   2  15
HETATM   15  C   UNL     1     -10.040   8.970  68.000  1.00  0.00    -0.190 C  
HETATM   16  O   UNL     1     -10.186   5.457  68.813  1.00  0.00    -0.178 OA 
HETATM   17  C   UNL     1      -9.496   8.880  66.771  1.00  0.00    -0.243 C  
HETATM   18  C   UNL     1      -9.035   7.628  66.207  1.00  0.00    -0.203 A  
HETATM   19  N   UNL     1     -10.232   7.795  68.762  1.00  0.00    -0.198 N  
HETATM   20  C   UNL     1      -8.336   7.655  64.992  1.00  0.00    -0.078 A  
HETATM   21  C   UNL     1      -9.929   6.503  68.219  1.00  0.00    -0.143 C  
HETATM   22  C   UNL     1      -9.267   6.425  66.880  1.00  0.00    -0.144 A  
HETATM   23 CL   UNL     1      -9.072   3.647  66.934  1.00  0.00    -0.165 Cl 
HETATM   24  C   UNL     1      -7.862   6.477  64.429  1.00  0.00    -0.115 A  
HETATM   25  C   UNL     1      -8.116   5.268  65.070  1.00  0.00    -0.120 A  
HETATM   26  C   UNL     1      -8.822   5.231  66.283  1.00  0.00    -0.130 A  
BRANCH  19  27
HETATM   27  C   UNL     1     -10.687   7.773  70.128  1.00  0.00    -0.240 A  
HETATM   28  C   UNL     1      -9.813   8.193  71.147  1.00  0.00    -0.207 A  
HETATM   29  C   UNL     1     -10.213   8.198  72.488  1.00  0.00    -0.383 A  
HETATM   30  C   UNL     1     -11.495   7.776  72.831  1.00  0.00    -0.359 A  
HETATM   31  C   UNL     1     -12.362   7.325  71.833  1.00  0.00    -0.346 A  
HETATM   32  C   UNL     1     -11.953   7.304  70.491  1.00  0.00    -0.200 A  
ENDBRANCH  19  27
ENDBRANCH   2  15
TORSDOF 4
ENDMDL
MODEL      123
REMARK 921   NORMALIZED FREE ENERGY PREDICTED BY IDOCK:   -5.58 KCAL/MOL
REMARK 922        TOTAL FREE ENERGY PREDICTED BY IDOCK:   -7.76 KCAL/MOL
REMARK 923 INTER-LIGAND FREE ENERGY PREDICTED BY IDOCK:   -7.14 KCAL/MOL
REMARK 924 INTRA-LIGAND FREE ENERGY PREDICTED BY IDOCK:   -0.61 KCAL/MOL
REMARK 927      BINDING AFFINITY PREDICTED BY RF-SCORE:    0.00 PKD
ROOT
HETATM    1  C   UNL     1      -8.158   9.975  70.001  1.00  0.00    -0.154 C  
HETATM    2  C   UNL     1      -9.038   9.285  68.960  1.00  0.00    -0.147 C  
ENDROOT
BRANCH   2   3
HETATM    3  N   UNL     1      -8.428   8.100  68.371  1.00  0.00    -0.126 NA 
HETATM    4  H   UNL     1      -7.665   8.189  67.700  1.00  0.00     0.000 HD 
BRANCH   3   5
HETATM    5  C   UNL     1      -8.905   6.844  68.738  1.00  0.00    -0.132 A  
HETATM    6  C   UNL     1      -8.610   4.534  69.237  1.00  0.00    -0.078 A  
HETATM    7  N   UNL     1      -9.896   4.281  69.513  1.00  0.00    -0.199 NA 
HETATM    8  C   UNL     1      -6.436   4.326  68.938  1.00  0.00    -0.040 A  
HETATM    9  H   UNL     1      -6.011   6.305  68.373  1.00  0.00     0.000 HD 
HETATM   10  N   UNL     1      -6.680   5.590  68.661  1.00  0.00    -0.055 NA 
HETATM   11  C   UNL     1     -10.635   5.397  69.361  1.00  0.00    -0.225 A  
HETATM   12  C   UNL     1      -8.042   5.734  68.846  1.00  0.00    -0.102 A  
HETATM   13  N   UNL     1      -7.572   3.652  69.298  1.00  0.00    -0.052 NA 
HETATM   14  N   UNL     1     -10.224   6.635  69.001  1.00  0.00    -0.168 NA 
ENDBRANCH   3   5
ENDBRANCH   2   3
BRANCH   2  15
HETATM   15  C   UNL     1      -9.670  10.126  67.837  1.00  0.00    -0.146 C  
HETATM   16  O   UNL     1     -12.158  12.582  66.940  1.00  0.00    -0.537 OA 
HETATM   17  C   UNL     1      -9.126   9.923  66.622  1.00  0.00    -0.171 C  
HETATM   18  C   UNL     1      -9.660  10.518  65.414  1.00  0.00    -0.291 A  
HETATM   19  N   UNL     1     -10.773  11.000  67.967  1.00  0.00    -0.201 N  
HETATM   20  C   UNL     1      -9.130  10.121  64.177  1.00  0.00    -0.287 A  
HETATM   21  C   UNL     1     -11.273  11.734  66.840  1.00  0.00    -0.327 C  
HETATM   22  C   UNL     1     -10.700  11.449  65.488  1.00  0.00    -0.313 A  
HETATM   23 CL   UNL     1     -12.404  13.228  64.189  1.00  0.00    -0.428 Cl 
HETATM   24  C   UNL     1      -9.628  10.655  62.997  1.00  0.00    -0.379 A  
HETATM   25  C   UNL     1     -10.639  11.610  63.057  1.00  0.00    -0.224 A  
HETATM   26  C   UNL     1     -11.171  12.018  64.290  1.00  0.00    -0.357 A  
BRANCH  19  27
HETATM   27  C   UNL     1     -11.516  11.204  69.183  1.00  0.00    -0.298 A  
HETATM   28  C   UNL     1     -11.597  12.500  69.725  1.00  0.00    -0.291 A  
HETATM   29  C   UNL     1     -12.315  12.750  70.900  1.00  0.00    -0.356 A  
HETATM   30  C   UNL     1     -12.958  11.704  71.556  1.00  0.00    -0.463 A  
HETATM   31  C   UNL     1     -12.858  10.407  71.047  1.00  0.00    -0.494 A  
HETATM   32  C   UNL     1     -12.124  10.156  69.879  1.00  0.00    -0.102 A  
ENDBRANCH  19  27
ENDBRANCH   2  15
TORSDOF 4
ENDMDL
MODEL      124
REMARK 921   NORMALIZED FREE ENERGY PREDICTED BY IDOCK:   -5.57 KCAL/MOL
REMARK 922        TOTAL FREE ENERGY PREDICTED BY IDOCK:   -7.75 KCAL/MOL
REMARK 923 INTER-LIGAND FREE ENERGY PREDICTED BY IDOCK:   -6.87 KCAL/MOL
REMARK 924 INTRA-LIGAND FREE ENERGY PREDICTED BY IDOCK:   -0.88 KCAL/MOL
REMARK 927      BINDING AFFINITY PREDICTED BY RF-SCORE:    0.00 PKD
ROOT
HETATM    1  C   UNL     1     -12.255  13.455  67.819  1.00  0.00    -0.171 C  
HETATM    2  C   UNL     1     -11.644  12.289  68.593  1.00  0.00    -0.323 C  
ENDROOT
BRANCH   2   3
HETATM    3  N   UNL     1     -11.118  12.665  69.899  1.00  0.00    -0.413 NA 
HETATM    4  H   UNL     1     -10.117  12.618  70.087  1.00  0.00     0.000 HD 
BRANCH   3   5
HETATM    5  C   UNL     1     -12.004  13.090  70.886  1.00  0.00     0.085 A  
HETATM    6  C   UNL     1     -12.859  14.715  72.402  1.00  0.00    -0.359 A  
HETATM    7  N   UNL     1     -13.843  13.950  72.892  1.00  0.00    -0.572 NA 
HETATM    8  C   UNL     1     -11.498  16.402  72.003  1.00  0.00    -0.099 A  
HETATM    9  H   UNL     1     -10.289  15.485  70.548  1.00  0.00     0.000 HD 
HETATM   10  N   UNL     1     -11.072  15.447  71.202  1.00  0.00    -0.351 NA 
HETATM   11  C   UNL     1     -13.825  12.735  72.312  1.00  0.00    -0.302 A  
HETATM   12  C   UNL     1     -11.920  14.382  71.442  1.00  0.00    -0.267 A  
HETATM   13  N   UNL     1     -12.580  16.005  72.741  1.00  0.00    -0.457 NA 
HETATM   14  N   UNL     1     -12.985  12.272  71.358  1.00  0.00    -0.327 NA 
ENDBRANCH   3   5
ENDBRANCH   2   3
BRANCH   2  15
HETATM   15  C   UNL     1     -10.623  11.377  67.892  1.00  0.00    -0.189 C  
HETATM   16  O   UNL     1      -7.493  11.161  66.107  1.00  0.00    -0.117 OA 
HETATM   17  C   UNL     1     -10.959  10.072  67.887  1.00  0.00    -0.311 C  
HETATM   18  C   UNL     1     -10.200   9.069  67.168  1.00  0.00    -0.334 A  
HETATM   19  N   UNL     1      -9.451  11.794  67.220  1.00  0.00    -0.169 N  
HETATM   20  C   UNL     1     -10.715   7.767  67.087  1.00  0.00    -0.337 A  
HETATM   21  C   UNL     1      -8.573  10.842  66.603  1.00  0.00    -0.148 C  
HETATM   22  C   UNL     1      -8.993   9.408  66.551  1.00  0.00    -0.176 A  
HETATM   23 CL   UNL     1      -6.742   8.610  65.119  1.00  0.00    -0.064 Cl 
HETATM   24  C   UNL     1     -10.026   6.783  66.391  1.00  0.00    -0.066 A  
HETATM   25  C   UNL     1      -8.806   7.097  65.802  1.00  0.00    -0.090 A  
HETATM   26  C   UNL     1      -8.279   8.396  65.885  1.00  0.00    -0.123 A  
BRANCH  19  27
HETATM   27  C   UNL     1      -9.052  13.167  67.050  1.00  0.00    -0.231 A  
HETATM   28  C   UNL     1      -9.536  13.886  65.942  1.00  0.00    -0.171 A  
HETATM   29  C   UNL     1      -9.185  15.225  65.739  1.00  0.00    -0.133 A  
HETATM   30  C   UNL     1      -8.336  15.865  66.639  1.00  0.00    -0.328 A  
HETATM   31  C   UNL     1      -7.822  15.152  67.725  1.00  0.00    -0.161 A  
HETATM   32  C   UNL     1      -8.161  13.805  67.917  1.00  0.00    -0.166 A  
ENDBRANCH  19  27
ENDBRANCH   2  15
TORSDOF 4
ENDMDL
MODEL      125
REMARK 921   NORMALIZED FREE ENERGY PREDICTED BY IDOCK:   -5.53 KCAL/MOL
REMARK 922        TOTAL FREE ENERGY PREDICTED BY IDOCK:   -7.70 KCAL/MOL
REMARK 923 INTER-LIGAND FREE ENERGY PREDICTED BY IDOCK:   -7.50 KCAL/MOL
REMARK 924 INTRA-LIGAND FREE ENERGY PREDICTED BY IDOCK:   -0.19 KCAL/MOL
REMARK 927      BINDING AFFINITY PREDICTED BY RF-SCORE:    0.00 PKD
ROOT
HETATM    1  C   UNL     1     -11.909  12.915  67.223  1.00  0.00    -0.416 C  
HETATM    2  C   UNL     1     -10.416  12.615  67.108  1.00  0.00    -0.235 C  
ENDROOT
BRANCH   2   3
HETATM    3  N   UNL     1      -9.665  13.644  66.401  1.00  0.00    -0.289 NA 
HETATM    4  H   UNL     1      -8.647  13.669  66.450  1.00  0.00     0.000 HD 
BRANCH   3   5
HETATM    5  C   UNL     1     -10.361  14.595  65.657  1.00  0.00    -0.351 A  
HETATM    6  C   UNL     1     -10.949  16.837  65.114  1.00  0.00    -0.100 A  
HETATM    7  N   UNL     1     -11.777  16.529  64.108  1.00  0.00    -1.013 NA 
HETATM    8  C   UNL     1      -9.749  17.944  66.595  1.00  0.00    -0.319 A  
HETATM    9  H   UNL     1      -8.865  16.303  67.565  1.00  0.00     0.000 HD 
HETATM   10  N   UNL     1      -9.485  16.679  66.846  1.00  0.00    -0.228 NA 
HETATM   11  C   UNL     1     -11.845  15.193  63.950  1.00  0.00     0.219 A  
HETATM   12  C   UNL     1     -10.232  15.973  65.922  1.00  0.00    -0.365 A  
HETATM   13  N   UNL     1     -10.623  18.087  65.551  1.00  0.00    -0.601 NA 
HETATM   14  N   UNL     1     -11.199  14.231  64.647  1.00  0.00    -0.377 NA 
ENDBRANCH   3   5
ENDBRANCH   2   3
BRANCH   2  15
HETATM   15  C   UNL     1      -9.966  11.235  66.596  1.00  0.00    -0.209 C  
HETATM   16  O   UNL     1      -9.659   7.708  67.297  1.00  0.00    -0.143 OA 
HETATM   17  C   UNL     1      -9.441  11.251  65.356  1.00  0.00    -0.251 C  
HETATM   18  C   UNL     1      -8.841  10.083  64.744  1.00  0.00    -0.222 A  
HETATM   19  N   UNL     1      -9.995  10.023  67.323  1.00  0.00    -0.188 N  
HETATM   20  C   UNL     1      -8.175  10.233  63.518  1.00  0.00    -0.159 A  
HETATM   21  C   UNL     1      -9.546   8.795  66.733  1.00  0.00    -0.206 C  
HETATM   22  C   UNL     1      -8.907   8.841  65.381  1.00  0.00    -0.221 A  
HETATM   23 CL   UNL     1      -8.370   6.109  65.341  1.00  0.00    -0.148 Cl 
HETATM   24  C   UNL     1      -7.572   9.141  62.909  1.00  0.00    -0.104 A  
HETATM   25  C   UNL     1      -7.661   7.892  63.515  1.00  0.00    -0.130 A  
HETATM   26  C   UNL     1      -8.331   7.731  64.738  1.00  0.00    -0.043 A  
BRANCH  19  27
HETATM   27  C   UNL     1     -10.415   9.903  68.695  1.00  0.00    -0.206 A  
HETATM   28  C   UNL     1     -11.769  10.110  69.015  1.00  0.00     0.003 A  
HETATM   29  C   UNL     1     -12.227   9.995  70.332  1.00  0.00    -0.249 A  
HETATM   30  C   UNL     1     -11.334   9.676  71.352  1.00  0.00    -0.444 A  
HETATM   31  C   UNL     1      -9.982   9.500  71.053  1.00  0.00    -0.269 A  
HETATM   32  C   UNL     1      -9.521   9.634  69.735  1.00  0.00    -0.242 A  
ENDBRANCH  19  27
ENDBRANCH   2  15
TORSDOF 4
ENDMDL
MODEL      126
REMARK 921   NORMALIZED FREE ENERGY PREDICTED BY IDOCK:   -5.49 KCAL/MOL
REMARK 922        TOTAL FREE ENERGY PREDICTED BY IDOCK:   -7.64 KCAL/MOL
REMARK 923 INTER-LIGAND FREE ENERGY PREDICTED BY IDOCK:   -6.76 KCAL/MOL
REMARK 924 INTRA-LIGAND FREE ENERGY PREDICTED BY IDOCK:   -0.88 KCAL/MOL
REMARK 927      BINDING AFFINITY PREDICTED BY RF-SCORE:    0.00 PKD
ROOT
HETATM    1  C   UNL     1      -8.563   9.398  69.110  1.00  0.00    -0.140 C  
HETATM    2  C   UNL     1     -10.005   9.790  68.793  1.00  0.00    -0.169 C  
ENDROOT
BRANCH   2   3
HETATM    3  N   UNL     1     -10.729   8.785  68.026  1.00  0.00    -0.450 NA 
HETATM    4  H   UNL     1     -11.379   9.063  67.291  1.00  0.00     0.000 HD 
BRANCH   3   5
HETATM    5  C   UNL     1     -10.519   7.438  68.312  1.00  0.00    -0.189 A  
HETATM    6  C   UNL     1      -9.641   5.282  67.811  1.00  0.00    -0.133 A  
HETATM    7  N   UNL     1     -10.080   4.685  68.926  1.00  0.00    -0.096 NA 
HETATM    8  C   UNL     1      -8.677   5.676  65.868  1.00  0.00    -0.147 A  
HETATM    9  H   UNL     1      -9.173   7.709  65.683  1.00  0.00     0.000 HD 
HETATM   10  N   UNL     1      -9.205   6.833  66.206  1.00  0.00    -0.154 NA 
HETATM   11  C   UNL     1     -10.755   5.564  69.693  1.00  0.00    -0.278 A  
HETATM   12  C   UNL     1      -9.813   6.600  67.426  1.00  0.00    -0.131 A  
HETATM   13  N   UNL     1      -8.909   4.711  66.812  1.00  0.00    -0.111 NA 
HETATM   14  N   UNL     1     -10.993   6.874  69.457  1.00  0.00    -0.256 NA 
ENDBRANCH   3   5
ENDBRANCH   2   3
BRANCH   2  15
HETATM   15  C   UNL     1     -10.288  11.175  68.186  1.00  0.00    -0.187 C  
HETATM   16  O   UNL     1      -9.995  13.327  65.303  1.00  0.00    -0.258 OA 
HETATM   17  C   UNL     1     -10.913  12.027  69.023  1.00  0.00    -0.260 C  
HETATM   18  C   UNL     1     -11.154  13.416  68.691  1.00  0.00    -0.295 A  
HETATM   19  N   UNL     1      -9.897  11.623  66.904  1.00  0.00    -0.196 N  
HETATM   20  C   UNL     1     -11.662  14.266  69.685  1.00  0.00    -0.362 A  
HETATM   21  C   UNL     1     -10.224  12.944  66.450  1.00  0.00    -0.267 C  
HETATM   22  C   UNL     1     -10.859  13.896  67.413  1.00  0.00    -0.291 A  
HETATM   23 CL   UNL     1     -10.893  16.002  65.590  1.00  0.00    -0.307 Cl 
HETATM   24  C   UNL     1     -11.889  15.608  69.411  1.00  0.00    -0.391 A  
HETATM   25  C   UNL     1     -11.634  16.092  68.132  1.00  0.00    -0.183 A  
HETATM   26  C   UNL     1     -11.131  15.247  67.129  1.00  0.00    -0.323 A  
BRANCH  19  27
HETATM   27  C   UNL     1      -9.119  10.851  65.971  1.00  0.00    -0.191 A  
HETATM   28  C   UNL     1      -7.721  10.803  66.122  1.00  0.00    -0.149 A  
HETATM   29  C   UNL     1      -6.924  10.058  65.246  1.00  0.00    -0.132 A  
HETATM   30  C   UNL     1      -7.513   9.354  64.199  1.00  0.00    -0.113 A  
HETATM   31  C   UNL     1      -8.897   9.419  64.018  1.00  0.00    -0.210 A  
HETATM   32  C   UNL     1      -9.693  10.180  64.886  1.00  0.00    -0.392 A  
ENDBRANCH  19  27
ENDBRANCH   2  15
TORSDOF 4
ENDMDL
MODEL      127
REMARK 921   NORMALIZED FREE ENERGY PREDICTED BY IDOCK:   -5.48 KCAL/MOL
REMARK 922        TOTAL FREE ENERGY PREDICTED BY IDOCK:   -7.64 KCAL/MOL
REMARK 923 INTER-LIGAND FREE ENERGY PREDICTED BY IDOCK:   -7.17 KCAL/MOL
REMARK 924 INTRA-LIGAND FREE ENERGY PREDICTED BY IDOCK:   -0.47 KCAL/MOL
REMARK 927      BINDING AFFINITY PREDICTED BY RF-SCORE:    0.00 PKD
ROOT
HETATM    1  C   UNL     1     -11.800  14.059  68.637  1.00  0.00    -0.396 C  
HETATM    2  C   UNL     1     -10.501  13.302  68.369  1.00  0.00    -0.253 C  
ENDROOT
BRANCH   2   3
HETATM    3  N   UNL     1      -9.788  13.765  67.185  1.00  0.00    -0.237 NA 
HETATM    4  H   UNL     1     -10.246  13.773  66.275  1.00  0.00     0.000 HD 
BRANCH   3   5
HETATM    5  C   UNL     1      -8.470  14.195  67.319  1.00  0.00    -0.214 A  
HETATM    6  C   UNL     1      -6.124  13.810  67.464  1.00  0.00     0.015 A  
HETATM    7  N   UNL     1      -5.773  15.098  67.570  1.00  0.00    -0.344 NA 
HETATM    8  C   UNL     1      -6.062  11.612  67.314  1.00  0.00    -0.112 A  
HETATM    9  H   UNL     1      -8.127  11.254  67.165  1.00  0.00     0.000 HD 
HETATM   10  N   UNL     1      -7.345  11.903  67.257  1.00  0.00    -0.137 NA 
HETATM   11  C   UNL     1      -6.867  15.884  67.551  1.00  0.00    -0.183 A  
HETATM   12  C   UNL     1      -7.398  13.281  67.348  1.00  0.00    -0.114 A  
HETATM   13  N   UNL     1      -5.287  12.735  67.432  1.00  0.00    -0.297 NA 
HETATM   14  N   UNL     1      -8.164  15.517  67.432  1.00  0.00    -0.163 NA 
ENDBRANCH   3   5
ENDBRANCH   2   3
BRANCH   2  15
HETATM   15  C   UNL     1     -10.517  11.763  68.366  1.00  0.00    -0.215 C  
HETATM   16  O   UNL     1     -10.661   8.747  66.389  1.00  0.00    -0.132 OA 
HETATM   17  C   UNL     1     -10.461  11.209  69.593  1.00  0.00     0.003 C  
HETATM   18  C   UNL     1     -10.595   9.784  69.816  1.00  0.00    -0.285 A  
HETATM   19  N   UNL     1     -10.654  10.929  67.233  1.00  0.00    -0.236 N  
HETATM   20  C   UNL     1     -10.686   9.316  71.136  1.00  0.00    -0.403 A  
HETATM   21  C   UNL     1     -10.654   9.500  67.362  1.00  0.00    -0.271 C  
HETATM   22  C   UNL     1     -10.655   8.904  68.733  1.00  0.00    -0.185 A  
HETATM   23 CL   UNL     1     -10.785   6.285  67.792  1.00  0.00    -0.336 Cl 
HETATM   24  C   UNL     1     -10.834   7.959  71.390  1.00  0.00    -0.259 A  
HETATM   25  C   UNL     1     -10.860   7.068  70.322  1.00  0.00    -0.283 A  
HETATM   26  C   UNL     1     -10.761   7.526  68.999  1.00  0.00    -0.134 A  
BRANCH  19  27
HETATM   27  C   UNL     1     -10.847  11.404  65.888  1.00  0.00    -0.234 A  
HETATM   28  C   UNL     1     -12.072  12.005  65.546  1.00  0.00    -0.067 A  
HETATM   29  C   UNL     1     -12.304  12.491  64.254  1.00  0.00    -0.541 A  
HETATM   30  C   UNL     1     -11.314  12.376  63.281  1.00  0.00    -0.399 A  
HETATM   31  C   UNL     1     -10.106  11.752  63.599  1.00  0.00    -0.445 A  
HETATM   32  C   UNL     1      -9.882  11.250  64.889  1.00  0.00    -0.310 A  
ENDBRANCH  19  27
ENDBRANCH   2  15
TORSDOF 4
ENDMDL
MODEL      128
REMARK 921   NORMALIZED FREE ENERGY PREDICTED BY IDOCK:   -5.47 KCAL/MOL
REMARK 922        TOTAL FREE ENERGY PREDICTED BY IDOCK:   -7.62 KCAL/MOL
REMARK 923 INTER-LIGAND FREE ENERGY PREDICTED BY IDOCK:   -6.68 KCAL/MOL
REMARK 924 INTRA-LIGAND FREE ENERGY PREDICTED BY IDOCK:   -0.94 KCAL/MOL
REMARK 927      BINDING AFFINITY PREDICTED BY RF-SCORE:    0.00 PKD
ROOT
HETATM    1  C   UNL     1     -10.756   7.938  67.407  1.00  0.00    -0.278 C  
HETATM    2  C   UNL     1      -9.930   9.074  68.007  1.00  0.00    -0.176 C  
ENDROOT
BRANCH   2   3
HETATM    3  N   UNL     1      -9.811   9.008  69.458  1.00  0.00    -0.175 NA 
HETATM    4  H   UNL     1      -9.543   9.833  69.993  1.00  0.00     0.000 HD 
BRANCH   3   5
HETATM    5  C   UNL     1     -10.070   7.800  70.101  1.00  0.00    -0.197 A  
HETATM    6  C   UNL     1      -9.451   5.621  70.836  1.00  0.00    -0.166 A  
HETATM    7  N   UNL     1     -10.611   5.339  71.442  1.00  0.00    -0.208 NA 
HETATM    8  C   UNL     1      -7.391   5.499  70.060  1.00  0.00    -0.069 A  
HETATM    9  H   UNL     1      -7.296   7.385  69.137  1.00  0.00     0.000 HD 
HETATM   10  N   UNL     1      -7.811   6.686  69.674  1.00  0.00    -0.113 NA 
HETATM   11  C   UNL     1     -11.468   6.370  71.315  1.00  0.00    -0.314 A  
HETATM   12  C   UNL     1      -9.104   6.776  70.156  1.00  0.00    -0.155 A  
HETATM   13  N   UNL     1      -8.347   4.824  70.771  1.00  0.00    -0.092 NA 
HETATM   14  N   UNL     1     -11.270   7.557  70.697  1.00  0.00    -0.266 NA 
ENDBRANCH   3   5
ENDBRANCH   2   3
BRANCH   2  15
HETATM   15  C   UNL     1     -10.245  10.524  67.601  1.00  0.00    -0.197 C  
HETATM   16  O   UNL     1      -9.963  13.082  65.070  1.00  0.00    -0.235 OA 
HETATM   17  C   UNL     1     -10.913  11.227  68.537  1.00  0.00    -0.266 C  
HETATM   18  C   UNL     1     -11.191  12.642  68.406  1.00  0.00    -0.316 A  
HETATM   19  N   UNL     1      -9.843  11.166  66.408  1.00  0.00    -0.205 N  
HETATM   20  C   UNL     1     -11.746  13.323  69.500  1.00  0.00    -0.384 A  
HETATM   21  C   UNL     1     -10.202  12.529  66.143  1.00  0.00    -0.252 C  
HETATM   22  C   UNL     1     -10.886  13.312  67.218  1.00  0.00    -0.275 A  
HETATM   23 CL   UNL     1     -10.951  15.660  65.721  1.00  0.00    -0.288 Cl 
HETATM   24  C   UNL     1     -12.010  14.683  69.418  1.00  0.00    -0.351 A  
HETATM   25  C   UNL     1     -11.745  15.356  68.229  1.00  0.00    -0.313 A  
HETATM   26  C   UNL     1     -11.196  14.682  67.128  1.00  0.00    -0.344 A  
BRANCH  19  27
HETATM   27  C   UNL     1      -9.023  10.561  65.392  1.00  0.00    -0.186 A  
HETATM   28  C   UNL     1      -9.642   9.971  64.275  1.00  0.00    -0.301 A  
HETATM   29  C   UNL     1      -8.887   9.379  63.256  1.00  0.00    -0.202 A  
HETATM   30  C   UNL     1      -7.497   9.362  63.343  1.00  0.00    -0.106 A  
HETATM   31  C   UNL     1      -6.870   9.915  64.462  1.00  0.00    -0.124 A  
HETATM   32  C   UNL     1      -7.630  10.492  65.490  1.00  0.00    -0.120 A  
ENDBRANCH  19  27
ENDBRANCH   2  15
TORSDOF 4
ENDMDL
MODEL      129
REMARK 921   NORMALIZED FREE ENERGY PREDICTED BY IDOCK:   -5.46 KCAL/MOL
REMARK 922        TOTAL FREE ENERGY PREDICTED BY IDOCK:   -7.62 KCAL/MOL
REMARK 923 INTER-LIGAND FREE ENERGY PREDICTED BY IDOCK:   -8.10 KCAL/MOL
REMARK 924 INTRA-LIGAND FREE ENERGY PREDICTED BY IDOCK:    0.48 KCAL/MOL
REMARK 927      BINDING AFFINITY PREDICTED BY RF-SCORE:    0.00 PKD
ROOT
HETATM    1  C   UNL     1      -9.143  15.182  69.487  1.00  0.00    -0.131 C  
HETATM    2  C   UNL     1     -10.242  15.164  68.426  1.00  0.00    -0.221 C  
ENDROOT
BRANCH   2   3
HETATM    3  N   UNL     1     -11.589  15.230  68.977  1.00  0.00    -0.323 NA 
HETATM    4  H   UNL     1     -12.204  16.011  68.750  1.00  0.00     0.000 HD 
BRANCH   3   5
HETATM    5  C   UNL     1     -12.024  14.209  69.818  1.00  0.00    -0.339 A  
HETATM    6  C   UNL     1     -13.203  13.395  71.721  1.00  0.00    -0.407 A  
HETATM    7  N   UNL     1     -12.924  12.100  71.520  1.00  0.00    -0.360 NA 
HETATM    8  C   UNL     1     -13.987  15.280  72.552  1.00  0.00    -0.511 A  
HETATM    9  H   UNL     1     -13.167  16.604  71.142  1.00  0.00     0.000 HD 
HETATM   10  N   UNL     1     -13.302  15.655  71.492  1.00  0.00    -0.496 NA 
HETATM   11  C   UNL     1     -12.160  11.951  70.420  1.00  0.00    -0.333 A  
HETATM   12  C   UNL     1     -12.804  14.480  70.960  1.00  0.00    -0.350 A  
HETATM   13  N   UNL     1     -13.960  13.921  72.724  1.00  0.00    -0.658 NA 
HETATM   14  N   UNL     1     -11.707  12.907  69.576  1.00  0.00    -0.319 NA 
ENDBRANCH   3   5
ENDBRANCH   2   3
BRANCH   2  15
HETATM   15  C   UNL     1     -10.208  14.084  67.330  1.00  0.00    -0.248 C  
HETATM   16  O   UNL     1      -8.425  11.294  65.895  1.00  0.00    -0.150 OA 
HETATM   17  C   UNL     1     -11.259  14.118  66.488  1.00  0.00    -0.333 C  
HETATM   18  C   UNL     1     -11.352  13.274  65.315  1.00  0.00    -0.317 A  
HETATM   19  N   UNL     1      -9.170  13.150  67.107  1.00  0.00    -0.219 N  
HETATM   20  C   UNL     1     -12.402  13.493  64.411  1.00  0.00    -0.391 A  
HETATM   21  C   UNL     1      -9.256  12.188  66.047  1.00  0.00    -0.118 C  
HETATM   22  C   UNL     1     -10.396  12.281  65.085  1.00  0.00    -0.316 A  
HETATM   23 CL   UNL     1      -9.497  10.153  63.529  1.00  0.00    -0.332 Cl 
HETATM   24  C   UNL     1     -12.514  12.716  63.265  1.00  0.00    -0.377 A  
HETATM   25  C   UNL     1     -11.590  11.700  63.041  1.00  0.00     0.090 A  
HETATM   26  C   UNL     1     -10.541  11.469  63.944  1.00  0.00    -0.391 A  
BRANCH  19  27
HETATM   27  C   UNL     1      -7.944  13.097  67.859  1.00  0.00    -0.158 A  
HETATM   28  C   UNL     1      -6.908  13.996  67.541  1.00  0.00    -0.150 A  
HETATM   29  C   UNL     1      -5.701  13.989  68.249  1.00  0.00    -0.116 A  
HETATM   30  C   UNL     1      -5.509  13.077  69.285  1.00  0.00    -0.076 A  
HETATM   31  C   UNL     1      -6.516  12.158  69.589  1.00  0.00    -0.082 A  
HETATM   32  C   UNL     1      -7.718  12.155  68.866  1.00  0.00     0.036 A  
ENDBRANCH  19  27
ENDBRANCH   2  15
TORSDOF 4
ENDMDL
MODEL      130
REMARK 921   NORMALIZED FREE ENERGY PREDICTED BY IDOCK:   -5.46 KCAL/MOL
REMARK 922        TOTAL FREE ENERGY PREDICTED BY IDOCK:   -7.61 KCAL/MOL
REMARK 923 INTER-LIGAND FREE ENERGY PREDICTED BY IDOCK:   -7.16 KCAL/MOL
REMARK 924 INTRA-LIGAND FREE ENERGY PREDICTED BY IDOCK:   -0.45 KCAL/MOL
REMARK 927      BINDING AFFINITY PREDICTED BY RF-SCORE:    0.00 PKD
ROOT
HETATM    1  C   UNL     1     -10.438   8.608  66.854  1.00  0.00    -0.329 C  
HETATM    2  C   UNL     1     -10.438   9.690  67.933  1.00  0.00    -0.246 C  
ENDROOT
BRANCH   2   3
HETATM    3  N   UNL     1     -10.021  10.999  67.448  1.00  0.00    -0.180 NA 
HETATM    4  H   UNL     1      -9.281  11.516  67.923  1.00  0.00     0.000 HD 
BRANCH   3   5
HETATM    5  C   UNL     1     -10.649  11.534  66.326  1.00  0.00    -0.263 A  
HETATM    6  C   UNL     1     -10.837  11.895  63.980  1.00  0.00    -0.379 A  
HETATM    7  N   UNL     1     -11.962  12.619  64.036  1.00  0.00    -0.413 NA 
HETATM    8  C   UNL     1      -9.066  10.800  63.255  1.00  0.00    -0.252 A  
HETATM    9  H   UNL     1      -8.322  10.155  65.111  1.00  0.00     0.000 HD 
HETATM   10  N   UNL     1      -9.021  10.657  64.563  1.00  0.00    -0.196 NA 
HETATM   11  C   UNL     1     -12.364  12.762  65.314  1.00  0.00    -0.488 A  
HETATM   12  C   UNL     1     -10.129  11.339  65.031  1.00  0.00    -0.279 A  
HETATM   13  N   UNL     1     -10.152  11.535  62.858  1.00  0.00    -0.266 NA 
HETATM   14  N   UNL     1     -11.788  12.272  66.435  1.00  0.00    -0.589 NA 
ENDBRANCH   3   5
ENDBRANCH   2   3
BRANCH   2  15
HETATM   15  C   UNL     1      -9.736   9.411  69.273  1.00  0.00    -0.172 C  
HETATM   16  O   UNL     1      -6.663   9.556  71.160  1.00  0.00    -0.220 OA 
HETATM   17  C   UNL     1     -10.537   8.874  70.214  1.00  0.00    -0.246 C  
HETATM   18  C   UNL     1     -10.042   8.419  71.498  1.00  0.00    -0.293 A  
HETATM   19  N   UNL     1      -8.364   9.599  69.554  1.00  0.00    -0.137 N  
HETATM   20  C   UNL     1     -10.918   7.727  72.348  1.00  0.00    -0.368 A  
HETATM   21  C   UNL     1      -7.826   9.301  70.850  1.00  0.00    -0.113 C  
HETATM   22  C   UNL     1      -8.713   8.647  71.861  1.00  0.00    -0.256 A  
HETATM   23 CL   UNL     1      -6.698   8.456  73.775  1.00  0.00    -0.148 Cl 
HETATM   24  C   UNL     1     -10.476   7.258  73.578  1.00  0.00    -0.421 A  
HETATM   25  C   UNL     1      -9.164   7.510  73.969  1.00  0.00    -0.279 A  
HETATM   26  C   UNL     1      -8.284   8.208  73.127  1.00  0.00    -0.193 A  
BRANCH  19  27
HETATM   27  C   UNL     1      -7.387  10.046  68.596  1.00  0.00    -0.081 A  
HETATM   28  C   UNL     1      -6.835   9.114  67.697  1.00  0.00    -0.077 A  
HETATM   29  C   UNL     1      -5.890   9.503  66.741  1.00  0.00    -0.055 A  
HETATM   30  C   UNL     1      -5.477  10.831  66.673  1.00  0.00    -0.069 A  
HETATM   31  C   UNL     1      -5.993  11.760  67.580  1.00  0.00    -0.072 A  
HETATM   32  C   UNL     1      -6.927  11.365  68.549  1.00  0.00    -0.080 A  
ENDBRANCH  19  27
ENDBRANCH   2  15
TORSDOF 4
ENDMDL
MODEL      131
REMARK 921   NORMALIZED FREE ENERGY PREDICTED BY IDOCK:   -5.45 KCAL/MOL
REMARK 922        TOTAL FREE ENERGY PREDICTED BY IDOCK:   -7.60 KCAL/MOL
REMARK 923 INTER-LIGAND FREE ENERGY PREDICTED BY IDOCK:   -7.21 KCAL/MOL
REMARK 924 INTRA-LIGAND FREE ENERGY PREDICTED BY IDOCK:   -0.38 KCAL/MOL
REMARK 927      BINDING AFFINITY PREDICTED BY RF-SCORE:    0.00 PKD
ROOT
HETATM    1  C   UNL     1     -10.945   8.496  67.057  1.00  0.00     0.207 C  
HETATM    2  C   UNL     1     -10.751   9.502  68.190  1.00  0.00    -0.197 C  
ENDROOT
BRANCH   2   3
HETATM    3  N   UNL     1     -10.443  10.849  67.730  1.00  0.00    -0.192 NA 
HETATM    4  H   UNL     1     -10.065  11.543  68.374  1.00  0.00     0.000 HD 
BRANCH   3   5
HETATM    5  C   UNL     1     -10.672  11.175  66.395  1.00  0.00    -0.247 A  
HETATM    6  C   UNL     1     -11.740  12.436  64.680  1.00  0.00    -0.365 A  
HETATM    7  N   UNL     1     -11.113  11.843  63.655  1.00  0.00    -0.414 NA 
HETATM    8  C   UNL     1     -13.035  13.750  65.886  1.00  0.00    -0.185 A  
HETATM    9  H   UNL     1     -12.519  13.029  67.791  1.00  0.00     0.000 HD 
HETATM   10  N   UNL     1     -12.416  13.002  66.775  1.00  0.00    -0.259 NA 
HETATM   11  C   UNL     1     -10.268  10.896  64.107  1.00  0.00    -0.359 A  
HETATM   12  C   UNL     1     -11.598  12.173  66.031  1.00  0.00    -0.358 A  
HETATM   13  N   UNL     1     -12.651  13.447  64.607  1.00  0.00    -0.637 NA 
HETATM   14  N   UNL     1     -10.016  10.538  65.387  1.00  0.00    -0.270 NA 
ENDBRANCH   3   5
ENDBRANCH   2   3
BRANCH   2  15
HETATM   15  C   UNL     1      -9.809   9.148  69.353  1.00  0.00    -0.172 C  
HETATM   16  O   UNL     1      -9.504   7.836  72.702  1.00  0.00    -0.158 OA 
HETATM   17  C   UNL     1      -8.510   9.410  69.110  1.00  0.00    -0.134 C  
HETATM   18  C   UNL     1      -7.480   9.271  70.119  1.00  0.00    -0.098 A  
HETATM   19  N   UNL     1     -10.193   8.659  70.623  1.00  0.00    -0.191 N  
HETATM   20  C   UNL     1      -6.184   9.721  69.824  1.00  0.00    -0.048 A  
HETATM   21  C   UNL     1      -9.214   8.364  71.629  1.00  0.00    -0.206 C  
HETATM   22  C   UNL     1      -7.786   8.721  71.367  1.00  0.00    -0.148 A  
HETATM   23 CL   UNL     1      -6.921   7.870  73.874  1.00  0.00    -0.128 Cl 
HETATM   24  C   UNL     1      -5.175   9.621  70.771  1.00  0.00    -0.045 A  
HETATM   25  C   UNL     1      -5.456   9.043  72.005  1.00  0.00    -0.061 A  
HETATM   26  C   UNL     1      -6.748   8.584  72.307  1.00  0.00    -0.082 A  
BRANCH  19  27
HETATM   27  C   UNL     1     -11.555   8.458  71.043  1.00  0.00    -0.275 A  
HETATM   28  C   UNL     1     -12.290   9.556  71.525  1.00  0.00    -0.465 A  
HETATM   29  C   UNL     1     -13.620   9.413  71.936  1.00  0.00    -0.482 A  
HETATM   30  C   UNL     1     -14.234   8.164  71.877  1.00  0.00    -0.530 A  
HETATM   31  C   UNL     1     -13.505   7.059  71.431  1.00  0.00    -0.323 A  
HETATM   32  C   UNL     1     -12.167   7.202  71.036  1.00  0.00    -0.384 A  
ENDBRANCH  19  27
ENDBRANCH   2  15
TORSDOF 4
ENDMDL
MODEL      132
REMARK 921   NORMALIZED FREE ENERGY PREDICTED BY IDOCK:   -5.44 KCAL/MOL
REMARK 922        TOTAL FREE ENERGY PREDICTED BY IDOCK:   -7.59 KCAL/MOL
REMARK 923 INTER-LIGAND FREE ENERGY PREDICTED BY IDOCK:   -7.46 KCAL/MOL
REMARK 924 INTRA-LIGAND FREE ENERGY PREDICTED BY IDOCK:   -0.13 KCAL/MOL
REMARK 927      BINDING AFFINITY PREDICTED BY RF-SCORE:    0.00 PKD
ROOT
HETATM    1  C   UNL     1     -12.015  14.597  69.255  1.00  0.00    -0.337 C  
HETATM    2  C   UNL     1     -10.613  14.246  68.757  1.00  0.00    -0.252 C  
ENDROOT
BRANCH   2   3
HETATM    3  N   UNL     1      -9.754  15.406  68.562  1.00  0.00    -0.200 NA 
HETATM    4  H   UNL     1      -8.926  15.541  69.142  1.00  0.00     0.000 HD 
BRANCH   3   5
HETATM    5  C   UNL     1     -10.082  16.329  67.572  1.00  0.00    -0.258 A  
HETATM    6  C   UNL     1     -10.541  18.538  66.808  1.00  0.00    -0.354 A  
HETATM    7  N   UNL     1     -10.732  18.209  65.524  1.00  0.00    -0.526 NA 
HETATM    8  C   UNL     1     -10.340  19.670  68.689  1.00  0.00    -0.297 A  
HETATM    9  H   UNL     1      -9.895  18.064  69.970  1.00  0.00     0.000 HD 
HETATM   10  N   UNL     1     -10.113  18.421  69.038  1.00  0.00    -0.340 NA 
HETATM   11  C   UNL     1     -10.582  16.881  65.354  1.00  0.00    -0.162 A  
HETATM   12  C   UNL     1     -10.235  17.699  67.866  1.00  0.00    -0.357 A  
HETATM   13  N   UNL     1     -10.597  19.788  67.349  1.00  0.00    -0.438 NA 
HETATM   14  N   UNL     1     -10.273  15.945  66.280  1.00  0.00    -0.294 NA 
ENDBRANCH   3   5
ENDBRANCH   2   3
BRANCH   2  15
HETATM   15  C   UNL     1     -10.462  13.309  67.547  1.00  0.00    -0.235 C  
HETATM   16  O   UNL     1      -8.309  11.061  65.719  1.00  0.00    -0.160 OA 
HETATM   17  C   UNL     1     -11.558  13.231  66.767  1.00  0.00    -0.408 C  
HETATM   18  C   UNL     1     -11.578  12.508  65.512  1.00  0.00    -0.429 A  
HETATM   19  N   UNL     1      -9.291  12.613  67.169  1.00  0.00    -0.203 N  
HETATM   20  C   UNL     1     -12.711  12.618  64.692  1.00  0.00    -0.458 A  
HETATM   21  C   UNL     1      -9.275  11.764  66.013  1.00  0.00    -0.194 C  
HETATM   22  C   UNL     1     -10.478  11.740  65.125  1.00  0.00    -0.330 A  
HETATM   23 CL   UNL     1      -9.320   9.987  63.296  1.00  0.00    -0.321 Cl 
HETATM   24  C   UNL     1     -12.761  11.955  63.473  1.00  0.00    -0.530 A  
HETATM   25  C   UNL     1     -11.687  11.157  63.091  1.00  0.00     0.679 A  
HETATM   26  C   UNL     1     -10.553  11.035  63.909  1.00  0.00    -0.312 A  
BRANCH  19  27
HETATM   27  C   UNL     1      -8.025  12.714  67.848  1.00  0.00    -0.156 A  
HETATM   28  C   UNL     1      -7.177  13.797  67.554  1.00  0.00    -0.173 A  
HETATM   29  C   UNL     1      -5.942  13.944  68.195  1.00  0.00    -0.125 A  
HETATM   30  C   UNL     1      -5.532  13.003  69.137  1.00  0.00    -0.071 A  
HETATM   31  C   UNL     1      -6.350  11.905  69.413  1.00  0.00    -0.115 A  
HETATM   32  C   UNL     1      -7.580  11.750  68.757  1.00  0.00    -0.104 A  
ENDBRANCH  19  27
ENDBRANCH   2  15
TORSDOF 4
ENDMDL
MODEL      133
REMARK 921   NORMALIZED FREE ENERGY PREDICTED BY IDOCK:   -5.44 KCAL/MOL
REMARK 922        TOTAL FREE ENERGY PREDICTED BY IDOCK:   -7.59 KCAL/MOL
REMARK 923 INTER-LIGAND FREE ENERGY PREDICTED BY IDOCK:   -6.32 KCAL/MOL
REMARK 924 INTRA-LIGAND FREE ENERGY PREDICTED BY IDOCK:   -1.27 KCAL/MOL
REMARK 927      BINDING AFFINITY PREDICTED BY RF-SCORE:    0.00 PKD
ROOT
HETATM    1  C   UNL     1      -7.204   8.850  71.485  1.00  0.00    -0.079 C  
HETATM    2  C   UNL     1      -8.611   8.338  71.180  1.00  0.00    -0.142 C  
ENDROOT
BRANCH   2   3
HETATM    3  N   UNL     1      -9.573   8.601  72.242  1.00  0.00    -0.300 NA 
HETATM    4  H   UNL     1      -9.288   8.562  73.220  1.00  0.00     0.000 HD 
BRANCH   3   5
HETATM    5  C   UNL     1     -10.887   8.907  71.900  1.00  0.00    -0.363 A  
HETATM    6  C   UNL     1     -12.522  10.040  70.590  1.00  0.00    -0.236 A  
HETATM    7  N   UNL     1     -13.589   9.506  71.198  1.00  0.00    -0.269 NA 
HETATM    8  C   UNL     1     -11.227  11.203  69.237  1.00  0.00    -0.267 A  
HETATM    9  H   UNL     1      -9.364  10.587  69.989  1.00  0.00     0.000 HD 
HETATM   10  N   UNL     1     -10.383  10.554  70.013  1.00  0.00    -0.132 NA 
HETATM   11  C   UNL     1     -13.199   8.668  72.178  1.00  0.00    -0.383 A  
HETATM   12  C   UNL     1     -11.184   9.819  70.866  1.00  0.00    -0.359 A  
HETATM   13  N   UNL     1     -12.530  10.917  69.546  1.00  0.00    -0.299 NA 
HETATM   14  N   UNL     1     -11.940   8.344  72.554  1.00  0.00    -0.389 NA 
ENDBRANCH   3   5
ENDBRANCH   2   3
BRANCH   2  15
HETATM   15  C   UNL     1      -8.792   6.889  70.696  1.00  0.00    -0.150 C  
HETATM   16  O   UNL     1      -9.156   4.672  67.871  1.00  0.00    -0.110 OA 
HETATM   17  C   UNL     1      -8.857   5.980  71.688  1.00  0.00    -0.139 C  
HETATM   18  C   UNL     1      -9.154   4.582  71.452  1.00  0.00    -0.177 A  
HETATM   19  N   UNL     1      -8.959   6.469  69.357  1.00  0.00    -0.132 N  
HETATM   20  C   UNL     1      -9.362   3.743  72.557  1.00  0.00    -0.164 A  
HETATM   21  C   UNL     1      -9.119   5.081  69.031  1.00  0.00    -0.105 C  
HETATM   22  C   UNL     1      -9.254   4.094  70.146  1.00  0.00    -0.210 A  
HETATM   23 CL   UNL     1      -9.616   1.929  68.431  1.00  0.00    -0.233 Cl 
HETATM   24  C   UNL     1      -9.667   2.401  72.371  1.00  0.00    -0.193 A  
HETATM   25  C   UNL     1      -9.734   1.894  71.077  1.00  0.00    -0.161 A  
HETATM   26  C   UNL     1      -9.520   2.724  69.966  1.00  0.00    -0.098 A  
BRANCH  19  27
HETATM   27  C   UNL     1      -9.032   7.355  68.225  1.00  0.00    -0.130 A  
HETATM   28  C   UNL     1      -7.840   7.756  67.593  1.00  0.00    -0.123 A  
HETATM   29  C   UNL     1      -7.861   8.609  66.484  1.00  0.00    -0.099 A  
HETATM   30  C   UNL     1      -9.076   9.081  65.993  1.00  0.00    -0.257 A  
HETATM   31  C   UNL     1     -10.264   8.717  66.631  1.00  0.00    -0.340 A  
HETATM   32  C   UNL     1     -10.240   7.876  67.753  1.00  0.00    -0.276 A  
ENDBRANCH  19  27
ENDBRANCH   2  15
TORSDOF 4
ENDMDL
MODEL      134
REMARK 921   NORMALIZED FREE ENERGY PREDICTED BY IDOCK:   -5.42 KCAL/MOL
REMARK 922        TOTAL FREE ENERGY PREDICTED BY IDOCK:   -7.56 KCAL/MOL
REMARK 923 INTER-LIGAND FREE ENERGY PREDICTED BY IDOCK:   -6.39 KCAL/MOL
REMARK 924 INTRA-LIGAND FREE ENERGY PREDICTED BY IDOCK:   -1.17 KCAL/MOL
REMARK 927      BINDING AFFINITY PREDICTED BY RF-SCORE:    0.00 PKD
ROOT
HETATM    1  C   UNL     1      -7.601  10.052  69.997  1.00  0.00    -0.182 C  
HETATM    2  C   UNL     1      -8.729   9.427  69.178  1.00  0.00    -0.142 C  
ENDROOT
BRANCH   2   3
HETATM    3  N   UNL     1      -8.896   7.998  69.406  1.00  0.00    -0.144 NA 
HETATM    4  H   UNL     1      -8.267   7.326  68.967  1.00  0.00     0.000 HD 
BRANCH   3   5
HETATM    5  C   UNL     1      -9.928   7.564  70.234  1.00  0.00    -0.192 A  
HETATM    6  C   UNL     1     -10.877   7.114  72.372  1.00  0.00    -0.246 A  
HETATM    7  N   UNL     1     -12.063   6.691  71.917  1.00  0.00    -0.338 NA 
HETATM    8  C   UNL     1      -9.207   7.696  73.689  1.00  0.00    -0.283 A  
HETATM    9  H   UNL     1      -7.825   8.254  72.209  1.00  0.00     0.000 HD 
HETATM   10  N   UNL     1      -8.747   7.904  72.474  1.00  0.00    -0.138 NA 
HETATM   11  C   UNL     1     -12.089   6.731  70.571  1.00  0.00    -0.274 A  
HETATM   12  C   UNL     1      -9.786   7.544  71.636  1.00  0.00    -0.161 A  
HETATM   13  N   UNL     1     -10.493   7.225  73.676  1.00  0.00    -0.370 NA 
HETATM   14  N   UNL     1     -11.115   7.135  69.723  1.00  0.00    -0.239 NA 
ENDBRANCH   3   5
ENDBRANCH   2   3
BRANCH   2  15
HETATM   15  C   UNL     1      -8.794   9.698  67.665  1.00  0.00    -0.125 C  
HETATM   16  O   UNL     1      -9.797  11.966  65.043  1.00  0.00    -0.247 OA 
HETATM   17  C   UNL     1      -8.280   8.711  66.905  1.00  0.00    -0.105 C  
HETATM   18  C   UNL     1      -8.361   8.712  65.459  1.00  0.00    -0.157 A  
HETATM   19  N   UNL     1      -9.390  10.817  67.039  1.00  0.00    -0.155 N  
HETATM   20  C   UNL     1      -7.943   7.568  64.762  1.00  0.00    -0.132 A  
HETATM   21  C   UNL     1      -9.386  10.956  65.611  1.00  0.00    -0.207 C  
HETATM   22  C   UNL     1      -8.869   9.824  64.782  1.00  0.00    -0.239 A  
HETATM   23 CL   UNL     1      -9.441  11.090  62.368  1.00  0.00    -0.242 Cl 
HETATM   24  C   UNL     1      -8.023   7.524  63.376  1.00  0.00    -0.085 A  
HETATM   25  C   UNL     1      -8.493   8.637  62.687  1.00  0.00    -0.163 A  
HETATM   26  C   UNL     1      -8.906   9.788  63.376  1.00  0.00    -0.241 A  
BRANCH  19  27
HETATM   27  C   UNL     1     -10.080  11.871  67.736  1.00  0.00    -0.191 A  
HETATM   28  C   UNL     1      -9.395  13.067  68.015  1.00  0.00    -0.213 A  
HETATM   29  C   UNL     1     -10.026  14.124  68.681  1.00  0.00    -0.222 A  
HETATM   30  C   UNL     1     -11.352  13.997  69.085  1.00  0.00    -0.323 A  
HETATM   31  C   UNL     1     -12.034  12.802  68.843  1.00  0.00    -0.286 A  
HETATM   32  C   UNL     1     -11.395  11.738  68.191  1.00  0.00    -0.348 A  
ENDBRANCH  19  27
ENDBRANCH   2  15
TORSDOF 4
ENDMDL
MODEL      135
REMARK 921   NORMALIZED FREE ENERGY PREDICTED BY IDOCK:   -5.42 KCAL/MOL
REMARK 922        TOTAL FREE ENERGY PREDICTED BY IDOCK:   -7.56 KCAL/MOL
REMARK 923 INTER-LIGAND FREE ENERGY PREDICTED BY IDOCK:   -6.48 KCAL/MOL
REMARK 924 INTRA-LIGAND FREE ENERGY PREDICTED BY IDOCK:   -1.08 KCAL/MOL
REMARK 927      BINDING AFFINITY PREDICTED BY RF-SCORE:    0.00 PKD
ROOT
HETATM    1  C   UNL     1      -7.583  10.363  69.931  1.00  0.00    -0.112 C  
HETATM    2  C   UNL     1      -8.972  10.277  69.301  1.00  0.00    -0.179 C  
ENDROOT
BRANCH   2   3
HETATM    3  N   UNL     1      -9.851   9.314  69.951  1.00  0.00    -0.187 NA 
HETATM    4  H   UNL     1      -9.582   8.333  70.022  1.00  0.00     0.000 HD 
BRANCH   3   5
HETATM    5  C   UNL     1     -11.064   9.755  70.475  1.00  0.00    -0.321 A  
HETATM    6  C   UNL     1     -13.202   9.385  71.457  1.00  0.00    -0.384 A  
HETATM    7  N   UNL     1     -13.535  10.677  71.566  1.00  0.00    -0.218 NA 
HETATM    8  C   UNL     1     -13.229   7.183  71.558  1.00  0.00    -0.360 A  
HETATM    9  H   UNL     1     -11.350   6.811  70.694  1.00  0.00     0.000 HD 
HETATM   10  N   UNL     1     -12.068   7.466  71.004  1.00  0.00    -0.313 NA 
HETATM   11  C   UNL     1     -12.549  11.457  71.082  1.00  0.00    -0.386 A  
HETATM   12  C   UNL     1     -12.038   8.847  70.936  1.00  0.00    -0.177 A  
HETATM   13  N   UNL     1     -13.943   8.313  71.855  1.00  0.00    -0.393 NA 
HETATM   14  N   UNL     1     -11.361  11.081  70.558  1.00  0.00    -0.163 NA 
ENDBRANCH   3   5
ENDBRANCH   2   3
BRANCH   2  15
HETATM   15  C   UNL     1      -9.094  10.108  67.776  1.00  0.00    -0.130 C  
HETATM   16  O   UNL     1      -8.347   8.068  64.895  1.00  0.00    -0.150 OA 
HETATM   17  C   UNL     1      -9.746  11.113  67.160  1.00  0.00    -0.199 C  
HETATM   18  C   UNL     1      -9.855  11.210  65.719  1.00  0.00    -0.279 A  
HETATM   19  N   UNL     1      -8.538   9.064  67.003  1.00  0.00    -0.116 N  
HETATM   20  C   UNL     1     -10.409  12.373  65.163  1.00  0.00    -0.313 A  
HETATM   21  C   UNL     1      -8.724   9.017  65.581  1.00  0.00    -0.175 C  
HETATM   22  C   UNL     1      -9.393  10.171  64.907  1.00  0.00    -0.310 A  
HETATM   23 CL   UNL     1      -9.088   9.094  62.356  1.00  0.00    -0.164 Cl 
HETATM   24  C   UNL     1     -10.514  12.510  63.786  1.00  0.00    -0.451 A  
HETATM   25  C   UNL     1     -10.090  11.469  62.966  1.00  0.00    -0.330 A  
HETATM   26  C   UNL     1      -9.541  10.299  63.513  1.00  0.00    -0.266 A  
BRANCH  19  27
HETATM   27  C   UNL     1      -7.718   8.005  67.530  1.00  0.00    -0.106 A  
HETATM   28  C   UNL     1      -6.321   8.168  67.551  1.00  0.00    -0.056 A  
HETATM   29  C   UNL     1      -5.483   7.170  68.062  1.00  0.00    -0.021 A  
HETATM   30  C   UNL     1      -6.032   5.989  68.555  1.00  0.00    -0.020 A  
HETATM   31  C   UNL     1      -7.415   5.800  68.510  1.00  0.00    -0.085 A  
HETATM   32  C   UNL     1      -8.252   6.794  67.981  1.00  0.00    -0.114 A  
ENDBRANCH  19  27
ENDBRANCH   2  15
TORSDOF 4
ENDMDL
MODEL      136
REMARK 921   NORMALIZED FREE ENERGY PREDICTED BY IDOCK:   -5.41 KCAL/MOL
REMARK 922        TOTAL FREE ENERGY PREDICTED BY IDOCK:   -7.55 KCAL/MOL
REMARK 923 INTER-LIGAND FREE ENERGY PREDICTED BY IDOCK:   -6.67 KCAL/MOL
REMARK 924 INTRA-LIGAND FREE ENERGY PREDICTED BY IDOCK:   -0.88 KCAL/MOL
REMARK 927      BINDING AFFINITY PREDICTED BY RF-SCORE:    0.00 PKD
ROOT
HETATM    1  C   UNL     1      -9.076   9.536  70.297  1.00  0.00    -0.296 C  
HETATM    2  C   UNL     1     -10.001   8.457  69.736  1.00  0.00    -0.191 C  
ENDROOT
BRANCH   2   3
HETATM    3  N   UNL     1     -11.414   8.802  69.806  1.00  0.00    -0.430 NA 
HETATM    4  H   UNL     1     -12.129   8.085  69.690  1.00  0.00     0.000 HD 
BRANCH   3   5
HETATM    5  C   UNL     1     -11.773  10.128  70.036  1.00  0.00    -0.223 A  
HETATM    6  C   UNL     1     -12.106  12.380  69.334  1.00  0.00    -0.180 A  
HETATM    7  N   UNL     1     -12.534  12.837  70.518  1.00  0.00    -0.253 NA 
HETATM    8  C   UNL     1     -11.514  12.239  67.216  1.00  0.00    -0.357 A  
HETATM    9  H   UNL     1     -11.005  10.201  67.172  1.00  0.00     0.000 HD 
HETATM   10  N   UNL     1     -11.340  11.020  67.681  1.00  0.00    -0.434 NA 
HETATM   11  C   UNL     1     -12.539  11.845  71.429  1.00  0.00    -0.240 A  
HETATM   12  C   UNL     1     -11.709  11.094  69.011  1.00  0.00    -0.339 A  
HETATM   13  N   UNL     1     -11.983  13.092  68.179  1.00  0.00    -0.336 NA 
HETATM   14  N   UNL     1     -12.195  10.548  71.260  1.00  0.00    -0.370 NA 
ENDBRANCH   3   5
ENDBRANCH   2   3
BRANCH   2  15
HETATM   15  C   UNL     1      -9.823   7.001  70.202  1.00  0.00    -0.175 C  
HETATM   16  O   UNL     1      -8.437   3.747  69.482  1.00  0.00    -0.062 OA 
HETATM   17  C   UNL     1     -10.410   6.724  71.383  1.00  0.00    -0.223 C  
HETATM   18  C   UNL     1     -10.470   5.386  71.933  1.00  0.00    -0.283 A  
HETATM   19  N   UNL     1      -9.183   5.965  69.485  1.00  0.00    -0.134 N  
HETATM   20  C   UNL     1     -11.241   5.167  73.085  1.00  0.00    -0.398 A  
HETATM   21  C   UNL     1      -9.080   4.642  70.029  1.00  0.00    -0.106 C  
HETATM   22  C   UNL     1      -9.791   4.336  71.309  1.00  0.00    -0.257 A  
HETATM   23 CL   UNL     1      -9.036   1.655  71.301  1.00  0.00    -0.123 Cl 
HETATM   24  C   UNL     1     -11.338   3.895  73.632  1.00  0.00    -0.243 A  
HETATM   25  C   UNL     1     -10.639   2.847  73.041  1.00  0.00    -0.243 A  
HETATM   26  C   UNL     1      -9.860   3.058  71.893  1.00  0.00    -0.166 A  
BRANCH  19  27
HETATM   27  C   UNL     1      -8.630   6.107  68.163  1.00  0.00    -0.115 A  
HETATM   28  C   UNL     1      -9.457   5.880  67.048  1.00  0.00    -0.134 A  
HETATM   29  C   UNL     1      -8.968   6.015  65.744  1.00  0.00    -0.116 A  
HETATM   30  C   UNL     1      -7.638   6.373  65.535  1.00  0.00    -0.087 A  
HETATM   31  C   UNL     1      -6.797   6.569  66.633  1.00  0.00    -0.065 A  
HETATM   32  C   UNL     1      -7.285   6.416  67.939  1.00  0.00    -0.087 A  
ENDBRANCH  19  27
ENDBRANCH   2  15
TORSDOF 4
ENDMDL
MODEL      137
REMARK 921   NORMALIZED FREE ENERGY PREDICTED BY IDOCK:   -5.40 KCAL/MOL
REMARK 922        TOTAL FREE ENERGY PREDICTED BY IDOCK:   -7.54 KCAL/MOL
REMARK 923 INTER-LIGAND FREE ENERGY PREDICTED BY IDOCK:   -6.83 KCAL/MOL
REMARK 924 INTRA-LIGAND FREE ENERGY PREDICTED BY IDOCK:   -0.71 KCAL/MOL
REMARK 927      BINDING AFFINITY PREDICTED BY RF-SCORE:    0.00 PKD
ROOT
HETATM    1  C   UNL     1      -8.905  16.003  65.915  1.00  0.00    -0.191 C  
HETATM    2  C   UNL     1      -9.321  15.302  67.207  1.00  0.00    -0.205 C  
ENDROOT
BRANCH   2   3
HETATM    3  N   UNL     1      -9.066  16.088  68.407  1.00  0.00    -0.187 NA 
HETATM    4  H   UNL     1      -9.301  15.719  69.328  1.00  0.00     0.000 HD 
BRANCH   3   5
HETATM    5  C   UNL     1      -8.496  17.352  68.277  1.00  0.00    -0.249 A  
HETATM    6  C   UNL     1      -8.618  19.692  67.846  1.00  0.00    -0.317 A  
HETATM    7  N   UNL     1      -7.316  19.940  68.035  1.00  0.00    -0.292 NA 
HETATM    8  C   UNL     1     -10.772  19.920  67.438  1.00  0.00    -0.313 A  
HETATM    9  H   UNL     1     -11.344  17.911  67.664  1.00  0.00     0.000 HD 
HETATM   10  N   UNL     1     -10.623  18.633  67.673  1.00  0.00    -0.419 NA 
HETATM   11  C   UNL     1      -6.661  18.803  68.340  1.00  0.00    -0.248 A  
HETATM   12  C   UNL     1      -9.274  18.476  67.932  1.00  0.00    -0.290 A  
HETATM   13  N   UNL     1      -9.587  20.599  67.540  1.00  0.00    -0.409 NA 
HETATM   14  N   UNL     1      -7.164  17.554  68.471  1.00  0.00    -0.229 NA 
ENDBRANCH   3   5
ENDBRANCH   2   3
BRANCH   2  15
HETATM   15  C   UNL     1      -8.861  13.855  67.456  1.00  0.00    -0.196 C  
HETATM   16  O   UNL     1      -9.174  10.384  66.520  1.00  0.00    -0.156 OA 
HETATM   17  C   UNL     1      -7.944  13.728  68.435  1.00  0.00    -0.144 C  
HETATM   18  C   UNL     1      -7.479  12.441  68.911  1.00  0.00     0.001 A  
HETATM   19  N   UNL     1      -9.357  12.698  66.815  1.00  0.00    -0.227 N  
HETATM   20  C   UNL     1      -6.649  12.403  70.041  1.00  0.00     0.200 A  
HETATM   21  C   UNL     1      -8.844  11.397  67.134  1.00  0.00    -0.156 C  
HETATM   22  C   UNL     1      -7.875  11.267  68.266  1.00  0.00    -0.130 A  
HETATM   23 CL   UNL     1      -7.707   8.496  68.045  1.00  0.00    -0.101 Cl 
HETATM   24  C   UNL     1      -6.198  11.188  70.539  1.00  0.00    -0.024 A  
HETATM   25  C   UNL     1      -6.555  10.013  69.886  1.00  0.00    -0.089 A  
HETATM   26  C   UNL     1      -7.379  10.042  68.750  1.00  0.00    -0.078 A  
BRANCH  19  27
HETATM   27  C   UNL     1     -10.421  12.693  65.845  1.00  0.00    -0.274 A  
HETATM   28  C   UNL     1     -10.106  12.516  64.485  1.00  0.00    -0.273 A  
HETATM   29  C   UNL     1     -11.106  12.495  63.507  1.00  0.00    -0.497 A  
HETATM   30  C   UNL     1     -12.440  12.658  63.874  1.00  0.00    -0.498 A  
HETATM   31  C   UNL     1     -12.763  12.867  65.217  1.00  0.00    -0.389 A  
HETATM   32  C   UNL     1     -11.758  12.906  66.193  1.00  0.00    -0.451 A  
ENDBRANCH  19  27
ENDBRANCH   2  15
TORSDOF 4
ENDMDL
MODEL      138
REMARK 921   NORMALIZED FREE ENERGY PREDICTED BY IDOCK:   -5.33 KCAL/MOL
REMARK 922        TOTAL FREE ENERGY PREDICTED BY IDOCK:   -7.45 KCAL/MOL
REMARK 923 INTER-LIGAND FREE ENERGY PREDICTED BY IDOCK:   -6.03 KCAL/MOL
REMARK 924 INTRA-LIGAND FREE ENERGY PREDICTED BY IDOCK:   -1.42 KCAL/MOL
REMARK 927      BINDING AFFINITY PREDICTED BY RF-SCORE:    0.00 PKD
ROOT
HETATM    1  C   UNL     1      -7.292   9.170  70.599  1.00  0.00    -0.114 C  
HETATM    2  C   UNL     1      -8.678   8.676  70.190  1.00  0.00    -0.143 C  
ENDROOT
BRANCH   2   3
HETATM    3  N   UNL     1      -9.596   8.515  71.311  1.00  0.00    -0.184 NA 
HETATM    4  H   UNL     1      -9.299   8.031  72.158  1.00  0.00     0.000 HD 
BRANCH   3   5
HETATM    5  C   UNL     1     -10.885   9.032  71.206  1.00  0.00    -0.315 A  
HETATM    6  C   UNL     1     -13.253   8.860  71.390  1.00  0.00    -0.262 A  
HETATM    7  N   UNL     1     -13.519  10.115  71.006  1.00  0.00    -0.278 NA 
HETATM    8  C   UNL     1     -13.459   6.776  72.079  1.00  0.00     0.032 A  
HETATM    9  H   UNL     1     -11.423   6.258  72.108  1.00  0.00     0.000 HD 
HETATM   10  N   UNL     1     -12.160   6.943  71.938  1.00  0.00    -0.325 NA 
HETATM   11  C   UNL     1     -12.375  10.770  70.725  1.00  0.00    -0.383 A  
HETATM   12  C   UNL     1     -12.017   8.248  71.506  1.00  0.00    -0.296 A  
HETATM   13  N   UNL     1     -14.157   7.912  71.766  1.00  0.00    -0.415 NA 
HETATM   14  N   UNL     1     -11.105  10.314  70.803  1.00  0.00    -0.304 NA 
ENDBRANCH   3   5
ENDBRANCH   2   3
BRANCH   2  15
HETATM   15  C   UNL     1      -8.795   7.446  69.274  1.00  0.00    -0.136 C  
HETATM   16  O   UNL     1      -9.106   6.216  65.895  1.00  0.00    -0.151 OA 
HETATM   17  C   UNL     1      -8.792   6.268  69.928  1.00  0.00    -0.141 C  
HETATM   18  C   UNL     1      -9.021   5.001  69.263  1.00  0.00    -0.127 A  
HETATM   19  N   UNL     1      -8.969   7.461  67.871  1.00  0.00    -0.132 N  
HETATM   20  C   UNL     1      -9.162   3.847  70.047  1.00  0.00    -0.220 A  
HETATM   21  C   UNL     1      -9.064   6.240  67.124  1.00  0.00    -0.119 C  
HETATM   22  C   UNL     1      -9.123   4.945  67.871  1.00  0.00    -0.127 A  
HETATM   23 CL   UNL     1      -9.410   3.415  65.561  1.00  0.00    -0.157 Cl 
HETATM   24  C   UNL     1      -9.401   2.618  69.448  1.00  0.00    -0.183 A  
HETATM   25  C   UNL     1      -9.469   2.541  68.061  1.00  0.00    -0.203 A  
HETATM   26  C   UNL     1      -9.323   3.690  67.268  1.00  0.00    -0.202 A  
BRANCH  19  27
HETATM   27  C   UNL     1      -9.112   8.654  67.078  1.00  0.00    -0.138 A  
HETATM   28  C   UNL     1      -7.957   9.307  66.612  1.00  0.00    -0.108 A  
HETATM   29  C   UNL     1      -8.045  10.464  65.829  1.00  0.00    -0.155 A  
HETATM   30  C   UNL     1      -9.294  10.990  65.507  1.00  0.00    -0.242 A  
HETATM   31  C   UNL     1     -10.448  10.370  65.992  1.00  0.00    -0.211 A  
HETATM   32  C   UNL     1     -10.357   9.221  66.790  1.00  0.00    -0.296 A  
ENDBRANCH  19  27
ENDBRANCH   2  15
TORSDOF 4
ENDMDL
MODEL      139
REMARK 921   NORMALIZED FREE ENERGY PREDICTED BY IDOCK:   -5.33 KCAL/MOL
REMARK 922        TOTAL FREE ENERGY PREDICTED BY IDOCK:   -7.45 KCAL/MOL
REMARK 923 INTER-LIGAND FREE ENERGY PREDICTED BY IDOCK:   -7.18 KCAL/MOL
REMARK 924 INTRA-LIGAND FREE ENERGY PREDICTED BY IDOCK:   -0.28 KCAL/MOL
REMARK 927      BINDING AFFINITY PREDICTED BY RF-SCORE:    0.00 PKD
ROOT
HETATM    1  C   UNL     1      -9.923  15.138  69.373  1.00  0.00    -0.232 C  
HETATM    2  C   UNL     1     -10.390  14.293  68.189  1.00  0.00    -0.233 C  
ENDROOT
BRANCH   2   3
HETATM    3  N   UNL     1     -11.763  13.821  68.313  1.00  0.00    -0.339 NA 
HETATM    4  H   UNL     1     -12.340  13.682  67.484  1.00  0.00     0.000 HD 
BRANCH   3   5
HETATM    5  C   UNL     1     -12.275  13.562  69.583  1.00  0.00    -0.247 A  
HETATM    6  C   UNL     1     -12.760  12.117  71.413  1.00  0.00    -0.263 A  
HETATM    7  N   UNL     1     -13.308  13.056  72.195  1.00  0.00    -0.522 NA 
HETATM    8  C   UNL     1     -11.984  10.204  70.639  1.00  0.00    -0.332 A  
HETATM    9  H   UNL     1     -11.332  10.874  68.757  1.00  0.00     0.000 HD 
HETATM   10  N   UNL     1     -11.763  11.061  69.663  1.00  0.00    -0.298 NA 
HETATM   11  C   UNL     1     -13.306  14.248  71.568  1.00  0.00    -0.354 A  
HETATM   12  C   UNL     1     -12.244  12.267  70.137  1.00  0.00    -0.226 A  
HETATM   13  N   UNL     1     -12.578  10.801  71.718  1.00  0.00    -0.343 NA 
HETATM   14  N   UNL     1     -12.830  14.549  70.338  1.00  0.00    -0.322 NA 
ENDBRANCH   3   5
ENDBRANCH   2   3
BRANCH   2  15
HETATM   15  C   UNL     1      -9.508  13.129  67.705  1.00  0.00    -0.207 C  
HETATM   16  O   UNL     1      -8.690  10.882  65.001  1.00  0.00    -0.179 OA 
HETATM   17  C   UNL     1      -8.629  12.683  68.623  1.00  0.00     0.046 C  
HETATM   18  C   UNL     1      -7.799  11.515  68.412  1.00  0.00    -0.136 A  
HETATM   19  N   UNL     1      -9.597  12.476  66.454  1.00  0.00    -0.245 N  
HETATM   20  C   UNL     1      -7.034  11.031  69.484  1.00  0.00    -0.126 A  
HETATM   21  C   UNL     1      -8.713  11.398  66.118  1.00  0.00    -0.153 C  
HETATM   22  C   UNL     1      -7.788  10.874  67.170  1.00  0.00    -0.127 A  
HETATM   23 CL   UNL     1      -6.754   8.877  65.527  1.00  0.00    -0.071 Cl 
HETATM   24  C   UNL     1      -6.241   9.903  69.326  1.00  0.00    -0.040 A  
HETATM   25  C   UNL     1      -6.192   9.276  68.085  1.00  0.00    -0.053 A  
HETATM   26  C   UNL     1      -6.948   9.757  67.005  1.00  0.00    -0.085 A  
BRANCH  19  27
HETATM   27  C   UNL     1     -10.576  12.778  65.443  1.00  0.00    -0.287 A  
HETATM   28  C   UNL     1     -11.327  11.727  64.884  1.00  0.00    -0.299 A  
HETATM   29  C   UNL     1     -12.297  11.972  63.905  1.00  0.00    -0.553 A  
HETATM   30  C   UNL     1     -12.525  13.273  63.464  1.00  0.00    -0.328 A  
HETATM   31  C   UNL     1     -11.763  14.321  63.986  1.00  0.00    -0.190 A  
HETATM   32  C   UNL     1     -10.780  14.071  64.955  1.00  0.00    -0.432 A  
ENDBRANCH  19  27
ENDBRANCH   2  15
TORSDOF 4
ENDMDL
MODEL      140
REMARK 921   NORMALIZED FREE ENERGY PREDICTED BY IDOCK:   -5.32 KCAL/MOL
REMARK 922        TOTAL FREE ENERGY PREDICTED BY IDOCK:   -7.44 KCAL/MOL
REMARK 923 INTER-LIGAND FREE ENERGY PREDICTED BY IDOCK:   -6.03 KCAL/MOL
REMARK 924 INTRA-LIGAND FREE ENERGY PREDICTED BY IDOCK:   -1.40 KCAL/MOL
REMARK 927      BINDING AFFINITY PREDICTED BY RF-SCORE:    0.00 PKD
ROOT
HETATM    1  C   UNL     1      -6.833   8.345  71.214  1.00  0.00    -0.065 C  
HETATM    2  C   UNL     1      -8.178   8.063  70.548  1.00  0.00    -0.118 C  
ENDROOT
BRANCH   2   3
HETATM    3  N   UNL     1      -9.325   8.358  71.397  1.00  0.00    -0.172 NA 
HETATM    4  H   UNL     1      -9.408   7.934  72.321  1.00  0.00     0.000 HD 
BRANCH   3   5
HETATM    5  C   UNL     1     -10.305   9.229  70.928  1.00  0.00    -0.296 A  
HETATM    6  C   UNL     1     -12.500  10.152  70.950  1.00  0.00    -0.360 A  
HETATM    7  N   UNL     1     -12.294  11.038  69.967  1.00  0.00    -0.319 NA 
HETATM    8  C   UNL     1     -13.423   8.971  72.566  1.00  0.00    -0.429 A  
HETATM    9  H   UNL     1     -11.774   7.757  73.041  1.00  0.00     0.000 HD 
HETATM   10  N   UNL     1     -12.196   8.500  72.483  1.00  0.00    -0.371 NA 
HETATM   11  C   UNL     1     -11.032  10.938  69.504  1.00  0.00    -0.253 A  
HETATM   12  C   UNL     1     -11.605   9.235  71.472  1.00  0.00    -0.382 A  
HETATM   13  N   UNL     1     -13.648   9.975  71.663  1.00  0.00    -0.273 NA 
HETATM   14  N   UNL     1     -10.048  10.108  69.919  1.00  0.00    -0.242 NA 
ENDBRANCH   3   5
ENDBRANCH   2   3
BRANCH   2  15
HETATM   15  C   UNL     1      -8.405   6.703  69.865  1.00  0.00    -0.132 C  
HETATM   16  O   UNL     1      -8.867   4.922  66.760  1.00  0.00    -0.111 OA 
HETATM   17  C   UNL     1      -8.484   5.663  70.719  1.00  0.00    -0.124 C  
HETATM   18  C   UNL     1      -8.822   4.321  70.291  1.00  0.00    -0.133 A  
HETATM   19  N   UNL     1      -8.601   6.482  68.483  1.00  0.00    -0.123 N  
HETATM   20  C   UNL     1      -9.040   3.338  71.268  1.00  0.00    -0.178 A  
HETATM   21  C   UNL     1      -8.803   5.160  67.966  1.00  0.00    -0.102 C  
HETATM   22  C   UNL     1      -8.951   4.027  68.931  1.00  0.00    -0.168 A  
HETATM   23 CL   UNL     1      -9.395   2.140  66.931  1.00  0.00    -0.044 Cl 
HETATM   24  C   UNL     1      -9.384   2.046  70.898  1.00  0.00    -0.198 A  
HETATM   25  C   UNL     1      -9.481   1.730  69.547  1.00  0.00    -0.123 A  
HETATM   26  C   UNL     1      -9.258   2.705  68.562  1.00  0.00    -0.185 A  
BRANCH  19  27
HETATM   27  C   UNL     1      -8.664   7.523  67.491  1.00  0.00    -0.125 A  
HETATM   28  C   UNL     1      -7.467   8.000  66.924  1.00  0.00    -0.091 A  
HETATM   29  C   UNL     1      -7.478   9.004  65.949  1.00  0.00    -0.094 A  
HETATM   30  C   UNL     1      -8.688   9.552  65.530  1.00  0.00    -0.180 A  
HETATM   31  C   UNL     1      -9.881   9.111  66.108  1.00  0.00    -0.363 A  
HETATM   32  C   UNL     1      -9.866   8.117  67.098  1.00  0.00    -0.281 A  
ENDBRANCH  19  27
ENDBRANCH   2  15
TORSDOF 4
ENDMDL
MODEL      141
REMARK 921   NORMALIZED FREE ENERGY PREDICTED BY IDOCK:   -5.31 KCAL/MOL
REMARK 922        TOTAL FREE ENERGY PREDICTED BY IDOCK:   -7.42 KCAL/MOL
REMARK 923 INTER-LIGAND FREE ENERGY PREDICTED BY IDOCK:   -6.73 KCAL/MOL
REMARK 924 INTRA-LIGAND FREE ENERGY PREDICTED BY IDOCK:   -0.69 KCAL/MOL
REMARK 927      BINDING AFFINITY PREDICTED BY RF-SCORE:    0.00 PKD
ROOT
HETATM    1  C   UNL     1     -10.905  15.191  69.210  1.00  0.00    -0.255 C  
HETATM    2  C   UNL     1      -9.568  14.682  68.674  1.00  0.00    -0.219 C  
ENDROOT
BRANCH   2   3
HETATM    3  N   UNL     1      -8.663  15.745  68.254  1.00  0.00    -0.169 NA 
HETATM    4  H   UNL     1      -7.671  15.556  68.114  1.00  0.00     0.000 HD 
BRANCH   3   5
HETATM    5  C   UNL     1      -9.176  17.023  68.047  1.00  0.00    -0.241 A  
HETATM    6  C   UNL     1     -10.353  18.647  66.763  1.00  0.00    -0.407 A  
HETATM    7  N   UNL     1     -10.238  19.643  67.650  1.00  0.00    -0.407 NA 
HETATM    8  C   UNL     1     -10.871  17.459  64.979  1.00  0.00     0.285 A  
HETATM    9  H   UNL     1      -9.966  15.648  65.541  1.00  0.00     0.000 HD 
HETATM   10  N   UNL     1     -10.195  16.622  65.739  1.00  0.00    -0.500 NA 
HETATM   11  C   UNL     1      -9.550  19.229  68.732  1.00  0.00    -0.425 A  
HETATM   12  C   UNL     1      -9.865  17.356  66.864  1.00  0.00    -0.289 A  
HETATM   13  N   UNL     1     -10.996  18.692  65.562  1.00  0.00    -0.327 NA 
HETATM   14  N   UNL     1      -9.026  18.006  68.977  1.00  0.00    -0.100 NA 
ENDBRANCH   3   5
ENDBRANCH   2   3
BRANCH   2  15
HETATM   15  C   UNL     1      -9.561  13.576  67.605  1.00  0.00    -0.222 C  
HETATM   16  O   UNL     1      -7.950  10.601  66.347  1.00  0.00    -0.130 OA 
HETATM   17  C   UNL     1     -10.549  13.682  66.695  1.00  0.00    -0.277 C  
HETATM   18  C   UNL     1     -10.642  12.819  65.535  1.00  0.00    -0.303 A  
HETATM   19  N   UNL     1      -8.601  12.548  67.470  1.00  0.00    -0.172 N  
HETATM   20  C   UNL     1     -11.608  13.107  64.559  1.00  0.00    -0.406 A  
HETATM   21  C   UNL     1      -8.705  11.569  66.426  1.00  0.00    -0.179 C  
HETATM   22  C   UNL     1      -9.768  11.738  65.389  1.00  0.00    -0.242 A  
HETATM   23 CL   UNL     1      -8.967   9.499  63.939  1.00  0.00    -0.246 Cl 
HETATM   24  C   UNL     1     -11.716  12.314  63.424  1.00  0.00    -0.542 A  
HETATM   25  C   UNL     1     -10.876  11.214  63.283  1.00  0.00    -0.115 A  
HETATM   26  C   UNL     1      -9.912  10.914  64.258  1.00  0.00    -0.333 A  
BRANCH  19  27
HETATM   27  C   UNL     1      -7.435  12.405  68.302  1.00  0.00    -0.124 A  
HETATM   28  C   UNL     1      -7.441  11.441  69.328  1.00  0.00    -0.005 A  
HETATM   29  C   UNL     1      -6.328  11.259  70.156  1.00  0.00    -0.120 A  
HETATM   30  C   UNL     1      -5.192  12.044  69.976  1.00  0.00    -0.088 A  
HETATM   31  C   UNL     1      -5.184  13.026  68.983  1.00  0.00    -0.068 A  
HETATM   32  C   UNL     1      -6.307  13.220  68.165  1.00  0.00    -0.110 A  
ENDBRANCH  19  27
ENDBRANCH   2  15
TORSDOF 4
ENDMDL
MODEL      142
REMARK 921   NORMALIZED FREE ENERGY PREDICTED BY IDOCK:   -5.28 KCAL/MOL
REMARK 922        TOTAL FREE ENERGY PREDICTED BY IDOCK:   -7.39 KCAL/MOL
REMARK 923 INTER-LIGAND FREE ENERGY PREDICTED BY IDOCK:   -7.57 KCAL/MOL
REMARK 924 INTRA-LIGAND FREE ENERGY PREDICTED BY IDOCK:    0.18 KCAL/MOL
REMARK 927      BINDING AFFINITY PREDICTED BY RF-SCORE:    0.00 PKD
ROOT
HETATM    1  C   UNL     1     -12.174  13.115  67.682  1.00  0.00    -0.150 C  
HETATM    2  C   UNL     1     -11.855  11.805  68.401  1.00  0.00    -0.282 C  
ENDROOT
BRANCH   2   3
HETATM    3  N   UNL     1     -11.419  11.987  69.780  1.00  0.00    -0.476 NA 
HETATM    4  H   UNL     1     -10.485  11.700  70.070  1.00  0.00     0.000 HD 
BRANCH   3   5
HETATM    5  C   UNL     1     -12.300  12.558  70.695  1.00  0.00    -0.282 A  
HETATM    6  C   UNL     1     -13.144  14.396  71.953  1.00  0.00    -0.355 A  
HETATM    7  N   UNL     1     -14.127  13.717  72.558  1.00  0.00    -0.754 NA 
HETATM    8  C   UNL     1     -11.781  16.000  71.296  1.00  0.00    -0.461 A  
HETATM    9  H   UNL     1     -10.582  14.871  69.991  1.00  0.00     0.000 HD 
HETATM   10  N   UNL     1     -11.362  14.934  70.647  1.00  0.00    -0.256 NA 
HETATM   11  C   UNL     1     -14.114  12.427  72.167  1.00  0.00     0.364 A  
HETATM   12  C   UNL     1     -12.210  13.919  71.049  1.00  0.00    -0.342 A  
HETATM   13  N   UNL     1     -12.861  15.722  72.091  1.00  0.00    -0.430 NA 
HETATM   14  N   UNL     1     -13.279  11.823  71.291  1.00  0.00    -0.120 NA 
ENDBRANCH   3   5
ENDBRANCH   2   3
BRANCH   2  15
HETATM   15  C   UNL     1     -10.930  10.782  67.720  1.00  0.00    -0.297 C  
HETATM   16  O   UNL     1      -9.212   9.806  64.700  1.00  0.00    -0.236 OA 
HETATM   17  C   UNL     1     -10.543   9.770  68.520  1.00  0.00    -0.252 C  
HETATM   18  C   UNL     1      -9.779   8.637  68.037  1.00  0.00    -0.184 A  
HETATM   19  N   UNL     1     -10.534  10.786  66.363  1.00  0.00    -0.247 N  
HETATM   20  C   UNL     1      -9.562   7.555  68.903  1.00  0.00    -0.149 A  
HETATM   21  C   UNL     1      -9.662   9.772  65.844  1.00  0.00    -0.266 C  
HETATM   22  C   UNL     1      -9.294   8.622  66.727  1.00  0.00    -0.229 A  
HETATM   23 CL   UNL     1      -7.805   7.344  64.751  1.00  0.00    -0.121 Cl 
HETATM   24  C   UNL     1      -8.850   6.444  68.471  1.00  0.00    -0.119 A  
HETATM   25  C   UNL     1      -8.331   6.430  67.180  1.00  0.00    -0.112 A  
HETATM   26  C   UNL     1      -8.538   7.512  66.310  1.00  0.00    -0.145 A  
BRANCH  19  27
HETATM   27  C   UNL     1     -10.982  11.741  65.384  1.00  0.00    -0.297 A  
HETATM   28  C   UNL     1     -11.967  11.357  64.456  1.00  0.00     0.221 A  
HETATM   29  C   UNL     1     -12.442  12.253  63.492  1.00  0.00    -0.642 A  
HETATM   30  C   UNL     1     -11.931  13.548  63.436  1.00  0.00    -0.314 A  
HETATM   31  C   UNL     1     -10.929  13.932  64.330  1.00  0.00    -0.322 A  
HETATM   32  C   UNL     1     -10.442  13.027  65.285  1.00  0.00    -0.318 A  
ENDBRANCH  19  27
ENDBRANCH   2  15
TORSDOF 4
ENDMDL
MODEL      143
REMARK 921   NORMALIZED FREE ENERGY PREDICTED BY IDOCK:   -5.26 KCAL/MOL
REMARK 922        TOTAL FREE ENERGY PREDICTED BY IDOCK:   -7.36 KCAL/MOL
REMARK 923 INTER-LIGAND FREE ENERGY PREDICTED BY IDOCK:   -6.32 KCAL/MOL
REMARK 924 INTRA-LIGAND FREE ENERGY PREDICTED BY IDOCK:   -1.04 KCAL/MOL
REMARK 927      BINDING AFFINITY PREDICTED BY RF-SCORE:    0.00 PKD
ROOT
HETATM    1  C   UNL     1      -9.242   6.124  65.811  1.00  0.00    -0.014 C  
HETATM    2  C   UNL     1      -9.402   6.992  67.058  1.00  0.00    -0.146 C  
ENDROOT
BRANCH   2   3
HETATM    3  N   UNL     1     -10.508   6.585  67.916  1.00  0.00    -0.195 NA 
HETATM    4  H   UNL     1     -11.470   6.811  67.664  1.00  0.00     0.000 HD 
BRANCH   3   5
HETATM    5  C   UNL     1     -10.230   5.883  69.086  1.00  0.00    -0.215 A  
HETATM    6  C   UNL     1     -10.680   5.276  71.345  1.00  0.00    -0.133 A  
HETATM    7  N   UNL     1      -9.658   4.419  71.470  1.00  0.00    -0.152 NA 
HETATM    8  C   UNL     1     -12.474   6.493  71.745  1.00  0.00    -0.240 A  
HETATM    9  H   UNL     1     -12.628   7.440  69.876  1.00  0.00     0.000 HD 
HETATM   10  N   UNL     1     -12.152   6.791  70.503  1.00  0.00    -0.350 NA 
HETATM   11  C   UNL     1      -8.951   4.365  70.324  1.00  0.00    -0.088 A  
HETATM   12  C   UNL     1     -11.027   6.032  70.239  1.00  0.00    -0.342 A  
HETATM   13  N   UNL     1     -11.616   5.576  72.290  1.00  0.00    -0.175 NA 
HETATM   14  N   UNL     1      -9.173   5.029  69.167  1.00  0.00    -0.104 NA 
ENDBRANCH   3   5
ENDBRANCH   2   3
BRANCH   2  15
HETATM   15  C   UNL     1      -9.429   8.523  66.907  1.00  0.00    -0.183 C  
HETATM   16  O   UNL     1      -9.028  11.724  68.525  1.00  0.00    -0.180 OA 
HETATM   17  C   UNL     1      -9.728   8.950  65.665  1.00  0.00    -0.107 C  
HETATM   18  C   UNL     1      -9.931  10.348  65.344  1.00  0.00    -0.362 A  
HETATM   19  N   UNL     1      -9.245   9.469  67.941  1.00  0.00    -0.126 N  
HETATM   20  C   UNL     1     -10.398  10.682  64.064  1.00  0.00    -0.262 A  
HETATM   21  C   UNL     1      -9.293  10.877  67.672  1.00  0.00    -0.156 C  
HETATM   22  C   UNL     1      -9.688  11.333  66.304  1.00  0.00    -0.246 A  
HETATM   23 CL   UNL     1      -9.566  14.035  66.970  1.00  0.00    -0.244 Cl 
HETATM   24  C   UNL     1     -10.622  12.009  63.725  1.00  0.00    -0.478 A  
HETATM   25  C   UNL     1     -10.350  13.004  64.659  1.00  0.00    -0.374 A  
HETATM   26  C   UNL     1      -9.876  12.679  65.940  1.00  0.00    -0.244 A  
BRANCH  19  27
HETATM   27  C   UNL     1      -9.044   9.136  69.327  1.00  0.00    -0.146 A  
HETATM   28  C   UNL     1      -7.845   8.509  69.713  1.00  0.00    -0.094 A  
HETATM   29  C   UNL     1      -7.601   8.175  71.050  1.00  0.00    -0.083 A  
HETATM   30  C   UNL     1      -8.557   8.457  72.022  1.00  0.00    -0.254 A  
HETATM   31  C   UNL     1      -9.765   9.050  71.648  1.00  0.00    -0.347 A  
HETATM   32  C   UNL     1     -10.016   9.368  70.305  1.00  0.00    -0.284 A  
ENDBRANCH  19  27
ENDBRANCH   2  15
TORSDOF 4
ENDMDL
MODEL      144
REMARK 921   NORMALIZED FREE ENERGY PREDICTED BY IDOCK:   -5.25 KCAL/MOL
REMARK 922        TOTAL FREE ENERGY PREDICTED BY IDOCK:   -7.35 KCAL/MOL
REMARK 923 INTER-LIGAND FREE ENERGY PREDICTED BY IDOCK:   -6.89 KCAL/MOL
REMARK 924 INTRA-LIGAND FREE ENERGY PREDICTED BY IDOCK:   -0.46 KCAL/MOL
REMARK 927      BINDING AFFINITY PREDICTED BY RF-SCORE:    0.00 PKD
ROOT
HETATM    1  C   UNL     1      -9.234  12.296  68.147  1.00  0.00    -0.197 C  
HETATM    2  C   UNL     1     -10.140  11.212  67.565  1.00  0.00    -0.183 C  
ENDROOT
BRANCH   2   3
HETATM    3  N   UNL     1     -11.553  11.412  67.855  1.00  0.00    -0.496 NA 
HETATM    4  H   UNL     1     -12.266  10.892  67.344  1.00  0.00     0.000 HD 
BRANCH   3   5
HETATM    5  C   UNL     1     -11.916  12.325  68.842  1.00  0.00    -0.248 A  
HETATM    6  C   UNL     1     -12.740  12.884  71.006  1.00  0.00    -0.251 A  
HETATM    7  N   UNL     1     -12.633  14.211  70.862  1.00  0.00    -0.342 NA 
HETATM    8  C   UNL     1     -13.121  10.874  71.829  1.00  0.00    -0.459 A  
HETATM    9  H   UNL     1     -12.536   9.741  70.159  1.00  0.00     0.000 HD 
HETATM   10  N   UNL     1     -12.672  10.645  70.612  1.00  0.00    -0.364 NA 
HETATM   11  C   UNL     1     -12.155  14.512  69.639  1.00  0.00    -0.323 A  
HETATM   12  C   UNL     1     -12.428  11.899  70.084  1.00  0.00    -0.077 A  
HETATM   13  N   UNL     1     -13.171  12.213  72.111  1.00  0.00    -0.453 NA 
HETATM   14  N   UNL     1     -11.796  13.667  68.645  1.00  0.00    -0.358 NA 
ENDBRANCH   3   5
ENDBRANCH   2   3
BRANCH   2  15
HETATM   15  C   UNL     1      -9.789   9.733  67.807  1.00  0.00    -0.160 C  
HETATM   16  O   UNL     1      -7.971   6.834  66.661  1.00  0.00    -0.105 OA 
HETATM   17  C   UNL     1     -10.371   9.200  68.899  1.00  0.00    -0.232 C  
HETATM   18  C   UNL     1     -10.274   7.793  69.231  1.00  0.00    -0.211 A  
HETATM   19  N   UNL     1      -8.998   8.913  66.971  1.00  0.00    -0.125 N  
HETATM   20  C   UNL     1     -11.045   7.298  70.294  1.00  0.00    -0.289 A  
HETATM   21  C   UNL     1      -8.742   7.542  67.307  1.00  0.00    -0.121 C  
HETATM   22  C   UNL     1      -9.446   6.949  68.486  1.00  0.00    -0.133 A  
HETATM   23 CL   UNL     1      -8.350   4.418  68.099  1.00  0.00    -0.093 Cl 
HETATM   24  C   UNL     1     -10.993   5.953  70.630  1.00  0.00    -0.357 A  
HETATM   25  C   UNL     1     -10.146   5.108  69.920  1.00  0.00    -0.342 A  
HETATM   26  C   UNL     1      -9.365   5.595  68.860  1.00  0.00    -0.120 A  
BRANCH  19  27
HETATM   27  C   UNL     1      -8.428   9.332  65.717  1.00  0.00    -0.135 A  
HETATM   28  C   UNL     1      -7.082   9.738  65.681  1.00  0.00    -0.105 A  
HETATM   29  C   UNL     1      -6.480  10.145  64.485  1.00  0.00    -0.124 A  
HETATM   30  C   UNL     1      -7.221  10.159  63.305  1.00  0.00    -0.129 A  
HETATM   31  C   UNL     1      -8.567   9.790  63.333  1.00  0.00    -0.205 A  
HETATM   32  C   UNL     1      -9.173   9.399  64.536  1.00  0.00    -0.155 A  
ENDBRANCH  19  27
ENDBRANCH   2  15
TORSDOF 4
ENDMDL
MODEL      145
REMARK 921   NORMALIZED FREE ENERGY PREDICTED BY IDOCK:   -5.25 KCAL/MOL
REMARK 922        TOTAL FREE ENERGY PREDICTED BY IDOCK:   -7.35 KCAL/MOL
REMARK 923 INTER-LIGAND FREE ENERGY PREDICTED BY IDOCK:   -6.58 KCAL/MOL
REMARK 924 INTRA-LIGAND FREE ENERGY PREDICTED BY IDOCK:   -0.77 KCAL/MOL
REMARK 927      BINDING AFFINITY PREDICTED BY RF-SCORE:    0.00 PKD
ROOT
HETATM    1  C   UNL     1     -11.964  11.530  70.380  1.00  0.00    -0.459 C  
HETATM    2  C   UNL     1     -10.922  11.093  69.353  1.00  0.00    -0.244 C  
ENDROOT
BRANCH   2   3
HETATM    3  N   UNL     1     -11.438  11.012  67.993  1.00  0.00    -0.443 NA 
HETATM    4  H   UNL     1     -11.863  10.150  67.650  1.00  0.00     0.000 HD 
BRANCH   3   5
HETATM    5  C   UNL     1     -11.343  12.130  67.168  1.00  0.00    -0.331 A  
HETATM    6  C   UNL     1     -10.699  13.221  65.152  1.00  0.00    -0.322 A  
HETATM    7  N   UNL     1     -11.178  14.428  65.482  1.00  0.00    -0.320 NA 
HETATM    8  C   UNL     1      -9.762  11.549  64.064  1.00  0.00    -0.223 A  
HETATM    9  H   UNL     1     -10.011  10.055  65.520  1.00  0.00     0.000 HD 
HETATM   10  N   UNL     1     -10.134  11.020  65.211  1.00  0.00    -0.259 NA 
HETATM   11  C   UNL     1     -11.728  14.393  66.711  1.00  0.00    -0.397 A  
HETATM   12  C   UNL     1     -10.725  12.060  65.904  1.00  0.00    -0.275 A  
HETATM   13  N   UNL     1     -10.090  12.876  63.983  1.00  0.00    -0.316 NA 
HETATM   14  N   UNL     1     -11.839  13.339  67.553  1.00  0.00    -0.361 NA 
ENDBRANCH   3   5
ENDBRANCH   2   3
BRANCH   2  15
HETATM   15  C   UNL     1     -10.071   9.842  69.634  1.00  0.00    -0.229 C  
HETATM   16  O   UNL     1      -6.758   8.423  69.831  1.00  0.00    -0.041 OA 
HETATM   17  C   UNL     1     -10.789   8.746  69.951  1.00  0.00    -0.211 C  
HETATM   18  C   UNL     1     -10.189   7.439  70.124  1.00  0.00    -0.207 A  
HETATM   19  N   UNL     1      -8.666   9.742  69.521  1.00  0.00    -0.169 N  
HETATM   20  C   UNL     1     -11.032   6.330  70.291  1.00  0.00    -0.400 A  
HETATM   21  C   UNL     1      -7.985   8.514  69.814  1.00  0.00    -0.103 C  
HETATM   22  C   UNL     1      -8.800   7.293  70.100  1.00  0.00    -0.145 A  
HETATM   23 CL   UNL     1      -6.571   5.643  70.362  1.00  0.00    -0.044 Cl 
HETATM   24  C   UNL     1     -10.495   5.059  70.442  1.00  0.00    -0.237 A  
HETATM   25  C   UNL     1      -9.113   4.903  70.456  1.00  0.00    -0.176 A  
HETATM   26  C   UNL     1      -8.262   6.008  70.297  1.00  0.00    -0.119 A  
BRANCH  19  27
HETATM   27  C   UNL     1      -7.805  10.805  69.072  1.00  0.00    -0.138 A  
HETATM   28  C   UNL     1      -7.866  11.211  67.726  1.00  0.00    -0.114 A  
HETATM   29  C   UNL     1      -7.056  12.246  67.245  1.00  0.00    -0.138 A  
HETATM   30  C   UNL     1      -6.166  12.887  68.103  1.00  0.00    -0.093 A  
HETATM   31  C   UNL     1      -6.072  12.472  69.433  1.00  0.00    -0.108 A  
HETATM   32  C   UNL     1      -6.872  11.423  69.909  1.00  0.00     0.038 A  
ENDBRANCH  19  27
ENDBRANCH   2  15
TORSDOF 4
ENDMDL
MODEL      146
REMARK 921   NORMALIZED FREE ENERGY PREDICTED BY IDOCK:   -5.25 KCAL/MOL
REMARK 922        TOTAL FREE ENERGY PREDICTED BY IDOCK:   -7.35 KCAL/MOL
REMARK 923 INTER-LIGAND FREE ENERGY PREDICTED BY IDOCK:   -6.73 KCAL/MOL
REMARK 924 INTRA-LIGAND FREE ENERGY PREDICTED BY IDOCK:   -0.61 KCAL/MOL
REMARK 927      BINDING AFFINITY PREDICTED BY RF-SCORE:    0.00 PKD
ROOT
HETATM    1  C   UNL     1      -6.002  11.269  67.813  1.00  0.00    -0.048 C  
HETATM    2  C   UNL     1      -7.482  11.066  68.132  1.00  0.00    -0.092 C  
ENDROOT
BRANCH   2   3
HETATM    3  N   UNL     1      -7.822   9.693  68.482  1.00  0.00    -0.084 NA 
HETATM    4  H   UNL     1      -7.935   8.986  67.756  1.00  0.00     0.000 HD 
BRANCH   3   5
HETATM    5  C   UNL     1      -7.989   9.362  69.824  1.00  0.00    -0.119 A  
HETATM    6  C   UNL     1      -9.332   8.887  71.733  1.00  0.00    -0.234 A  
HETATM    7  N   UNL     1      -8.313   8.661  72.573  1.00  0.00    -0.400 NA 
HETATM    8  C   UNL     1     -11.351   9.112  70.877  1.00  0.00    -0.295 A  
HETATM    9  H   UNL     1     -10.800   9.631  68.918  1.00  0.00     0.000 HD 
HETATM   10  N   UNL     1     -10.543   9.378  69.872  1.00  0.00    -0.222 NA 
HETATM   11  C   UNL     1      -7.137   8.822  71.936  1.00  0.00    -0.030 A  
HETATM   12  C   UNL     1      -9.272   9.239  70.396  1.00  0.00    -0.247 A  
HETATM   13  N   UNL     1     -10.662   8.803  72.020  1.00  0.00    -0.346 NA 
HETATM   14  N   UNL     1      -6.921   9.149  70.641  1.00  0.00    -0.078 NA 
ENDBRANCH   3   5
ENDBRANCH   2   3
BRANCH   2  15
HETATM   15  C   UNL     1      -8.540  11.603  67.152  1.00  0.00    -0.164 C  
HETATM   16  O   UNL     1     -10.669  10.902  64.324  1.00  0.00    -0.353 OA 
HETATM   17  C   UNL     1      -8.881  12.890  67.360  1.00  0.00    -0.199 C  
HETATM   18  C   UNL     1      -9.761  13.621  66.471  1.00  0.00    -0.298 A  
HETATM   19  N   UNL     1      -9.099  10.904  66.059  1.00  0.00    -0.184 N  
HETATM   20  C   UNL     1      -9.930  14.999  66.676  1.00  0.00    -0.266 A  
HETATM   21  C   UNL     1     -10.084  11.517  65.214  1.00  0.00    -0.269 C  
HETATM   22  C   UNL     1     -10.403  12.964  65.419  1.00  0.00    -0.310 A  
HETATM   23 CL   UNL     1     -12.194  13.058  63.288  1.00  0.00    -0.589 Cl 
HETATM   24  C   UNL     1     -10.749  15.737  65.834  1.00  0.00    -0.320 A  
HETATM   25  C   UNL     1     -11.424  15.089  64.804  1.00  0.00    -0.403 A  
HETATM   26  C   UNL     1     -11.267  13.710  64.596  1.00  0.00    -0.373 A  
BRANCH  19  27
HETATM   27  C   UNL     1      -8.723   9.573  65.661  1.00  0.00    -0.149 A  
HETATM   28  C   UNL     1      -9.414   8.476  66.208  1.00  0.00    -0.299 A  
HETATM   29  C   UNL     1      -9.091   7.163  65.845  1.00  0.00    -0.054 A  
HETATM   30  C   UNL     1      -8.065   6.928  64.933  1.00  0.00    -0.109 A  
HETATM   31  C   UNL     1      -7.350   8.006  64.407  1.00  0.00    -0.090 A  
HETATM   32  C   UNL     1      -7.663   9.320  64.785  1.00  0.00    -0.111 A  
ENDBRANCH  19  27
ENDBRANCH   2  15
TORSDOF 4
ENDMDL
MODEL      147
REMARK 921   NORMALIZED FREE ENERGY PREDICTED BY IDOCK:   -5.20 KCAL/MOL
REMARK 922        TOTAL FREE ENERGY PREDICTED BY IDOCK:   -7.29 KCAL/MOL
REMARK 923 INTER-LIGAND FREE ENERGY PREDICTED BY IDOCK:   -6.74 KCAL/MOL
REMARK 924 INTRA-LIGAND FREE ENERGY PREDICTED BY IDOCK:   -0.55 KCAL/MOL
REMARK 927      BINDING AFFINITY PREDICTED BY RF-SCORE:    0.00 PKD
ROOT
HETATM    1  C   UNL     1     -11.559  13.656  67.549  1.00  0.00    -0.384 C  
HETATM    2  C   UNL     1     -10.320  12.949  68.094  1.00  0.00    -0.240 C  
ENDROOT
BRANCH   2   3
HETATM    3  N   UNL     1      -9.117  13.183  67.305  1.00  0.00    -0.208 NA 
HETATM    4  H   UNL     1      -9.064  12.868  66.337  1.00  0.00     0.000 HD 
BRANCH   3   5
HETATM    5  C   UNL     1      -8.043  13.844  67.895  1.00  0.00    -0.158 A  
HETATM    6  C   UNL     1      -6.549  15.688  68.099  1.00  0.00    -0.127 A  
HETATM    7  N   UNL     1      -5.852  15.195  69.130  1.00  0.00    -0.097 NA 
HETATM    8  C   UNL     1      -7.291  16.995  66.486  1.00  0.00    -0.285 A  
HETATM    9  H   UNL     1      -8.836  15.761  65.775  1.00  0.00     0.000 HD 
HETATM   10  N   UNL     1      -8.068  15.933  66.424  1.00  0.00    -0.239 NA 
HETATM   11  C   UNL     1      -6.328  13.984  69.480  1.00  0.00    -0.121 A  
HETATM   12  C   UNL     1      -7.613  15.105  67.433  1.00  0.00    -0.203 A  
HETATM   13  N   UNL     1      -6.364  16.893  67.488  1.00  0.00    -0.143 NA 
HETATM   14  N   UNL     1      -7.359  13.297  68.937  1.00  0.00    -0.068 NA 
ENDBRANCH   3   5
ENDBRANCH   2   3
BRANCH   2  15
HETATM   15  C   UNL     1     -10.402  11.451  68.437  1.00  0.00    -0.195 C  
HETATM   16  O   UNL     1     -10.145   8.058  67.234  1.00  0.00    -0.190 OA 
HETATM   17  C   UNL     1     -10.699  11.196  69.727  1.00  0.00    -0.069 C  
HETATM   18  C   UNL     1     -10.950   9.859  70.224  1.00  0.00    -0.366 A  
HETATM   19  N   UNL     1     -10.268  10.376  67.530  1.00  0.00    -0.198 N  
HETATM   20  C   UNL     1     -11.410   9.706  71.540  1.00  0.00    -0.420 A  
HETATM   21  C   UNL     1     -10.365   9.015  67.975  1.00  0.00    -0.224 C  
HETATM   22  C   UNL     1     -10.758   8.751  69.393  1.00  0.00    -0.180 A  
HETATM   23 CL   UNL     1     -10.748   5.985  69.074  1.00  0.00    -0.357 Cl 
HETATM   24  C   UNL     1     -11.680   8.442  72.046  1.00  0.00    -0.417 A  
HETATM   25  C   UNL     1     -11.459   7.328  71.243  1.00  0.00    -0.304 A  
HETATM   26  C   UNL     1     -10.991   7.471  69.927  1.00  0.00    -0.211 A  
BRANCH  19  27
HETATM   27  C   UNL     1     -10.075  10.523  66.111  1.00  0.00    -0.246 A  
HETATM   28  C   UNL     1     -11.130  11.025  65.327  1.00  0.00    -0.008 A  
HETATM   29  C   UNL     1     -10.987  11.195  63.945  1.00  0.00    -0.271 A  
HETATM   30  C   UNL     1      -9.786  10.859  63.325  1.00  0.00    -0.409 A  
HETATM   31  C   UNL     1      -8.742  10.330  64.087  1.00  0.00    -0.214 A  
HETATM   32  C   UNL     1      -8.894  10.143  65.468  1.00  0.00    -0.191 A  
ENDBRANCH  19  27
ENDBRANCH   2  15
TORSDOF 4
ENDMDL
MODEL      148
REMARK 921   NORMALIZED FREE ENERGY PREDICTED BY IDOCK:   -5.13 KCAL/MOL
REMARK 922        TOTAL FREE ENERGY PREDICTED BY IDOCK:   -7.20 KCAL/MOL
REMARK 923 INTER-LIGAND FREE ENERGY PREDICTED BY IDOCK:   -6.80 KCAL/MOL
REMARK 924 INTRA-LIGAND FREE ENERGY PREDICTED BY IDOCK:   -0.41 KCAL/MOL
REMARK 927      BINDING AFFINITY PREDICTED BY RF-SCORE:    0.00 PKD
ROOT
HETATM    1  C   UNL     1      -8.104   9.258  67.415  1.00  0.00    -0.110 C  
HETATM    2  C   UNL     1      -8.058  10.711  67.885  1.00  0.00    -0.111 C  
ENDROOT
BRANCH   2   3
HETATM    3  N   UNL     1      -8.426  10.886  69.283  1.00  0.00    -0.364 NA 
HETATM    4  H   UNL     1      -8.018  11.639  69.836  1.00  0.00     0.000 HD 
BRANCH   3   5
HETATM    5  C   UNL     1      -9.345  10.008  69.853  1.00  0.00    -0.169 A  
HETATM    6  C   UNL     1     -11.492   9.472  70.731  1.00  0.00    -0.310 A  
HETATM    7  N   UNL     1     -11.221   8.188  71.000  1.00  0.00    -0.254 NA 
HETATM    8  C   UNL     1     -12.517  11.412  70.516  1.00  0.00    -0.293 A  
HETATM    9  H   UNL     1     -10.927  12.511  69.693  1.00  0.00     0.000 HD 
HETATM   10  N   UNL     1     -11.303  11.636  70.060  1.00  0.00    -0.168 NA 
HETATM   11  C   UNL     1      -9.950   7.898  70.663  1.00  0.00    -0.186 A  
HETATM   12  C   UNL     1     -10.649  10.425  70.188  1.00  0.00    -0.188 A  
HETATM   13  N   UNL     1     -12.678  10.115  70.926  1.00  0.00    -0.353 NA 
HETATM   14  N   UNL     1      -9.019   8.712  70.116  1.00  0.00    -0.148 NA 
ENDBRANCH   3   5
ENDBRANCH   2   3
BRANCH   2  15
HETATM   15  C   UNL     1      -8.765  11.791  67.048  1.00  0.00    -0.181 C  
HETATM   16  O   UNL     1      -9.096  15.310  66.317  1.00  0.00    -0.288 OA 
HETATM   17  C   UNL     1      -9.681  11.309  66.185  1.00  0.00    -0.251 C  
HETATM   18  C   UNL     1     -10.546  12.166  65.400  1.00  0.00    -0.309 A  
HETATM   19  N   UNL     1      -8.587  13.189  67.162  1.00  0.00    -0.202 N  
HETATM   20  C   UNL     1     -11.577  11.577  64.653  1.00  0.00    -0.117 A  
HETATM   21  C   UNL     1      -9.308  14.098  66.319  1.00  0.00    -0.189 C  
HETATM   22  C   UNL     1     -10.365  13.552  65.414  1.00  0.00    -0.329 A  
HETATM   23 CL   UNL     1     -11.102  16.061  64.457  1.00  0.00    -0.399 Cl 
HETATM   24  C   UNL     1     -12.438  12.366  63.903  1.00  0.00    -0.573 A  
HETATM   25  C   UNL     1     -12.247  13.745  63.878  1.00  0.00    -0.402 A  
HETATM   26  C   UNL     1     -11.214  14.342  64.617  1.00  0.00    -0.366 A  
BRANCH  19  27
HETATM   27  C   UNL     1      -7.733  13.827  68.129  1.00  0.00    -0.140 A  
HETATM   28  C   UNL     1      -6.344  13.617  68.058  1.00  0.00    -0.139 A  
HETATM   29  C   UNL     1      -5.472  14.223  68.970  1.00  0.00    -0.084 A  
HETATM   30  C   UNL     1      -5.979  15.045  69.973  1.00  0.00    -0.142 A  
HETATM   31  C   UNL     1      -7.359  15.236  70.075  1.00  0.00     0.036 A  
HETATM   32  C   UNL     1      -8.232  14.614  69.171  1.00  0.00    -0.068 A  
ENDBRANCH  19  27
ENDBRANCH   2  15
TORSDOF 4
ENDMDL
MODEL      149
REMARK 921   NORMALIZED FREE ENERGY PREDICTED BY IDOCK:   -5.09 KCAL/MOL
REMARK 922        TOTAL FREE ENERGY PREDICTED BY IDOCK:   -7.16 KCAL/MOL
REMARK 923 INTER-LIGAND FREE ENERGY PREDICTED BY IDOCK:   -5.99 KCAL/MOL
REMARK 924 INTRA-LIGAND FREE ENERGY PREDICTED BY IDOCK:   -1.17 KCAL/MOL
REMARK 927      BINDING AFFINITY PREDICTED BY RF-SCORE:    0.00 PKD
ROOT
HETATM    1  C   UNL     1      -9.285   6.790  67.427  1.00  0.00    -0.130 C  
HETATM    2  C   UNL     1      -9.312   7.433  68.812  1.00  0.00    -0.144 C  
ENDROOT
BRANCH   2   3
HETATM    3  N   UNL     1      -9.819   6.552  69.857  1.00  0.00    -0.166 NA 
HETATM    4  H   UNL     1     -10.793   6.251  69.853  1.00  0.00     0.000 HD 
BRANCH   3   5
HETATM    5  C   UNL     1      -8.952   6.128  70.860  1.00  0.00    -0.143 A  
HETATM    6  C   UNL     1      -8.379   5.755  73.141  1.00  0.00    -0.117 A  
HETATM    7  N   UNL     1      -7.169   5.233  72.902  1.00  0.00    -0.088 NA 
HETATM    8  C   UNL     1     -10.199   6.489  74.144  1.00  0.00    -0.358 A  
HETATM    9  H   UNL     1     -11.275   7.079  72.439  1.00  0.00     0.000 HD 
HETATM   10  N   UNL     1     -10.437   6.680  72.864  1.00  0.00    -0.215 NA 
HETATM   11  C   UNL     1      -6.924   5.205  71.578  1.00  0.00    -0.057 A  
HETATM   12  C   UNL     1      -9.302   6.221  72.222  1.00  0.00    -0.145 A  
HETATM   13  N   UNL     1      -8.970   5.925  74.358  1.00  0.00    -0.126 NA 
HETATM   14  N   UNL     1      -7.727   5.611  70.567  1.00  0.00    -0.092 NA 
ENDBRANCH   3   5
ENDBRANCH   2   3
BRANCH   2  15
HETATM   15  C   UNL     1      -9.954   8.821  68.981  1.00  0.00    -0.191 C  
HETATM   16  O   UNL     1      -9.938  12.295  68.002  1.00  0.00    -0.190 OA 
HETATM   17  C   UNL     1     -10.973   8.855  69.862  1.00  0.00    -0.190 C  
HETATM   18  C   UNL     1     -11.624  10.086  70.260  1.00  0.00    -0.354 A  
HETATM   19  N   UNL     1      -9.528  10.020  68.366  1.00  0.00    -0.140 N  
HETATM   20  C   UNL     1     -12.564  10.043  71.302  1.00  0.00    -0.495 A  
HETATM   21  C   UNL     1     -10.213  11.258  68.604  1.00  0.00    -0.203 C  
HETATM   22  C   UNL     1     -11.299  11.290  69.631  1.00  0.00    -0.359 A  
HETATM   23 CL   UNL     1     -11.753  14.022  69.331  1.00  0.00    -0.340 Cl 
HETATM   24  C   UNL     1     -13.195  11.204  71.724  1.00  0.00    -0.486 A  
HETATM   25  C   UNL     1     -12.908  12.405  71.083  1.00  0.00    -0.299 A  
HETATM   26  C   UNL     1     -11.975  12.456  70.035  1.00  0.00    -0.299 A  
BRANCH  19  27
HETATM   27  C   UNL     1      -8.379  10.134  67.506  1.00  0.00    -0.118 A  
HETATM   28  C   UNL     1      -8.554  10.028  66.114  1.00  0.00    -0.142 A  
HETATM   29  C   UNL     1      -7.469  10.142  65.238  1.00  0.00    -0.145 A  
HETATM   30  C   UNL     1      -6.188  10.357  65.742  1.00  0.00    -0.123 A  
HETATM   31  C   UNL     1      -5.996  10.432  67.124  1.00  0.00    -0.050 A  
HETATM   32  C   UNL     1      -7.082  10.300  68.001  1.00  0.00    -0.083 A  
ENDBRANCH  19  27
ENDBRANCH   2  15
TORSDOF 4
ENDMDL
MODEL      150
REMARK 921   NORMALIZED FREE ENERGY PREDICTED BY IDOCK:   -5.05 KCAL/MOL
REMARK 922        TOTAL FREE ENERGY PREDICTED BY IDOCK:   -7.10 KCAL/MOL
REMARK 923 INTER-LIGAND FREE ENERGY PREDICTED BY IDOCK:   -6.40 KCAL/MOL
REMARK 924 INTRA-LIGAND FREE ENERGY PREDICTED BY IDOCK:   -0.71 KCAL/MOL
REMARK 927      BINDING AFFINITY PREDICTED BY RF-SCORE:    0.00 PKD
ROOT
HETATM    1  C   UNL     1      -9.404  10.165  69.359  1.00  0.00    -0.235 C  
HETATM    2  C   UNL     1      -9.651  10.516  67.892  1.00  0.00    -0.150 C  
ENDROOT
BRANCH   2   3
HETATM    3  N   UNL     1     -11.019  10.935  67.613  1.00  0.00    -0.272 NA 
HETATM    4  H   UNL     1     -11.756  10.243  67.483  1.00  0.00     0.000 HD 
BRANCH   3   5
HETATM    5  C   UNL     1     -11.303  12.296  67.527  1.00  0.00    -0.325 A  
HETATM    6  C   UNL     1     -11.562  14.329  66.315  1.00  0.00    -0.372 A  
HETATM    7  N   UNL     1     -11.909  15.081  67.367  1.00  0.00    -0.246 NA 
HETATM    8  C   UNL     1     -11.082  13.650  64.273  1.00  0.00    -0.315 A  
HETATM    9  H   UNL     1     -10.673  11.635  64.706  1.00  0.00     0.000 HD 
HETATM   10  N   UNL     1     -10.943  12.570  65.013  1.00  0.00    -0.286 NA 
HETATM   11  C   UNL     1     -11.918  14.337  68.491  1.00  0.00    -0.317 A  
HETATM   12  C   UNL     1     -11.243  12.982  66.298  1.00  0.00    -0.301 A  
HETATM   13  N   UNL     1     -11.462  14.735  65.017  1.00  0.00    -0.375 NA 
HETATM   14  N   UNL     1     -11.644  13.020  68.629  1.00  0.00    -0.296 NA 
ENDBRANCH   3   5
ENDBRANCH   2   3
BRANCH   2  15
HETATM   15  C   UNL     1      -9.203   9.530  66.800  1.00  0.00    -0.149 C  
HETATM   16  O   UNL     1      -8.847   6.078  65.810  1.00  0.00    -0.156 OA 
HETATM   17  C   UNL     1      -8.709  10.119  65.693  1.00  0.00    -0.173 C  
HETATM   18  C   UNL     1      -8.115   9.370  64.605  1.00  0.00    -0.133 A  
HETATM   19  N   UNL     1      -9.202   8.120  66.895  1.00  0.00    -0.151 N  
HETATM   20  C   UNL     1      -7.482  10.076  63.570  1.00  0.00    -0.140 A  
HETATM   21  C   UNL     1      -8.758   7.305  65.801  1.00  0.00    -0.109 C  
HETATM   22  C   UNL     1      -8.154   7.973  64.608  1.00  0.00    -0.140 A  
HETATM   23 CL   UNL     1      -7.594   5.571  63.316  1.00  0.00    -0.067 Cl 
HETATM   24  C   UNL     1      -6.885   9.393  62.520  1.00  0.00    -0.094 A  
HETATM   25  C   UNL     1      -6.948   8.003  62.491  1.00  0.00    -0.086 A  
HETATM   26  C   UNL     1      -7.585   7.289  63.518  1.00  0.00    -0.117 A  
BRANCH  19  27
HETATM   27  C   UNL     1      -9.586   7.380  68.068  1.00  0.00    -0.141 A  
HETATM   28  C   UNL     1      -8.591   6.977  68.978  1.00  0.00    -0.129 A  
HETATM   29  C   UNL     1      -8.916   6.264  70.137  1.00  0.00    -0.149 A  
HETATM   30  C   UNL     1     -10.244   5.937  70.402  1.00  0.00    -0.273 A  
HETATM   31  C   UNL     1     -11.238   6.303  69.491  1.00  0.00    -0.500 A  
HETATM   32  C   UNL     1     -10.908   7.001  68.321  1.00  0.00    -0.198 A  
ENDBRANCH  19  27
ENDBRANCH   2  15
TORSDOF 4
ENDMDL
MODEL      151
REMARK 921   NORMALIZED FREE ENERGY PREDICTED BY IDOCK:   -5.02 KCAL/MOL
REMARK 922        TOTAL FREE ENERGY PREDICTED BY IDOCK:   -7.06 KCAL/MOL
REMARK 923 INTER-LIGAND FREE ENERGY PREDICTED BY IDOCK:   -6.62 KCAL/MOL
REMARK 924 INTRA-LIGAND FREE ENERGY PREDICTED BY IDOCK:   -0.45 KCAL/MOL
REMARK 927      BINDING AFFINITY PREDICTED BY RF-SCORE:    0.00 PKD
ROOT
HETATM    1  C   UNL     1      -7.733   7.952  67.977  1.00  0.00    -0.125 C  
HETATM    2  C   UNL     1      -9.248   8.106  67.845  1.00  0.00    -0.131 C  
ENDROOT
BRANCH   2   3
HETATM    3  N   UNL     1      -9.764   7.715  66.540  1.00  0.00    -0.336 NA 
HETATM    4  H   UNL     1     -10.766   7.734  66.352  1.00  0.00     0.000 HD 
BRANCH   3   5
HETATM    5  C   UNL     1      -8.867   7.316  65.552  1.00  0.00     0.043 A  
HETATM    6  C   UNL     1      -7.647   5.664  64.346  1.00  0.00    -0.083 A  
HETATM    7  N   UNL     1      -7.042   6.515  63.508  1.00  0.00    -0.051 NA 
HETATM    8  C   UNL     1      -8.314   3.832  65.376  1.00  0.00    -0.105 A  
HETATM    9  H   UNL     1      -9.588   4.720  66.791  1.00  0.00     0.000 HD 
HETATM   10  N   UNL     1      -8.942   4.803  66.005  1.00  0.00    -0.122 NA 
HETATM   11  C   UNL     1      -7.412   7.782  63.779  1.00  0.00    -0.108 A  
HETATM   12  C   UNL     1      -8.533   5.960  65.367  1.00  0.00    -0.153 A  
HETATM   13  N   UNL     1      -7.526   4.306  64.361  1.00  0.00    -0.070 NA 
HETATM   14  N   UNL     1      -8.270   8.221  64.728  1.00  0.00    -0.154 NA 
ENDBRANCH   3   5
ENDBRANCH   2   3
BRANCH   2  15
HETATM   15  C   UNL     1      -9.904   9.433  68.261  1.00  0.00    -0.160 C  
HETATM   16  O   UNL     1     -11.707  11.243  70.811  1.00  0.00    -0.276 OA 
HETATM   17  C   UNL     1      -9.827  10.403  67.329  1.00  0.00    -0.214 C  
HETATM   18  C   UNL     1     -10.492  11.682  67.470  1.00  0.00    -0.228 A  
HETATM   19  N   UNL     1     -10.612   9.678  69.459  1.00  0.00    -0.218 N  
HETATM   20  C   UNL     1     -10.490  12.565  66.380  1.00  0.00    -0.269 A  
HETATM   21  C   UNL     1     -11.182  10.966  69.733  1.00  0.00    -0.281 C  
HETATM   22  C   UNL     1     -11.142  12.009  68.663  1.00  0.00    -0.298 A  
HETATM   23 CL   UNL     1     -12.548  13.877  70.177  1.00  0.00    -0.339 Cl 
HETATM   24  C   UNL     1     -11.133  13.792  66.471  1.00  0.00    -0.309 A  
HETATM   25  C   UNL     1     -11.753  14.147  67.665  1.00  0.00    -0.421 A  
HETATM   26  C   UNL     1     -11.754  13.272  68.763  1.00  0.00    -0.329 A  
BRANCH  19  27
HETATM   27  C   UNL     1     -10.870   8.688  70.472  1.00  0.00    -0.228 A  
HETATM   28  C   UNL     1     -10.328   8.870  71.758  1.00  0.00    -0.426 A  
HETATM   29  C   UNL     1     -10.559   7.940  72.779  1.00  0.00    -0.418 A  
HETATM   30  C   UNL     1     -11.330   6.808  72.526  1.00  0.00    -0.292 A  
HETATM   31  C   UNL     1     -11.846   6.599  71.244  1.00  0.00    -0.403 A  
HETATM   32  C   UNL     1     -11.599   7.523  70.219  1.00  0.00    -0.114 A  
ENDBRANCH  19  27
ENDBRANCH   2  15
TORSDOF 4
ENDMDL
MODEL      152
REMARK 921   NORMALIZED FREE ENERGY PREDICTED BY IDOCK:   -5.01 KCAL/MOL
REMARK 922        TOTAL FREE ENERGY PREDICTED BY IDOCK:   -7.06 KCAL/MOL
REMARK 923 INTER-LIGAND FREE ENERGY PREDICTED BY IDOCK:   -7.37 KCAL/MOL
REMARK 924 INTRA-LIGAND FREE ENERGY PREDICTED BY IDOCK:    0.31 KCAL/MOL
REMARK 927      BINDING AFFINITY PREDICTED BY RF-SCORE:    0.00 PKD
ROOT
HETATM    1  C   UNL     1     -10.756  16.123  64.929  1.00  0.00    -0.297 C  
HETATM    2  C   UNL     1     -10.491  14.981  65.909  1.00  0.00    -0.328 C  
ENDROOT
BRANCH   2   3
HETATM    3  N   UNL     1     -11.683  14.526  66.613  1.00  0.00    -0.380 NA 
HETATM    4  H   UNL     1     -12.559  15.040  66.534  1.00  0.00     0.000 HD 
BRANCH   3   5
HETATM    5  C   UNL     1     -11.605  13.377  67.396  1.00  0.00    -0.354 A  
HETATM    6  C   UNL     1     -11.149  11.061  67.713  1.00  0.00    -0.295 A  
HETATM    7  N   UNL     1     -11.430  11.036  69.022  1.00  0.00    -0.272 NA 
HETATM    8  C   UNL     1     -10.553  10.480  65.671  1.00  0.00    -0.062 A  
HETATM    9  H   UNL     1     -10.795  12.346  64.736  1.00  0.00     0.000 HD 
HETATM   10  N   UNL     1     -10.839  11.761  65.572  1.00  0.00    -0.291 NA 
HETATM   11  C   UNL     1     -11.811  12.259  69.442  1.00  0.00    -0.310 A  
HETATM   12  C   UNL     1     -11.214  12.139  66.847  1.00  0.00    -0.320 A  
HETATM   13  N   UNL     1     -10.719  10.017  66.949  1.00  0.00    -0.183 NA 
HETATM   14  N   UNL     1     -11.910  13.401  68.723  1.00  0.00    -0.338 NA 
ENDBRANCH   3   5
ENDBRANCH   2   3
BRANCH   2  15
HETATM   15  C   UNL     1      -9.339  15.113  66.920  1.00  0.00    -0.234 C  
HETATM   16  O   UNL     1      -7.451  17.306  69.077  1.00  0.00    -0.248 OA 
HETATM   17  C   UNL     1      -8.688  13.960  67.170  1.00  0.00    -0.233 C  
HETATM   18  C   UNL     1      -7.496  13.894  67.989  1.00  0.00    -0.135 A  
HETATM   19  N   UNL     1      -8.887  16.309  67.522  1.00  0.00    -0.185 N  
HETATM   20  C   UNL     1      -6.795  12.680  68.060  1.00  0.00    -0.095 A  
HETATM   21  C   UNL     1      -7.797  16.303  68.455  1.00  0.00    -0.168 C  
HETATM   22  C   UNL     1      -7.046  15.028  68.671  1.00  0.00    -0.109 A  
HETATM   23 CL   UNL     1      -5.230  16.183  70.438  1.00  0.00    -0.167 Cl 
HETATM   24  C   UNL     1      -5.638  12.583  68.820  1.00  0.00    -0.061 A  
HETATM   25  C   UNL     1      -5.198  13.694  69.533  1.00  0.00    -0.084 A  
HETATM   26  C   UNL     1      -5.897  14.910  69.474  1.00  0.00    -0.103 A  
BRANCH  19  27
HETATM   27  C   UNL     1      -9.418  17.617  67.240  1.00  0.00    -0.257 A  
HETATM   28  C   UNL     1      -8.688  18.486  66.407  1.00  0.00    -0.274 A  
HETATM   29  C   UNL     1      -9.168  19.763  66.096  1.00  0.00    -0.418 A  
HETATM   30  C   UNL     1     -10.385  20.194  66.620  1.00  0.00    -0.508 A  
HETATM   31  C   UNL     1     -11.103  19.354  67.474  1.00  0.00    -0.252 A  
HETATM   32  C   UNL     1     -10.612  18.082  67.798  1.00  0.00    -0.409 A  
ENDBRANCH  19  27
ENDBRANCH   2  15
TORSDOF 4
ENDMDL
MODEL      153
REMARK 921   NORMALIZED FREE ENERGY PREDICTED BY IDOCK:   -4.97 KCAL/MOL
REMARK 922        TOTAL FREE ENERGY PREDICTED BY IDOCK:   -7.01 KCAL/MOL
REMARK 923 INTER-LIGAND FREE ENERGY PREDICTED BY IDOCK:   -6.97 KCAL/MOL
REMARK 924 INTRA-LIGAND FREE ENERGY PREDICTED BY IDOCK:   -0.04 KCAL/MOL
REMARK 927      BINDING AFFINITY PREDICTED BY RF-SCORE:    0.00 PKD
ROOT
HETATM    1  C   UNL     1      -8.020  10.091  68.209  1.00  0.00    -0.097 C  
HETATM    2  C   UNL     1      -9.500   9.737  68.351  1.00  0.00    -0.140 C  
ENDROOT
BRANCH   2   3
HETATM    3  N   UNL     1     -10.161   9.466  67.081  1.00  0.00    -0.213 NA 
HETATM    4  H   UNL     1     -11.151   9.673  66.958  1.00  0.00     0.000 HD 
BRANCH   3   5
HETATM    5  C   UNL     1      -9.417   8.920  66.037  1.00  0.00    -0.252 A  
HETATM    6  C   UNL     1      -8.256   7.130  64.979  1.00  0.00    -0.093 A  
HETATM    7  N   UNL     1      -7.913   7.812  63.879  1.00  0.00    -0.128 NA 
HETATM    8  C   UNL     1      -8.514   5.534  66.478  1.00  0.00    -0.113 A  
HETATM    9  H   UNL     1      -9.604   6.625  67.906  1.00  0.00     0.000 HD 
HETATM   10  N   UNL     1      -9.124   6.575  67.006  1.00  0.00    -0.125 NA 
HETATM   11  C   UNL     1      -8.369   9.078  63.951  1.00  0.00    -0.176 A  
HETATM   12  C   UNL     1      -8.970   7.584  66.074  1.00  0.00    -0.127 A  
HETATM   13  N   UNL     1      -7.981   5.823  65.250  1.00  0.00    -0.113 NA 
HETATM   14  N   UNL     1      -9.086   9.657  64.941  1.00  0.00    -0.220 NA 
ENDBRANCH   3   5
ENDBRANCH   2   3
BRANCH   2  15
HETATM   15  C   UNL     1     -10.409  10.644  69.198  1.00  0.00    -0.221 C  
HETATM   16  O   UNL     1     -12.667  10.883  72.003  1.00  0.00    -0.325 OA 
HETATM   17  C   UNL     1     -10.445  11.927  68.788  1.00  0.00    -0.207 C  
HETATM   18  C   UNL     1     -11.336  12.911  69.369  1.00  0.00    -0.265 A  
HETATM   19  N   UNL     1     -11.225  10.237  70.278  1.00  0.00    -0.303 N  
HETATM   20  C   UNL     1     -11.420  14.177  68.770  1.00  0.00    -0.333 A  
HETATM   21  C   UNL     1     -12.032  11.183  70.994  1.00  0.00    -0.163 C  
HETATM   22  C   UNL     1     -12.110  12.588  70.486  1.00  0.00    -0.361 A  
HETATM   23 CL   UNL     1     -13.922  13.389  72.443  1.00  0.00    -0.662 Cl 
HETATM   24  C   UNL     1     -12.276  15.140  69.286  1.00  0.00    -0.212 A  
HETATM   25  C   UNL     1     -13.026  14.845  70.420  1.00  0.00    -0.272 A  
HETATM   26  C   UNL     1     -12.943  13.583  71.030  1.00  0.00    -0.202 A  
BRANCH  19  27
HETATM   27  C   UNL     1     -11.367   8.877  70.727  1.00  0.00    -0.278 A  
HETATM   28  C   UNL     1     -11.240   8.594  72.099  1.00  0.00    -0.438 A  
HETATM   29  C   UNL     1     -11.379   7.289  72.585  1.00  0.00    -0.333 A  
HETATM   30  C   UNL     1     -11.641   6.244  71.703  1.00  0.00    -0.353 A  
HETATM   31  C   UNL     1     -11.737   6.506  70.334  1.00  0.00    -0.439 A  
HETATM   32  C   UNL     1     -11.580   7.812  69.847  1.00  0.00     0.200 A  
ENDBRANCH  19  27
ENDBRANCH   2  15
TORSDOF 4
ENDMDL
MODEL      154
REMARK 921   NORMALIZED FREE ENERGY PREDICTED BY IDOCK:   -4.95 KCAL/MOL
REMARK 922        TOTAL FREE ENERGY PREDICTED BY IDOCK:   -6.99 KCAL/MOL
REMARK 923 INTER-LIGAND FREE ENERGY PREDICTED BY IDOCK:   -6.08 KCAL/MOL
REMARK 924 INTRA-LIGAND FREE ENERGY PREDICTED BY IDOCK:   -0.91 KCAL/MOL
REMARK 927      BINDING AFFINITY PREDICTED BY RF-SCORE:    0.00 PKD
ROOT
HETATM    1  C   UNL     1     -10.988   6.589  66.733  1.00  0.00    -0.309 C  
HETATM    2  C   UNL     1     -10.615   7.430  67.952  1.00  0.00    -0.190 C  
ENDROOT
BRANCH   2   3
HETATM    3  N   UNL     1      -9.849   8.626  67.625  1.00  0.00    -0.170 NA 
HETATM    4  H   UNL     1      -8.838   8.577  67.504  1.00  0.00     0.000 HD 
BRANCH   3   5
HETATM    5  C   UNL     1     -10.521   9.838  67.482  1.00  0.00    -0.251 A  
HETATM    6  C   UNL     1     -11.258  11.709  66.206  1.00  0.00    -0.271 A  
HETATM    7  N   UNL     1     -11.920  12.311  67.202  1.00  0.00    -0.576 NA 
HETATM    8  C   UNL     1     -10.391  11.227  64.237  1.00  0.00    -0.340 A  
HETATM    9  H   UNL     1      -9.439   9.426  64.752  1.00  0.00     0.000 HD 
HETATM   10  N   UNL     1     -10.008  10.232  65.011  1.00  0.00    -0.325 NA 
HETATM   11  C   UNL     1     -11.818  11.589  68.336  1.00  0.00    -0.283 A  
HETATM   12  C   UNL     1     -10.547  10.522  66.250  1.00  0.00    -0.133 A  
HETATM   13  N   UNL     1     -11.154  12.138  64.917  1.00  0.00    -0.311 NA 
HETATM   14  N   UNL     1     -11.174  10.415  68.529  1.00  0.00    -0.264 NA 
ENDBRANCH   3   5
ENDBRANCH   2   3
BRANCH   2  15
HETATM   15  C   UNL     1      -9.967   6.744  69.166  1.00  0.00    -0.159 C  
HETATM   16  O   UNL     1      -6.996   5.237  70.554  1.00  0.00    -0.049 OA 
HETATM   17  C   UNL     1     -10.793   6.590  70.220  1.00  0.00    -0.333 C  
HETATM   18  C   UNL     1     -10.418   5.854  71.410  1.00  0.00    -0.291 A  
HETATM   19  N   UNL     1      -8.655   6.222  69.232  1.00  0.00    -0.124 N  
HETATM   20  C   UNL     1     -11.397   5.607  72.384  1.00  0.00    -0.327 A  
HETATM   21  C   UNL     1      -8.164   5.601  70.428  1.00  0.00    -0.105 C  
HETATM   22  C   UNL     1      -9.112   5.382  71.563  1.00  0.00    -0.158 A  
HETATM   23 CL   UNL     1      -7.213   4.092  73.140  1.00  0.00    -0.066 Cl 
HETATM   24  C   UNL     1     -11.081   4.890  73.529  1.00  0.00    -0.405 A  
HETATM   25  C   UNL     1      -9.775   4.444  73.712  1.00  0.00    -0.153 A  
HETATM   26  C   UNL     1      -8.788   4.693  72.746  1.00  0.00    -0.117 A  
BRANCH  19  27
HETATM   27  C   UNL     1      -7.724   6.214  68.134  1.00  0.00    -0.103 A  
HETATM   28  C   UNL     1      -6.778   7.251  68.033  1.00  0.00    -0.058 A  
HETATM   29  C   UNL     1      -5.846   7.281  66.989  1.00  0.00    -0.026 A  
HETATM   30  C   UNL     1      -5.851   6.276  66.025  1.00  0.00    -0.024 A  
HETATM   31  C   UNL     1      -6.805   5.258  66.095  1.00  0.00    -0.058 A  
HETATM   32  C   UNL     1      -7.749   5.239  67.132  1.00  0.00    -0.096 A  
ENDBRANCH  19  27
ENDBRANCH   2  15
TORSDOF 4
ENDMDL
MODEL      155
REMARK 921   NORMALIZED FREE ENERGY PREDICTED BY IDOCK:   -4.95 KCAL/MOL
REMARK 922        TOTAL FREE ENERGY PREDICTED BY IDOCK:   -6.98 KCAL/MOL
REMARK 923 INTER-LIGAND FREE ENERGY PREDICTED BY IDOCK:   -6.13 KCAL/MOL
REMARK 924 INTRA-LIGAND FREE ENERGY PREDICTED BY IDOCK:   -0.85 KCAL/MOL
REMARK 927      BINDING AFFINITY PREDICTED BY RF-SCORE:    0.00 PKD
ROOT
HETATM    1  C   UNL     1     -10.728  11.003  69.482  1.00  0.00    -0.231 C  
HETATM    2  C   UNL     1     -11.024   9.950  68.417  1.00  0.00    -0.187 C  
ENDROOT
BRANCH   2   3
HETATM    3  N   UNL     1     -11.122   8.595  68.944  1.00  0.00    -0.420 NA 
HETATM    4  H   UNL     1     -11.367   7.817  68.333  1.00  0.00     0.000 HD 
BRANCH   3   5
HETATM    5  C   UNL     1     -10.874   8.380  70.298  1.00  0.00    -0.239 A  
HETATM    6  C   UNL     1      -9.421   8.043  72.154  1.00  0.00    -0.202 A  
HETATM    7  N   UNL     1     -10.386   7.961  73.079  1.00  0.00    -0.338 NA 
HETATM    8  C   UNL     1      -7.458   8.100  71.151  1.00  0.00    -0.074 A  
HETATM    9  H   UNL     1      -8.127   8.391  69.181  1.00  0.00     0.000 HD 
HETATM   10  N   UNL     1      -8.325   8.266  70.174  1.00  0.00    -0.121 NA 
HETATM   11  C   UNL     1     -11.597   8.094  72.505  1.00  0.00    -0.404 A  
HETATM   12  C   UNL     1      -9.562   8.233  70.791  1.00  0.00    -0.172 A  
HETATM   13  N   UNL     1      -8.076   7.968  72.366  1.00  0.00    -0.120 NA 
HETATM   14  N   UNL     1     -11.891   8.296  71.200  1.00  0.00    -0.281 NA 
ENDBRANCH   3   5
ENDBRANCH   2   3
BRANCH   2  15
HETATM   15  C   UNL     1     -10.175   9.922  67.134  1.00  0.00    -0.228 C  
HETATM   16  O   UNL     1      -8.801  11.807  64.380  1.00  0.00     0.383 OA 
HETATM   17  C   UNL     1      -9.694   8.704  66.817  1.00  0.00    -0.298 C  
HETATM   18  C   UNL     1      -8.982   8.438  65.583  1.00  0.00    -0.183 A  
HETATM   19  N   UNL     1      -9.934  11.011  66.266  1.00  0.00    -0.217 N  
HETATM   20  C   UNL     1      -8.662   7.110  65.264  1.00  0.00     0.073 A  
HETATM   21  C   UNL     1      -9.120  10.858  65.095  1.00  0.00    -0.196 C  
HETATM   22  C   UNL     1      -8.648   9.488  64.724  1.00  0.00    -0.196 A  
HETATM   23 CL   UNL     1      -7.381  10.355  62.400  1.00  0.00    -0.152 Cl 
HETATM   24  C   UNL     1      -7.997   6.814  64.082  1.00  0.00    -0.085 A  
HETATM   25  C   UNL     1      -7.626   7.853  63.234  1.00  0.00    -0.130 A  
HETATM   26  C   UNL     1      -7.936   9.185  63.549  1.00  0.00    -0.145 A  
BRANCH  19  27
HETATM   27  C   UNL     1     -10.495  12.326  66.431  1.00  0.00    -0.236 A  
HETATM   28  C   UNL     1     -11.774  12.594  65.909  1.00  0.00    -0.470 A  
HETATM   29  C   UNL     1     -12.365  13.854  66.052  1.00  0.00    -0.511 A  
HETATM   30  C   UNL     1     -11.681  14.870  66.715  1.00  0.00    -0.243 A  
HETATM   31  C   UNL     1     -10.397  14.628  67.209  1.00  0.00    -0.256 A  
HETATM   32  C   UNL     1      -9.799  13.369  67.049  1.00  0.00    -0.250 A  
ENDBRANCH  19  27
ENDBRANCH   2  15
TORSDOF 4
ENDMDL
MODEL      156
REMARK 921   NORMALIZED FREE ENERGY PREDICTED BY IDOCK:   -4.91 KCAL/MOL
REMARK 922        TOTAL FREE ENERGY PREDICTED BY IDOCK:   -6.93 KCAL/MOL
REMARK 923 INTER-LIGAND FREE ENERGY PREDICTED BY IDOCK:   -6.26 KCAL/MOL
REMARK 924 INTRA-LIGAND FREE ENERGY PREDICTED BY IDOCK:   -0.67 KCAL/MOL
REMARK 927      BINDING AFFINITY PREDICTED BY RF-SCORE:    0.00 PKD
ROOT
HETATM    1  C   UNL     1     -12.066  11.756  68.927  1.00  0.00    -0.238 C  
HETATM    2  C   UNL     1     -10.869  11.087  68.253  1.00  0.00    -0.215 C  
ENDROOT
BRANCH   2   3
HETATM    3  N   UNL     1     -10.998  10.978  66.806  1.00  0.00    -0.251 NA 
HETATM    4  H   UNL     1     -11.135  10.069  66.365  1.00  0.00     0.000 HD 
BRANCH   3   5
HETATM    5  C   UNL     1     -10.930  12.135  66.034  1.00  0.00    -0.293 A  
HETATM    6  C   UNL     1     -11.589  13.485  64.186  1.00  0.00    -0.376 A  
HETATM    7  N   UNL     1     -10.795  14.524  64.477  1.00  0.00    -0.307 NA 
HETATM    8  C   UNL     1     -13.068  12.165  63.223  1.00  0.00     0.184 A  
HETATM    9  H   UNL     1     -12.934  10.536  64.543  1.00  0.00     0.000 HD 
HETATM   10  N   UNL     1     -12.642  11.471  64.258  1.00  0.00     0.059 NA 
HETATM   11  C   UNL     1     -10.079  14.269  65.589  1.00  0.00    -0.341 A  
HETATM   12  C   UNL     1     -11.713  12.290  64.873  1.00  0.00    -0.352 A  
HETATM   13  N   UNL     1     -12.463  13.391  63.145  1.00  0.00    -0.692 NA 
HETATM   14  N   UNL     1     -10.101  13.163  66.367  1.00  0.00    -0.274 NA 
ENDBRANCH   3   5
ENDBRANCH   2   3
BRANCH   2  15
HETATM   15  C   UNL     1     -10.350   9.748  68.806  1.00  0.00    -0.208 C  
HETATM   16  O   UNL     1      -7.847   7.157  68.587  1.00  0.00    -0.117 OA 
HETATM   17  C   UNL     1     -11.090   9.243  69.812  1.00  0.00    -0.168 C  
HETATM   18  C   UNL     1     -10.847   7.933  70.383  1.00  0.00    -0.244 A  
HETATM   19  N   UNL     1      -9.250   9.010  68.314  1.00  0.00    -0.136 N  
HETATM   20  C   UNL     1     -11.766   7.424  71.312  1.00  0.00    -0.316 A  
HETATM   21  C   UNL     1      -8.862   7.768  68.919  1.00  0.00    -0.135 C  
HETATM   22  C   UNL     1      -9.730   7.191  69.991  1.00  0.00    -0.171 A  
HETATM   23 CL   UNL     1      -8.168   4.903  70.279  1.00  0.00    -0.080 Cl 
HETATM   24  C   UNL     1     -11.578   6.166  71.867  1.00  0.00    -0.352 A  
HETATM   25  C   UNL     1     -10.451   5.430  71.513  1.00  0.00    -0.289 A  
HETATM   26  C   UNL     1      -9.523   5.934  70.590  1.00  0.00    -0.171 A  
BRANCH  19  27
HETATM   27  C   UNL     1      -8.462   9.383  67.169  1.00  0.00    -0.128 A  
HETATM   28  C   UNL     1      -7.506  10.407  67.302  1.00  0.00    -0.094 A  
HETATM   29  C   UNL     1      -6.709  10.799  66.220  1.00  0.00    -0.134 A  
HETATM   30  C   UNL     1      -6.861  10.175  64.984  1.00  0.00    -0.132 A  
HETATM   31  C   UNL     1      -7.829   9.179  64.830  1.00  0.00    -0.117 A  
HETATM   32  C   UNL     1      -8.638   8.801  65.911  1.00  0.00    -0.174 A  
ENDBRANCH  19  27
ENDBRANCH   2  15
TORSDOF 4
ENDMDL
MODEL      157
REMARK 921   NORMALIZED FREE ENERGY PREDICTED BY IDOCK:   -4.87 KCAL/MOL
REMARK 922        TOTAL FREE ENERGY PREDICTED BY IDOCK:   -6.88 KCAL/MOL
REMARK 923 INTER-LIGAND FREE ENERGY PREDICTED BY IDOCK:   -6.16 KCAL/MOL
REMARK 924 INTRA-LIGAND FREE ENERGY PREDICTED BY IDOCK:   -0.72 KCAL/MOL
REMARK 927      BINDING AFFINITY PREDICTED BY RF-SCORE:    0.00 PKD
ROOT
HETATM    1  C   UNL     1     -11.121  10.523  70.295  1.00  0.00    -0.359 C  
HETATM    2  C   UNL     1     -10.097  10.799  69.195  1.00  0.00    -0.205 C  
ENDROOT
BRANCH   2   3
HETATM    3  N   UNL     1      -8.779  11.158  69.700  1.00  0.00    -0.084 NA 
HETATM    4  H   UNL     1      -8.678  11.619  70.605  1.00  0.00     0.000 HD 
BRANCH   3   5
HETATM    5  C   UNL     1      -7.658  10.863  68.929  1.00  0.00    -0.128 A  
HETATM    6  C   UNL     1      -5.816  11.482  67.551  1.00  0.00    -0.067 A  
HETATM    7  N   UNL     1      -5.349  10.240  67.369  1.00  0.00    -0.041 NA 
HETATM    8  C   UNL     1      -6.070  13.670  67.490  1.00  0.00    -0.010 A  
HETATM    9  H   UNL     1      -7.802  13.813  68.671  1.00  0.00     0.000 HD 
HETATM   10  N   UNL     1      -7.075  13.250  68.230  1.00  0.00    -0.096 NA 
HETATM   11  C   UNL     1      -6.127   9.348  68.013  1.00  0.00    -0.052 A  
HETATM   12  C   UNL     1      -6.926  11.876  68.278  1.00  0.00    -0.077 A  
HETATM   13  N   UNL     1      -5.280  12.636  67.064  1.00  0.00    -0.337 NA 
HETATM   14  N   UNL     1      -7.226   9.581  68.766  1.00  0.00    -0.072 NA 
ENDBRANCH   3   5
ENDBRANCH   2   3
BRANCH   2  15
HETATM   15  C   UNL     1     -10.467  11.758  68.050  1.00  0.00    -0.199 C  
HETATM   16  O   UNL     1     -11.503  15.087  67.115  1.00  0.00    -0.347 OA 
HETATM   17  C   UNL     1     -10.414  11.201  66.825  1.00  0.00    -0.297 C  
HETATM   18  C   UNL     1     -10.848  11.894  65.629  1.00  0.00    -0.333 A  
HETATM   19  N   UNL     1     -10.907  13.094  68.187  1.00  0.00    -0.243 N  
HETATM   20  C   UNL     1     -10.909  11.180  64.423  1.00  0.00    -0.340 A  
HETATM   21  C   UNL     1     -11.223  13.891  67.037  1.00  0.00    -0.313 C  
HETATM   22  C   UNL     1     -11.221  13.240  65.691  1.00  0.00    -0.304 A  
HETATM   23 CL   UNL     1     -12.046  15.548  64.370  1.00  0.00    -0.271 Cl 
HETATM   24  C   UNL     1     -11.338  11.805  63.260  1.00  0.00    -0.347 A  
HETATM   25  C   UNL     1     -11.678  13.154  63.299  1.00  0.00    -0.266 A  
HETATM   26  C   UNL     1     -11.613  13.877  64.500  1.00  0.00    -0.393 A  
BRANCH  19  27
HETATM   27  C   UNL     1     -11.124  13.758  69.446  1.00  0.00    -0.156 A  
HETATM   28  C   UNL     1     -12.256  13.421  70.211  1.00  0.00    -0.405 A  
HETATM   29  C   UNL     1     -12.504  14.031  71.445  1.00  0.00    -0.438 A  
HETATM   30  C   UNL     1     -11.625  14.996  71.932  1.00  0.00    -0.426 A  
HETATM   31  C   UNL     1     -10.515  15.363  71.168  1.00  0.00     0.366 A  
HETATM   32  C   UNL     1     -10.277  14.763  69.923  1.00  0.00     0.078 A  
ENDBRANCH  19  27
ENDBRANCH   2  15
TORSDOF 4
ENDMDL
MODEL      158
REMARK 921   NORMALIZED FREE ENERGY PREDICTED BY IDOCK:   -4.86 KCAL/MOL
REMARK 922        TOTAL FREE ENERGY PREDICTED BY IDOCK:   -6.87 KCAL/MOL
REMARK 923 INTER-LIGAND FREE ENERGY PREDICTED BY IDOCK:   -6.03 KCAL/MOL
REMARK 924 INTRA-LIGAND FREE ENERGY PREDICTED BY IDOCK:   -0.84 KCAL/MOL
REMARK 927      BINDING AFFINITY PREDICTED BY RF-SCORE:    0.00 PKD
ROOT
HETATM    1  C   UNL     1     -11.053   6.458  66.766  1.00  0.00    -0.241 C  
HETATM    2  C   UNL     1     -10.493   7.461  67.772  1.00  0.00    -0.232 C  
ENDROOT
BRANCH   2   3
HETATM    3  N   UNL     1      -9.594   8.444  67.181  1.00  0.00    -0.167 NA 
HETATM    4  H   UNL     1      -8.585   8.292  67.185  1.00  0.00     0.000 HD 
BRANCH   3   5
HETATM    5  C   UNL     1     -10.134   9.593  66.608  1.00  0.00    -0.239 A  
HETATM    6  C   UNL     1     -11.352  11.636  66.716  1.00  0.00    -0.286 A  
HETATM    7  N   UNL     1     -11.215  11.954  65.422  1.00  0.00    -0.314 NA 
HETATM    8  C   UNL     1     -11.891  11.678  68.853  1.00  0.00    -0.329 A  
HETATM    9  H   UNL     1     -11.003   9.863  69.431  1.00  0.00     0.000 HD 
HETATM   10  N   UNL     1     -11.220  10.554  68.712  1.00  0.00    -0.257 NA 
HETATM   11  C   UNL     1     -10.511  11.002  64.779  1.00  0.00    -0.316 A  
HETATM   12  C   UNL     1     -10.874  10.516  67.373  1.00  0.00    -0.291 A  
HETATM   13  N   UNL     1     -11.989  12.367  67.674  1.00  0.00    -0.481 NA 
HETATM   14  N   UNL     1      -9.974   9.868  65.285  1.00  0.00    -0.310 NA 
ENDBRANCH   3   5
ENDBRANCH   2   3
BRANCH   2  15
HETATM   15  C   UNL     1      -9.867   6.942  69.079  1.00  0.00    -0.152 C  
HETATM   16  O   UNL     1      -7.378   4.816  70.599  1.00  0.00    -0.054 OA 
HETATM   17  C   UNL     1     -10.432   7.438  70.197  1.00  0.00    -0.228 C  
HETATM   18  C   UNL     1     -10.078   6.979  71.524  1.00  0.00    -0.197 A  
HETATM   19  N   UNL     1      -8.843   5.975  69.189  1.00  0.00    -0.119 N  
HETATM   20  C   UNL     1     -10.832   7.435  72.616  1.00  0.00    -0.349 A  
HETATM   21  C   UNL     1      -8.341   5.571  70.471  1.00  0.00    -0.116 C  
HETATM   22  C   UNL     1      -9.022   6.082  71.701  1.00  0.00    -0.143 A  
HETATM   23 CL   UNL     1      -7.388   4.633  73.430  1.00  0.00    -0.080 Cl 
HETATM   24  C   UNL     1     -10.535   7.003  73.902  1.00  0.00    -0.332 A  
HETATM   25  C   UNL     1      -9.463   6.138  74.097  1.00  0.00    -0.173 A  
HETATM   26  C   UNL     1      -8.699   5.683  73.011  1.00  0.00    -0.121 A  
BRANCH  19  27
HETATM   27  C   UNL     1      -8.249   5.283  68.076  1.00  0.00    -0.098 A  
HETATM   28  C   UNL     1      -7.090   5.814  67.480  1.00  0.00    -0.074 A  
HETATM   29  C   UNL     1      -6.471   5.172  66.402  1.00  0.00    -0.044 A  
HETATM   30  C   UNL     1      -7.007   3.990  65.896  1.00  0.00    -0.065 A  
HETATM   31  C   UNL     1      -8.176   3.469  66.457  1.00  0.00    -0.100 A  
HETATM   32  C   UNL     1      -8.804   4.123  67.527  1.00  0.00    -0.126 A  
ENDBRANCH  19  27
ENDBRANCH   2  15
TORSDOF 4
ENDMDL
MODEL      159
REMARK 921   NORMALIZED FREE ENERGY PREDICTED BY IDOCK:   -4.86 KCAL/MOL
REMARK 922        TOTAL FREE ENERGY PREDICTED BY IDOCK:   -6.87 KCAL/MOL
REMARK 923 INTER-LIGAND FREE ENERGY PREDICTED BY IDOCK:   -6.13 KCAL/MOL
REMARK 924 INTRA-LIGAND FREE ENERGY PREDICTED BY IDOCK:   -0.74 KCAL/MOL
REMARK 927      BINDING AFFINITY PREDICTED BY RF-SCORE:    0.00 PKD
ROOT
HETATM    1  C   UNL     1      -8.869   9.527  70.419  1.00  0.00    -0.279 C  
HETATM    2  C   UNL     1      -9.415   9.154  69.042  1.00  0.00    -0.152 C  
ENDROOT
BRANCH   2   3
HETATM    3  N   UNL     1     -10.844   9.400  68.892  1.00  0.00    -0.383 NA 
HETATM    4  H   UNL     1     -11.424   8.766  68.345  1.00  0.00     0.000 HD 
BRANCH   3   5
HETATM    5  C   UNL     1     -11.403  10.517  69.509  1.00  0.00    -0.278 A  
HETATM    6  C   UNL     1     -11.812  12.857  69.675  1.00  0.00    -0.320 A  
HETATM    7  N   UNL     1     -12.575  12.792  70.773  1.00  0.00    -0.276 NA 
HETATM    8  C   UNL     1     -10.692  13.592  67.924  1.00  0.00    -0.247 A  
HETATM    9  H   UNL     1      -9.951  11.751  67.236  1.00  0.00     0.000 HD 
HETATM   10  N   UNL     1     -10.498  12.290  67.908  1.00  0.00    -0.208 NA 
HETATM   11  C   UNL     1     -12.694  11.515  71.186  1.00  0.00    -0.356 A  
HETATM   12  C   UNL     1     -11.197  11.816  69.002  1.00  0.00    -0.265 A  
HETATM   13  N   UNL     1     -11.486  13.978  68.971  1.00  0.00    -0.275 NA 
HETATM   14  N   UNL     1     -12.167  10.400  70.630  1.00  0.00    -0.320 NA 
ENDBRANCH   3   5
ENDBRANCH   2   3
BRANCH   2  15
HETATM   15  C   UNL     1      -9.088   7.769  68.457  1.00  0.00    -0.132 C  
HETATM   16  O   UNL     1      -7.939   5.894  65.595  1.00  0.00    -0.107 OA 
HETATM   17  C   UNL     1      -9.292   6.747  69.311  1.00  0.00    -0.144 C  
HETATM   18  C   UNL     1      -9.168   5.358  68.916  1.00  0.00    -0.147 A  
HETATM   19  N   UNL     1      -8.679   7.495  67.132  1.00  0.00    -0.120 N  
HETATM   20  C   UNL     1      -9.557   4.364  69.826  1.00  0.00    -0.276 A  
HETATM   21  C   UNL     1      -8.401   6.154  66.705  1.00  0.00    -0.111 C  
HETATM   22  C   UNL     1      -8.694   5.028  67.644  1.00  0.00    -0.103 A  
HETATM   23 CL   UNL     1      -7.942   3.066  65.815  1.00  0.00    -0.085 Cl 
HETATM   24  C   UNL     1      -9.470   3.023  69.477  1.00  0.00    -0.173 A  
HETATM   25  C   UNL     1      -8.966   2.678  68.227  1.00  0.00    -0.195 A  
HETATM   26  C   UNL     1      -8.568   3.666  67.313  1.00  0.00    -0.108 A  
BRANCH  19  27
HETATM   27  C   UNL     1      -8.547   8.487  66.097  1.00  0.00    -0.138 A  
HETATM   28  C   UNL     1      -7.262   8.828  65.636  1.00  0.00    -0.084 A  
HETATM   29  C   UNL     1      -7.085   9.778  64.625  1.00  0.00    -0.127 A  
HETATM   30  C   UNL     1      -8.192  10.409  64.062  1.00  0.00    -0.117 A  
HETATM   31  C   UNL     1      -9.471  10.103  64.533  1.00  0.00    -0.364 A  
HETATM   32  C   UNL     1      -9.646   9.163  65.559  1.00  0.00    -0.239 A  
ENDBRANCH  19  27
ENDBRANCH   2  15
TORSDOF 4
ENDMDL
MODEL      160
REMARK 921   NORMALIZED FREE ENERGY PREDICTED BY IDOCK:   -4.85 KCAL/MOL
REMARK 922        TOTAL FREE ENERGY PREDICTED BY IDOCK:   -6.86 KCAL/MOL
REMARK 923 INTER-LIGAND FREE ENERGY PREDICTED BY IDOCK:   -6.52 KCAL/MOL
REMARK 924 INTRA-LIGAND FREE ENERGY PREDICTED BY IDOCK:   -0.34 KCAL/MOL
REMARK 927      BINDING AFFINITY PREDICTED BY RF-SCORE:    0.00 PKD
ROOT
HETATM    1  C   UNL     1      -8.166   9.557  67.260  1.00  0.00    -0.114 C  
HETATM    2  C   UNL     1      -8.149  10.954  67.879  1.00  0.00    -0.113 C  
ENDROOT
BRANCH   2   3
HETATM    3  N   UNL     1      -8.575  10.982  69.272  1.00  0.00    -0.379 NA 
HETATM    4  H   UNL     1      -8.420  11.811  69.844  1.00  0.00     0.000 HD 
BRANCH   3   5
HETATM    5  C   UNL     1      -9.197   9.857  69.809  1.00  0.00    -0.227 A  
HETATM    6  C   UNL     1      -9.253   7.951  71.236  1.00  0.00    -0.146 A  
HETATM    7  N   UNL     1     -10.495   7.568  70.915  1.00  0.00    -0.212 NA 
HETATM    8  C   UNL     1      -7.252   8.069  72.153  1.00  0.00    -0.085 A  
HETATM    9  H   UNL     1      -6.556   9.784  71.157  1.00  0.00     0.000 HD 
HETATM   10  N   UNL     1      -7.290   9.095  71.329  1.00  0.00    -0.271 NA 
HETATM   11  C   UNL     1     -11.023   8.406  70.002  1.00  0.00    -0.194 A  
HETATM   12  C   UNL     1      -8.542   9.033  70.747  1.00  0.00    -0.217 A  
HETATM   13  N   UNL     1      -8.419   7.354  72.134  1.00  0.00    -0.108 NA 
HETATM   14  N   UNL     1     -10.460   9.503  69.445  1.00  0.00    -0.209 NA 
ENDBRANCH   3   5
ENDBRANCH   2   3
BRANCH   2  15
HETATM   15  C   UNL     1      -8.828  12.114  67.130  1.00  0.00    -0.191 C  
HETATM   16  O   UNL     1      -8.888  15.662  66.476  1.00  0.00    -0.259 OA 
HETATM   17  C   UNL     1      -9.868  11.739  66.359  1.00  0.00    -0.237 C  
HETATM   18  C   UNL     1     -10.721  12.691  65.676  1.00  0.00    -0.297 A  
HETATM   19  N   UNL     1      -8.505  13.485  67.241  1.00  0.00    -0.196 N  
HETATM   20  C   UNL     1     -11.873  12.218  65.031  1.00  0.00    -0.412 A  
HETATM   21  C   UNL     1      -9.215  14.476  66.486  1.00  0.00    -0.255 C  
HETATM   22  C   UNL     1     -10.406  14.052  65.687  1.00  0.00    -0.342 A  
HETATM   23 CL   UNL     1     -10.988  16.640  64.838  1.00  0.00    -0.283 Cl 
HETATM   24  C   UNL     1     -12.725  13.101  64.382  1.00  0.00    -0.235 A  
HETATM   25  C   UNL     1     -12.405  14.455  64.353  1.00  0.00    -0.428 A  
HETATM   26  C   UNL     1     -11.250  14.936  64.990  1.00  0.00    -0.404 A  
BRANCH  19  27
HETATM   27  C   UNL     1      -7.501  14.019  68.123  1.00  0.00    -0.131 A  
HETATM   28  C   UNL     1      -7.868  15.001  69.061  1.00  0.00    -0.170 A  
HETATM   29  C   UNL     1      -6.929  15.543  69.947  1.00  0.00    -0.073 A  
HETATM   30  C   UNL     1      -5.605  15.114  69.903  1.00  0.00    -0.118 A  
HETATM   31  C   UNL     1      -5.220  14.163  68.955  1.00  0.00    -0.080 A  
HETATM   32  C   UNL     1      -6.158  13.634  68.056  1.00  0.00    -0.138 A  
ENDBRANCH  19  27
ENDBRANCH   2  15
TORSDOF 4
ENDMDL
MODEL      161
REMARK 921   NORMALIZED FREE ENERGY PREDICTED BY IDOCK:   -4.79 KCAL/MOL
REMARK 922        TOTAL FREE ENERGY PREDICTED BY IDOCK:   -6.79 KCAL/MOL
REMARK 923 INTER-LIGAND FREE ENERGY PREDICTED BY IDOCK:   -5.37 KCAL/MOL
REMARK 924 INTRA-LIGAND FREE ENERGY PREDICTED BY IDOCK:   -1.42 KCAL/MOL
REMARK 927      BINDING AFFINITY PREDICTED BY RF-SCORE:    0.00 PKD
ROOT
HETATM    1  C   UNL     1      -6.732  11.908  66.700  1.00  0.00     0.084 C  
HETATM    2  C   UNL     1      -7.722  12.765  67.487  1.00  0.00    -0.168 C  
ENDROOT
BRANCH   2   3
HETATM    3  N   UNL     1      -7.086  13.788  68.307  1.00  0.00    -0.096 NA 
HETATM    4  H   UNL     1      -6.595  13.534  69.164  1.00  0.00     0.000 HD 
BRANCH   3   5
HETATM    5  C   UNL     1      -7.160  15.119  67.902  1.00  0.00    -0.146 A  
HETATM    6  C   UNL     1      -6.801  17.451  68.226  1.00  0.00    -0.190 A  
HETATM    7  N   UNL     1      -7.301  17.838  67.046  1.00  0.00    -0.187 NA 
HETATM    8  C   UNL     1      -5.878  17.446  70.228  1.00  0.00    -0.118 A  
HETATM    9  H   UNL     1      -5.928  15.377  70.587  1.00  0.00     0.000 HD 
HETATM   10  N   UNL     1      -6.123  16.176  69.983  1.00  0.00    -0.176 NA 
HETATM   11  C   UNL     1      -7.727  16.770  66.344  1.00  0.00    -0.310 A  
HETATM   12  C   UNL     1      -6.702  16.165  68.728  1.00  0.00    -0.136 A  
HETATM   13  N   UNL     1      -6.265  18.252  69.190  1.00  0.00    -0.235 NA 
HETATM   14  N   UNL     1      -7.685  15.464  66.694  1.00  0.00    -0.013 NA 
ENDBRANCH   3   5
ENDBRANCH   2   3
BRANCH   2  15
HETATM   15  C   UNL     1      -8.816  12.073  68.318  1.00  0.00    -0.182 C  
HETATM   16  O   UNL     1     -12.231  12.158  69.483  1.00  0.00    -0.222 OA 
HETATM   17  C   UNL     1      -8.418  10.931  68.913  1.00  0.00    -0.142 C  
HETATM   18  C   UNL     1      -9.255  10.198  69.841  1.00  0.00    -0.119 A  
HETATM   19  N   UNL     1     -10.122  12.560  68.553  1.00  0.00    -0.211 N  
HETATM   20  C   UNL     1      -8.698   9.113  70.534  1.00  0.00    -0.258 A  
HETATM   21  C   UNL     1     -11.056  11.818  69.350  1.00  0.00    -0.181 C  
HETATM   22  C   UNL     1     -10.580  10.588  70.054  1.00  0.00    -0.223 A  
HETATM   23 CL   UNL     1     -13.033  10.121  71.287  1.00  0.00    -0.479 Cl 
HETATM   24  C   UNL     1      -9.462   8.397  71.446  1.00  0.00    -0.251 A  
HETATM   25  C   UNL     1     -10.794   8.751  71.641  1.00  0.00    -0.399 A  
HETATM   26  C   UNL     1     -11.361   9.831  70.946  1.00  0.00    -0.365 A  
BRANCH  19  27
HETATM   27  C   UNL     1     -10.621  13.823  68.077  1.00  0.00    -0.252 A  
HETATM   28  C   UNL     1     -11.239  13.882  66.814  1.00  0.00    -0.328 A  
HETATM   29  C   UNL     1     -11.748  15.086  66.313  1.00  0.00    -0.096 A  
HETATM   30  C   UNL     1     -11.640  16.252  67.066  1.00  0.00     0.606 A  
HETATM   31  C   UNL     1     -11.000  16.214  68.307  1.00  0.00    -0.340 A  
HETATM   32  C   UNL     1     -10.475  15.011  68.800  1.00  0.00    -0.238 A  
ENDBRANCH  19  27
ENDBRANCH   2  15
TORSDOF 4
ENDMDL
MODEL      162
REMARK 921   NORMALIZED FREE ENERGY PREDICTED BY IDOCK:   -4.75 KCAL/MOL
REMARK 922        TOTAL FREE ENERGY PREDICTED BY IDOCK:   -6.74 KCAL/MOL
REMARK 923 INTER-LIGAND FREE ENERGY PREDICTED BY IDOCK:   -6.58 KCAL/MOL
REMARK 924 INTRA-LIGAND FREE ENERGY PREDICTED BY IDOCK:   -0.16 KCAL/MOL
REMARK 927      BINDING AFFINITY PREDICTED BY RF-SCORE:    0.00 PKD
ROOT
HETATM    1  C   UNL     1      -7.082  14.918  69.474  1.00  0.00    -0.184 C  
HETATM    2  C   UNL     1      -7.876  15.575  68.347  1.00  0.00    -0.126 C  
ENDROOT
BRANCH   2   3
HETATM    3  N   UNL     1      -8.671  16.717  68.779  1.00  0.00    -0.256 NA 
HETATM    4  H   UNL     1      -9.459  16.589  69.413  1.00  0.00     0.000 HD 
BRANCH   3   5
HETATM    5  C   UNL     1      -8.337  17.986  68.312  1.00  0.00    -0.290 A  
HETATM    6  C   UNL     1      -6.945  19.917  68.250  1.00  0.00    -0.297 A  
HETATM    7  N   UNL     1      -7.656  20.577  67.326  1.00  0.00    -0.331 NA 
HETATM    8  C   UNL     1      -5.406  19.358  69.725  1.00  0.00    -0.202 A  
HETATM    9  H   UNL     1      -6.168  17.477  70.269  1.00  0.00     0.000 HD 
HETATM   10  N   UNL     1      -6.231  18.332  69.716  1.00  0.00    -0.213 NA 
HETATM   11  C   UNL     1      -8.725  19.848  66.949  1.00  0.00    -0.340 A  
HETATM   12  C   UNL     1      -7.202  18.670  68.792  1.00  0.00    -0.305 A  
HETATM   13  N   UNL     1      -5.795  20.336  68.849  1.00  0.00    -0.281 NA 
HETATM   14  N   UNL     1      -9.096  18.619  67.376  1.00  0.00    -0.277 NA 
ENDBRANCH   3   5
ENDBRANCH   2   3
BRANCH   2  15
HETATM   15  C   UNL     1      -8.736  14.693  67.424  1.00  0.00    -0.197 C  
HETATM   16  O   UNL     1      -9.363  11.380  66.137  1.00  0.00    -0.203 OA 
HETATM   17  C   UNL     1      -9.700  15.363  66.763  1.00  0.00    -0.254 C  
HETATM   18  C   UNL     1     -10.532  14.744  65.751  1.00  0.00    -0.348 A  
HETATM   19  N   UNL     1      -8.553  13.314  67.175  1.00  0.00    -0.205 N  
HETATM   20  C   UNL     1     -11.396  15.556  65.002  1.00  0.00    -0.301 A  
HETATM   21  C   UNL     1      -9.427  12.599  66.290  1.00  0.00    -0.207 C  
HETATM   22  C   UNL     1     -10.449  13.369  65.516  1.00  0.00    -0.297 A  
HETATM   23 CL   UNL     1     -11.378  11.123  64.157  1.00  0.00    -0.124 Cl 
HETATM   24  C   UNL     1     -12.195  15.003  64.011  1.00  0.00    -0.117 A  
HETATM   25  C   UNL     1     -12.150  13.630  63.791  1.00  0.00    -0.435 A  
HETATM   26  C   UNL     1     -11.293  12.808  64.540  1.00  0.00    -0.334 A  
BRANCH  19  27
HETATM   27  C   UNL     1      -7.485  12.520  67.724  1.00  0.00    -0.130 A  
HETATM   28  C   UNL     1      -6.231  12.527  67.085  1.00  0.00    -0.042 A  
HETATM   29  C   UNL     1      -5.160  11.779  67.586  1.00  0.00    -0.064 A  
HETATM   30  C   UNL     1      -5.329  11.005  68.732  1.00  0.00    -0.040 A  
HETATM   31  C   UNL     1      -6.577  10.963  69.356  1.00  0.00    -0.095 A  
HETATM   32  C   UNL     1      -7.655  11.700  68.843  1.00  0.00    -0.087 A  
ENDBRANCH  19  27
ENDBRANCH   2  15
TORSDOF 4
ENDMDL
MODEL      163
REMARK 921   NORMALIZED FREE ENERGY PREDICTED BY IDOCK:   -4.75 KCAL/MOL
REMARK 922        TOTAL FREE ENERGY PREDICTED BY IDOCK:   -6.73 KCAL/MOL
REMARK 923 INTER-LIGAND FREE ENERGY PREDICTED BY IDOCK:   -5.50 KCAL/MOL
REMARK 924 INTRA-LIGAND FREE ENERGY PREDICTED BY IDOCK:   -1.23 KCAL/MOL
REMARK 927      BINDING AFFINITY PREDICTED BY RF-SCORE:    0.00 PKD
ROOT
HETATM    1  C   UNL     1      -7.569  10.877  69.444  1.00  0.00    -0.097 C  
HETATM    2  C   UNL     1      -8.556   9.802  68.990  1.00  0.00    -0.146 C  
ENDROOT
BRANCH   2   3
HETATM    3  N   UNL     1      -8.710   8.710  69.942  1.00  0.00    -0.130 NA 
HETATM    4  H   UNL     1      -7.987   7.997  70.034  1.00  0.00     0.000 HD 
BRANCH   3   5
HETATM    5  C   UNL     1      -9.861   8.655  70.724  1.00  0.00    -0.192 A  
HETATM    6  C   UNL     1     -11.337   7.562  72.240  1.00  0.00    -0.292 A  
HETATM    7  N   UNL     1     -12.214   8.570  72.339  1.00  0.00    -0.385 NA 
HETATM    8  C   UNL     1     -10.301   5.633  72.499  1.00  0.00    -0.201 A  
HETATM    9  H   UNL     1      -8.676   5.981  71.214  1.00  0.00     0.000 HD 
HETATM   10  N   UNL     1      -9.543   6.295  71.650  1.00  0.00    -0.155 NA 
HETATM   11  C   UNL     1     -11.827   9.604  71.568  1.00  0.00    -0.407 A  
HETATM   12  C   UNL     1     -10.182   7.510  71.480  1.00  0.00    -0.188 A  
HETATM   13  N   UNL     1     -11.393   6.364  72.887  1.00  0.00    -0.187 NA 
HETATM   14  N   UNL     1     -10.727   9.704  70.787  1.00  0.00    -0.311 NA 
ENDBRANCH   3   5
ENDBRANCH   2   3
BRANCH   2  15
HETATM   15  C   UNL     1      -8.422   9.211  67.576  1.00  0.00    -0.116 C  
HETATM   16  O   UNL     1      -9.090   9.627  64.053  1.00  0.00    -0.243 OA 
HETATM   17  C   UNL     1      -7.801   8.016  67.533  1.00  0.00    -0.118 C  
HETATM   18  C   UNL     1      -7.689   7.234  66.320  1.00  0.00    -0.097 A  
HETATM   19  N   UNL     1      -8.940   9.767  66.384  1.00  0.00    -0.148 N  
HETATM   20  C   UNL     1      -7.171   5.932  66.404  1.00  0.00    -0.077 A  
HETATM   21  C   UNL     1      -8.748   9.118  65.120  1.00  0.00    -0.195 C  
HETATM   22  C   UNL     1      -8.114   7.763  65.098  1.00  0.00    -0.137 A  
HETATM   23 CL   UNL     1      -8.372   7.484  62.339  1.00  0.00    -0.092 Cl 
HETATM   24  C   UNL     1      -7.066   5.145  65.266  1.00  0.00    -0.066 A  
HETATM   25  C   UNL     1      -7.451   5.672  64.038  1.00  0.00    -0.067 A  
HETATM   26  C   UNL     1      -7.964   6.975  63.943  1.00  0.00    -0.069 A  
BRANCH  19  27
HETATM   27  C   UNL     1      -9.727  10.971  66.319  1.00  0.00    -0.207 A  
HETATM   28  C   UNL     1      -9.074  12.206  66.150  1.00  0.00    -0.101 A  
HETATM   29  C   UNL     1      -9.796  13.402  66.071  1.00  0.00    -0.273 A  
HETATM   30  C   UNL     1     -11.185  13.381  66.167  1.00  0.00    -0.311 A  
HETATM   31  C   UNL     1     -11.844  12.166  66.367  1.00  0.00    -0.321 A  
HETATM   32  C   UNL     1     -11.117  10.970  66.464  1.00  0.00    -0.174 A  
ENDBRANCH  19  27
ENDBRANCH   2  15
TORSDOF 4
ENDMDL
MODEL      164
REMARK 921   NORMALIZED FREE ENERGY PREDICTED BY IDOCK:   -4.73 KCAL/MOL
REMARK 922        TOTAL FREE ENERGY PREDICTED BY IDOCK:   -6.71 KCAL/MOL
REMARK 923 INTER-LIGAND FREE ENERGY PREDICTED BY IDOCK:   -6.94 KCAL/MOL
REMARK 924 INTRA-LIGAND FREE ENERGY PREDICTED BY IDOCK:    0.23 KCAL/MOL
REMARK 927      BINDING AFFINITY PREDICTED BY RF-SCORE:    0.00 PKD
ROOT
HETATM    1  C   UNL     1      -8.247  16.901  69.404  1.00  0.00     0.231 C  
HETATM    2  C   UNL     1      -7.740  15.740  68.549  1.00  0.00    -0.137 C  
ENDROOT
BRANCH   2   3
HETATM    3  N   UNL     1      -6.384  15.929  68.050  1.00  0.00    -0.121 NA 
HETATM    4  H   UNL     1      -5.682  15.199  68.168  1.00  0.00     0.000 HD 
BRANCH   3   5
HETATM    5  C   UNL     1      -6.063  17.122  67.408  1.00  0.00    -0.147 A  
HETATM    6  C   UNL     1      -5.480  19.432  67.407  1.00  0.00    -0.165 A  
HETATM    7  N   UNL     1      -5.383  19.555  66.077  1.00  0.00    -0.154 NA 
HETATM    8  C   UNL     1      -5.465  19.850  69.571  1.00  0.00    -0.220 A  
HETATM    9  H   UNL     1      -6.004  17.939  70.259  1.00  0.00     0.000 HD 
HETATM   10  N   UNL     1      -5.799  18.579  69.491  1.00  0.00    -0.237 NA 
HETATM   11  C   UNL     1      -5.660  18.381  65.477  1.00  0.00    -0.197 A  
HETATM   12  C   UNL     1      -5.811  18.303  68.136  1.00  0.00    -0.173 A  
HETATM   13  N   UNL     1      -5.255  20.403  68.336  1.00  0.00    -0.211 NA 
HETATM   14  N   UNL     1      -5.984  17.200  66.051  1.00  0.00    -0.178 NA 
ENDBRANCH   3   5
ENDBRANCH   2   3
BRANCH   2  15
HETATM   15  C   UNL     1      -8.621  15.214  67.402  1.00  0.00    -0.184 C  
HETATM   16  O   UNL     1     -11.015  16.014  64.822  1.00  0.00    -0.551 OA 
HETATM   17  C   UNL     1      -8.529  13.885  67.200  1.00  0.00    -0.196 C  
HETATM   18  C   UNL     1      -9.370  13.175  66.259  1.00  0.00    -0.138 A  
HETATM   19  N   UNL     1      -9.530  15.972  66.630  1.00  0.00    -0.222 N  
HETATM   20  C   UNL     1      -9.317  11.773  66.234  1.00  0.00    -0.235 A  
HETATM   21  C   UNL     1     -10.299  15.364  65.582  1.00  0.00    -0.372 C  
HETATM   22  C   UNL     1     -10.233  13.880  65.415  1.00  0.00    -0.356 A  
HETATM   23 CL   UNL     1     -12.087  13.848  63.337  1.00  0.00    -0.199 Cl 
HETATM   24  C   UNL     1     -10.121  11.057  65.359  1.00  0.00    -0.326 A  
HETATM   25  C   UNL     1     -10.958  11.746  64.487  1.00  0.00    -0.382 A  
HETATM   26  C   UNL     1     -11.013  13.149  64.500  1.00  0.00    -0.372 A  
BRANCH  19  27
HETATM   27  C   UNL     1      -9.808  17.370  66.834  1.00  0.00    -0.289 A  
HETATM   28  C   UNL     1     -10.736  17.745  67.823  1.00  0.00    -0.332 A  
HETATM   29  C   UNL     1     -11.031  19.091  68.065  1.00  0.00    -0.038 A  
HETATM   30  C   UNL     1     -10.407  20.085  67.314  1.00  0.00    -0.550 A  
HETATM   31  C   UNL     1      -9.508  19.725  66.308  1.00  0.00    -0.493 A  
HETATM   32  C   UNL     1      -9.227  18.375  66.055  1.00  0.00     0.003 A  
ENDBRANCH  19  27
ENDBRANCH   2  15
TORSDOF 4
ENDMDL
MODEL      165
REMARK 921   NORMALIZED FREE ENERGY PREDICTED BY IDOCK:   -4.71 KCAL/MOL
REMARK 922        TOTAL FREE ENERGY PREDICTED BY IDOCK:   -6.68 KCAL/MOL
REMARK 923 INTER-LIGAND FREE ENERGY PREDICTED BY IDOCK:   -5.47 KCAL/MOL
REMARK 924 INTRA-LIGAND FREE ENERGY PREDICTED BY IDOCK:   -1.21 KCAL/MOL
REMARK 927      BINDING AFFINITY PREDICTED BY RF-SCORE:    0.00 PKD
ROOT
HETATM    1  C   UNL     1      -6.825   5.615  68.713  1.00  0.00    -0.059 C  
HETATM    2  C   UNL     1      -7.817   6.594  69.338  1.00  0.00    -0.113 C  
ENDROOT
BRANCH   2   3
HETATM    3  N   UNL     1      -8.995   5.950  69.906  1.00  0.00    -0.138 NA 
HETATM    4  H   UNL     1      -9.478   5.212  69.395  1.00  0.00     0.000 HD 
BRANCH   3   5
HETATM    5  C   UNL     1      -9.450   6.359  71.157  1.00  0.00    -0.167 A  
HETATM    6  C   UNL     1     -10.945   7.550  72.577  1.00  0.00    -0.313 A  
HETATM    7  N   UNL     1     -10.381   7.170  73.731  1.00  0.00    -0.362 NA 
HETATM    8  C   UNL     1     -12.275   8.478  71.083  1.00  0.00    -0.232 A  
HETATM    9  H   UNL     1     -11.353   7.737  69.347  1.00  0.00     0.000 HD 
HETATM   10  N   UNL     1     -11.400   7.807  70.364  1.00  0.00    -0.248 NA 
HETATM   11  C   UNL     1      -9.323   6.371  73.493  1.00  0.00    -0.134 A  
HETATM   12  C   UNL     1     -10.559   7.218  71.290  1.00  0.00    -0.220 A  
HETATM   13  N   UNL     1     -12.042   8.345  72.426  1.00  0.00    -0.389 NA 
HETATM   14  N   UNL     1      -8.837   5.951  72.303  1.00  0.00    -0.138 NA 
ENDBRANCH   3   5
ENDBRANCH   2   3
BRANCH   2  15
HETATM   15  C   UNL     1      -8.266   7.824  68.531  1.00  0.00    -0.128 C  
HETATM   16  O   UNL     1      -9.861   9.053  65.535  1.00  0.00    -0.159 OA 
HETATM   17  C   UNL     1      -7.978   9.003  69.115  1.00  0.00    -0.101 C  
HETATM   18  C   UNL     1      -8.199  10.277  68.462  1.00  0.00    -0.111 A  
HETATM   19  N   UNL     1      -8.865   7.812  67.250  1.00  0.00    -0.127 N  
HETATM   20  C   UNL     1      -7.719  11.442  69.079  1.00  0.00    -0.064 A  
HETATM   21  C   UNL     1      -9.241   9.033  66.598  1.00  0.00    -0.167 C  
HETATM   22  C   UNL     1      -8.856  10.332  67.230  1.00  0.00    -0.136 A  
HETATM   23 CL   UNL     1      -9.916  11.864  65.160  1.00  0.00    -0.275 Cl 
HETATM   24  C   UNL     1      -7.895  12.679  68.475  1.00  0.00    -0.104 A  
HETATM   25  C   UNL     1      -8.579  12.753  67.266  1.00  0.00    -0.197 A  
HETATM   26  C   UNL     1      -9.069  11.593  66.645  1.00  0.00    -0.194 A  
BRANCH  19  27
HETATM   27  C   UNL     1      -9.108   6.625  66.474  1.00  0.00    -0.149 A  
HETATM   28  C   UNL     1     -10.286   5.889  66.700  1.00  0.00    -0.258 A  
HETATM   29  C   UNL     1     -10.571   4.734  65.963  1.00  0.00    -0.300 A  
HETATM   30  C   UNL     1      -9.676   4.292  64.991  1.00  0.00    -0.194 A  
HETATM   31  C   UNL     1      -8.487   4.994  64.780  1.00  0.00    -0.148 A  
HETATM   32  C   UNL     1      -8.195   6.142  65.531  1.00  0.00    -0.144 A  
ENDBRANCH  19  27
ENDBRANCH   2  15
TORSDOF 4
ENDMDL
MODEL      166
REMARK 921   NORMALIZED FREE ENERGY PREDICTED BY IDOCK:   -4.68 KCAL/MOL
REMARK 922        TOTAL FREE ENERGY PREDICTED BY IDOCK:   -6.65 KCAL/MOL
REMARK 923 INTER-LIGAND FREE ENERGY PREDICTED BY IDOCK:   -6.03 KCAL/MOL
REMARK 924 INTRA-LIGAND FREE ENERGY PREDICTED BY IDOCK:   -0.62 KCAL/MOL
REMARK 927      BINDING AFFINITY PREDICTED BY RF-SCORE:    0.00 PKD
ROOT
HETATM    1  C   UNL     1      -8.838   5.257  67.019  1.00  0.00    -0.109 C  
HETATM    2  C   UNL     1      -9.109   6.581  67.730  1.00  0.00    -0.112 C  
ENDROOT
BRANCH   2   3
HETATM    3  N   UNL     1     -10.083   6.477  68.810  1.00  0.00    -0.153 NA 
HETATM    4  H   UNL     1     -11.072   6.340  68.604  1.00  0.00     0.000 HD 
BRANCH   3   5
HETATM    5  C   UNL     1      -9.641   6.568  70.127  1.00  0.00    -0.160 A  
HETATM    6  C   UNL     1      -9.916   7.180  72.412  1.00  0.00    -0.166 A  
HETATM    7  N   UNL     1      -8.727   6.725  72.827  1.00  0.00    -0.122 NA 
HETATM    8  C   UNL     1     -11.932   8.071  72.356  1.00  0.00    -0.350 A  
HETATM    9  H   UNL     1     -12.317   7.835  70.304  1.00  0.00     0.000 HD 
HETATM   10  N   UNL     1     -11.700   7.718  71.109  1.00  0.00    -0.282 NA 
HETATM   11  C   UNL     1      -8.039   6.203  71.793  1.00  0.00    -0.110 A  
HETATM   12  C   UNL     1     -10.437   7.156  71.130  1.00  0.00    -0.210 A  
HETATM   13  N   UNL     1     -10.883   7.758  73.179  1.00  0.00    -0.385 NA 
HETATM   14  N   UNL     1      -8.418   6.098  70.499  1.00  0.00    -0.135 NA 
ENDBRANCH   3   5
ENDBRANCH   2   3
BRANCH   2  15
HETATM   15  C   UNL     1      -9.432   7.830  66.891  1.00  0.00    -0.187 C  
HETATM   16  O   UNL     1      -8.849   9.640  63.824  1.00  0.00    -0.216 OA 
HETATM   17  C   UNL     1     -10.298   8.680  67.477  1.00  0.00    -0.336 C  
HETATM   18  C   UNL     1     -10.632   9.972  66.913  1.00  0.00    -0.261 A  
HETATM   19  N   UNL     1      -8.859   8.172  65.645  1.00  0.00    -0.153 N  
HETATM   20  C   UNL     1     -11.415  10.855  67.671  1.00  0.00    -0.281 A  
HETATM   21  C   UNL     1      -9.245   9.370  64.957  1.00  0.00    -0.218 C  
HETATM   22  C   UNL     1     -10.157  10.332  65.648  1.00  0.00    -0.341 A  
HETATM   23 CL   UNL     1     -10.090  12.178  63.564  1.00  0.00    -0.439 Cl 
HETATM   24  C   UNL     1     -11.740  12.109  67.172  1.00  0.00    -0.372 A  
HETATM   25  C   UNL     1     -11.305  12.467  65.900  1.00  0.00    -0.399 A  
HETATM   26  C   UNL     1     -10.527  11.587  65.131  1.00  0.00    -0.286 A  
BRANCH  19  27
HETATM   27  C   UNL     1      -7.834   7.410  64.981  1.00  0.00    -0.124 A  
HETATM   28  C   UNL     1      -8.208   6.463  64.010  1.00  0.00     0.024 A  
HETATM   29  C   UNL     1      -7.247   5.705  63.330  1.00  0.00    -0.053 A  
HETATM   30  C   UNL     1      -5.895   5.880  63.617  1.00  0.00    -0.021 A  
HETATM   31  C   UNL     1      -5.513   6.793  64.602  1.00  0.00    -0.027 A  
HETATM   32  C   UNL     1      -6.478   7.539  65.295  1.00  0.00    -0.041 A  
ENDBRANCH  19  27
ENDBRANCH   2  15
TORSDOF 4
ENDMDL
MODEL      167
REMARK 921   NORMALIZED FREE ENERGY PREDICTED BY IDOCK:   -4.63 KCAL/MOL
REMARK 922        TOTAL FREE ENERGY PREDICTED BY IDOCK:   -6.59 KCAL/MOL
REMARK 923 INTER-LIGAND FREE ENERGY PREDICTED BY IDOCK:   -5.40 KCAL/MOL
REMARK 924 INTRA-LIGAND FREE ENERGY PREDICTED BY IDOCK:   -1.19 KCAL/MOL
REMARK 927      BINDING AFFINITY PREDICTED BY RF-SCORE:    0.00 PKD
ROOT
HETATM    1  C   UNL     1      -6.601   8.715  67.611  1.00  0.00    -0.062 C  
HETATM    2  C   UNL     1      -8.028   8.180  67.508  1.00  0.00    -0.122 C  
ENDROOT
BRANCH   2   3
HETATM    3  N   UNL     1      -8.650   8.417  66.212  1.00  0.00    -0.128 NA 
HETATM    4  H   UNL     1      -9.436   9.060  66.125  1.00  0.00     0.000 HD 
BRANCH   3   5
HETATM    5  C   UNL     1      -8.154   7.751  65.095  1.00  0.00    -0.137 A  
HETATM    6  C   UNL     1      -7.921   5.827  63.711  1.00  0.00    -0.120 A  
HETATM    7  N   UNL     1      -7.145   6.407  62.786  1.00  0.00    -0.045 NA 
HETATM    8  C   UNL     1      -9.133   4.367  64.834  1.00  0.00    -0.151 A  
HETATM    9  H   UNL     1      -9.702   5.605  66.433  1.00  0.00     0.000 HD 
HETATM   10  N   UNL     1      -9.201   5.467  65.555  1.00  0.00    -0.125 NA 
HETATM   11  C   UNL     1      -6.911   7.693  63.113  1.00  0.00    -0.067 A  
HETATM   12  C   UNL     1      -8.445   6.392  64.860  1.00  0.00     0.008 A  
HETATM   13  N   UNL     1      -8.375   4.541  63.706  1.00  0.00    -0.106 NA 
HETATM   14  N   UNL     1      -7.361   8.383  64.186  1.00  0.00    -0.096 NA 
ENDBRANCH   3   5
ENDBRANCH   2   3
BRANCH   2  15
HETATM   15  C   UNL     1      -9.040   8.527  68.614  1.00  0.00    -0.139 C  
HETATM   16  O   UNL     1     -10.838   7.388  71.529  1.00  0.00    -0.224 OA 
HETATM   17  C   UNL     1      -9.524   9.783  68.544  1.00  0.00    -0.148 C  
HETATM   18  C   UNL     1     -10.581  10.265  69.410  1.00  0.00    -0.262 A  
HETATM   19  N   UNL     1      -9.530   7.648  69.607  1.00  0.00    -0.157 N  
HETATM   20  C   UNL     1     -11.132  11.530  69.157  1.00  0.00    -0.316 A  
HETATM   21  C   UNL     1     -10.476   8.094  70.588  1.00  0.00    -0.210 C  
HETATM   22  C   UNL     1     -11.051   9.468  70.458  1.00  0.00    -0.342 A  
HETATM   23 CL   UNL     1     -12.722   9.178  72.667  1.00  0.00    -0.345 Cl 
HETATM   24  C   UNL     1     -12.159  12.018  69.954  1.00  0.00    -0.334 A  
HETATM   25  C   UNL     1     -12.613  11.252  71.023  1.00  0.00    -0.495 A  
HETATM   26  C   UNL     1     -12.062   9.988  71.287  1.00  0.00    -0.394 A  
BRANCH  19  27
HETATM   27  C   UNL     1      -9.184   6.255  69.707  1.00  0.00    -0.146 A  
HETATM   28  C   UNL     1      -8.094   5.878  70.513  1.00  0.00    -0.111 A  
HETATM   29  C   UNL     1      -7.726   4.535  70.650  1.00  0.00    -0.053 A  
HETATM   30  C   UNL     1      -8.438   3.547  69.974  1.00  0.00    -0.092 A  
HETATM   31  C   UNL     1      -9.501   3.911  69.144  1.00  0.00    -0.246 A  
HETATM   32  C   UNL     1      -9.858   5.258  68.995  1.00  0.00    -0.235 A  
ENDBRANCH  19  27
ENDBRANCH   2  15
TORSDOF 4
ENDMDL
MODEL      168
REMARK 921   NORMALIZED FREE ENERGY PREDICTED BY IDOCK:   -4.63 KCAL/MOL
REMARK 922        TOTAL FREE ENERGY PREDICTED BY IDOCK:   -6.59 KCAL/MOL
REMARK 923 INTER-LIGAND FREE ENERGY PREDICTED BY IDOCK:   -5.71 KCAL/MOL
REMARK 924 INTRA-LIGAND FREE ENERGY PREDICTED BY IDOCK:   -0.88 KCAL/MOL
REMARK 927      BINDING AFFINITY PREDICTED BY RF-SCORE:    0.00 PKD
ROOT
HETATM    1  C   UNL     1      -7.359   8.710  71.523  1.00  0.00    -0.118 C  
HETATM    2  C   UNL     1      -8.762   8.273  71.105  1.00  0.00    -0.147 C  
ENDROOT
BRANCH   2   3
HETATM    3  N   UNL     1      -9.633   7.952  72.228  1.00  0.00    -0.178 NA 
HETATM    4  H   UNL     1      -9.245   7.800  73.158  1.00  0.00     0.000 HD 
BRANCH   3   5
HETATM    5  C   UNL     1     -11.006   7.855  72.010  1.00  0.00    -0.274 A  
HETATM    6  C   UNL     1     -13.116   8.764  71.385  1.00  0.00    -0.257 A  
HETATM    7  N   UNL     1     -13.814   7.632  71.546  1.00  0.00    -0.388 NA 
HETATM    8  C   UNL     1     -12.548  10.846  70.939  1.00  0.00    -0.397 A  
HETATM    9  H   UNL     1     -10.498  10.708  71.378  1.00  0.00     0.000 HD 
HETATM   10  N   UNL     1     -11.421  10.277  71.311  1.00  0.00    -0.257 NA 
HETATM   11  C   UNL     1     -13.004   6.638  71.962  1.00  0.00    -0.062 A  
HETATM   12  C   UNL     1     -11.763   8.968  71.593  1.00  0.00    -0.361 A  
HETATM   13  N   UNL     1     -13.597   9.967  70.961  1.00  0.00    -0.241 NA 
HETATM   14  N   UNL     1     -11.672   6.682  72.195  1.00  0.00    -0.300 NA 
ENDBRANCH   3   5
ENDBRANCH   2   3
BRANCH   2  15
HETATM   15  C   UNL     1      -8.919   7.185  70.029  1.00  0.00    -0.142 C  
HETATM   16  O   UNL     1      -9.535   6.444  66.551  1.00  0.00    -0.159 OA 
HETATM   17  C   UNL     1      -8.790   5.927  70.493  1.00  0.00    -0.147 C  
HETATM   18  C   UNL     1      -9.030   4.759  69.670  1.00  0.00    -0.135 A  
HETATM   19  N   UNL     1      -9.244   7.393  68.669  1.00  0.00    -0.144 N  
HETATM   20  C   UNL     1      -9.030   3.496  70.281  1.00  0.00    -0.173 A  
HETATM   21  C   UNL     1      -9.361   6.291  67.759  1.00  0.00    -0.113 C  
HETATM   22  C   UNL     1      -9.279   4.900  68.303  1.00  0.00    -0.154 A  
HETATM   23 CL   UNL     1      -9.741   3.709  65.828  1.00  0.00    -0.141 Cl 
HETATM   24  C   UNL     1      -9.275   2.355  69.529  1.00  0.00    -0.189 A  
HETATM   25  C   UNL     1      -9.489   2.477  68.159  1.00  0.00    -0.217 A  
HETATM   26  C   UNL     1      -9.483   3.736  67.540  1.00  0.00    -0.191 A  
BRANCH  19  27
HETATM   27  C   UNL     1      -9.528   8.678  68.085  1.00  0.00    -0.141 A  
HETATM   28  C   UNL     1     -10.827   8.941  67.612  1.00  0.00    -0.112 A  
HETATM   29  C   UNL     1     -11.154  10.178  67.045  1.00  0.00    -0.061 A  
HETATM   30  C   UNL     1     -10.182  11.170  66.936  1.00  0.00    -0.260 A  
HETATM   31  C   UNL     1      -8.881  10.910  67.371  1.00  0.00    -0.133 A  
HETATM   32  C   UNL     1      -8.551   9.664  67.923  1.00  0.00    -0.122 A  
ENDBRANCH  19  27
ENDBRANCH   2  15
TORSDOF 4
ENDMDL
MODEL      169
REMARK 921   NORMALIZED FREE ENERGY PREDICTED BY IDOCK:   -4.63 KCAL/MOL
REMARK 922        TOTAL FREE ENERGY PREDICTED BY IDOCK:   -6.58 KCAL/MOL
REMARK 923 INTER-LIGAND FREE ENERGY PREDICTED BY IDOCK:   -5.70 KCAL/MOL
REMARK 924 INTRA-LIGAND FREE ENERGY PREDICTED BY IDOCK:   -0.88 KCAL/MOL
REMARK 927      BINDING AFFINITY PREDICTED BY RF-SCORE:    0.00 PKD
ROOT
HETATM    1  C   UNL     1     -11.052   9.993  69.199  1.00  0.00    -0.232 C  
HETATM    2  C   UNL     1      -9.707   9.288  69.035  1.00  0.00    -0.162 C  
ENDROOT
BRANCH   2   3
HETATM    3  N   UNL     1      -8.840   9.906  68.040  1.00  0.00    -0.125 NA 
HETATM    4  H   UNL     1      -7.998   9.429  67.718  1.00  0.00     0.000 HD 
BRANCH   3   5
HETATM    5  C   UNL     1      -9.178  11.160  67.537  1.00  0.00    -0.153 A  
HETATM    6  C   UNL     1      -9.961  12.606  65.814  1.00  0.00    -0.256 A  
HETATM    7  N   UNL     1      -9.888  13.735  66.530  1.00  0.00    -0.282 NA 
HETATM    8  C   UNL     1     -10.307  11.155  64.191  1.00  0.00    -0.361 A  
HETATM    9  H   UNL     1      -9.696   9.415  65.196  1.00  0.00     0.000 HD 
HETATM   10  N   UNL     1      -9.852  10.423  65.186  1.00  0.00    -0.291 NA 
HETATM   11  C   UNL     1      -9.427  13.475  67.769  1.00  0.00    -0.216 A  
HETATM   12  C   UNL     1      -9.632  11.322  66.213  1.00  0.00    -0.209 A  
HETATM   13  N   UNL     1     -10.396  12.479  64.529  1.00  0.00    -0.329 NA 
HETATM   14  N   UNL     1      -9.078  12.282  68.303  1.00  0.00    -0.198 NA 
ENDBRANCH   3   5
ENDBRANCH   2   3
BRANCH   2  15
HETATM   15  C   UNL     1      -9.680   7.763  68.835  1.00  0.00    -0.160 C  
HETATM   16  O   UNL     1      -9.301   4.522  70.377  1.00  0.00    -0.120 OA 
HETATM   17  C   UNL     1      -9.868   7.369  67.560  1.00  0.00    -0.203 C  
HETATM   18  C   UNL     1      -9.750   5.988  67.141  1.00  0.00    -0.148 A  
HETATM   19  N   UNL     1      -9.415   6.793  69.829  1.00  0.00    -0.145 N  
HETATM   20  C   UNL     1      -9.801   5.695  65.769  1.00  0.00     0.098 A  
HETATM   21  C   UNL     1      -9.419   5.393  69.517  1.00  0.00    -0.133 C  
HETATM   22  C   UNL     1      -9.565   4.978  68.088  1.00  0.00    -0.182 A  
HETATM   23 CL   UNL     1      -9.315   2.263  68.660  1.00  0.00    -0.235 Cl 
HETATM   24  C   UNL     1      -9.674   4.386  65.327  1.00  0.00    -0.199 A  
HETATM   25  C   UNL     1      -9.525   3.365  66.261  1.00  0.00    -0.128 A  
HETATM   26  C   UNL     1      -9.480   3.648  67.635  1.00  0.00    -0.185 A  
BRANCH  19  27
HETATM   27  C   UNL     1      -9.077   7.095  71.195  1.00  0.00    -0.152 A  
HETATM   28  C   UNL     1      -7.722   7.170  71.564  1.00  0.00    -0.089 A  
HETATM   29  C   UNL     1      -7.344   7.470  72.878  1.00  0.00    -0.089 A  
HETATM   30  C   UNL     1      -8.319   7.694  73.846  1.00  0.00    -0.256 A  
HETATM   31  C   UNL     1      -9.669   7.591  73.501  1.00  0.00    -0.358 A  
HETATM   32  C   UNL     1     -10.045   7.272  72.188  1.00  0.00    -0.207 A  
ENDBRANCH  19  27
ENDBRANCH   2  15
TORSDOF 4
ENDMDL
MODEL      170
REMARK 921   NORMALIZED FREE ENERGY PREDICTED BY IDOCK:   -4.62 KCAL/MOL
REMARK 922        TOTAL FREE ENERGY PREDICTED BY IDOCK:   -6.57 KCAL/MOL
REMARK 923 INTER-LIGAND FREE ENERGY PREDICTED BY IDOCK:   -6.08 KCAL/MOL
REMARK 924 INTRA-LIGAND FREE ENERGY PREDICTED BY IDOCK:   -0.49 KCAL/MOL
REMARK 927      BINDING AFFINITY PREDICTED BY RF-SCORE:    0.00 PKD
ROOT
HETATM    1  C   UNL     1     -11.931  13.102  67.939  1.00  0.00    -0.347 C  
HETATM    2  C   UNL     1     -10.615  12.720  68.613  1.00  0.00    -0.233 C  
ENDROOT
BRANCH   2   3
HETATM    3  N   UNL     1      -9.901  13.852  69.188  1.00  0.00    -0.421 NA 
HETATM    4  H   UNL     1      -9.637  13.852  70.173  1.00  0.00     0.000 HD 
BRANCH   3   5
HETATM    5  C   UNL     1      -9.586  14.935  68.371  1.00  0.00    -0.209 A  
HETATM    6  C   UNL     1      -8.054  16.274  67.134  1.00  0.00    -0.188 A  
HETATM    7  N   UNL     1      -8.962  17.147  66.678  1.00  0.00    -0.241 NA 
HETATM    8  C   UNL     1      -6.167  15.206  67.529  1.00  0.00    -0.050 A  
HETATM    9  H   UNL     1      -6.923  13.693  68.775  1.00  0.00     0.000 HD 
HETATM   10  N   UNL     1      -7.070  14.525  68.202  1.00  0.00    -0.108 NA 
HETATM   11  C   UNL     1     -10.187  16.832  67.141  1.00  0.00    -0.295 A  
HETATM   12  C   UNL     1      -8.261  15.185  67.961  1.00  0.00    -0.142 A  
HETATM   13  N   UNL     1      -6.718  16.268  66.863  1.00  0.00    -0.249 NA 
HETATM   14  N   UNL     1     -10.544  15.801  67.939  1.00  0.00    -0.274 NA 
ENDBRANCH   3   5
ENDBRANCH   2   3
BRANCH   2  15
HETATM   15  C   UNL     1      -9.612  11.837  67.850  1.00  0.00    -0.187 C  
HETATM   16  O   UNL     1      -8.341  10.794  64.637  1.00  0.00    -0.108 OA 
HETATM   17  C   UNL     1      -8.822  11.088  68.643  1.00  0.00    -0.164 C  
HETATM   18  C   UNL     1      -7.902  10.097  68.123  1.00  0.00    -0.096 A  
HETATM   19  N   UNL     1      -9.511  11.706  66.447  1.00  0.00    -0.211 N  
HETATM   20  C   UNL     1      -7.241   9.252  69.028  1.00  0.00    -0.071 A  
HETATM   21  C   UNL     1      -8.527  10.847  65.852  1.00  0.00    -0.158 C  
HETATM   22  C   UNL     1      -7.704   9.975  66.745  1.00  0.00    -0.103 A  
HETATM   23 CL   UNL     1      -6.360   8.763  64.628  1.00  0.00    -0.066 Cl 
HETATM   24  C   UNL     1      -6.367   8.278  68.566  1.00  0.00    -0.054 A  
HETATM   25  C   UNL     1      -6.132   8.169  67.199  1.00  0.00    -0.054 A  
HETATM   26  C   UNL     1      -6.783   9.015  66.287  1.00  0.00    -0.070 A  
BRANCH  19  27
HETATM   27  C   UNL     1     -10.379  12.357  65.501  1.00  0.00    -0.271 A  
HETATM   28  C   UNL     1     -11.394  11.608  64.878  1.00  0.00    -0.252 A  
HETATM   29  C   UNL     1     -12.269  12.199  63.959  1.00  0.00    -0.544 A  
HETATM   30  C   UNL     1     -12.137  13.549  63.643  1.00  0.00    -0.459 A  
HETATM   31  C   UNL     1     -11.112  14.296  64.230  1.00  0.00    -0.105 A  
HETATM   32  C   UNL     1     -10.226  13.698  65.137  1.00  0.00    -0.349 A  
ENDBRANCH  19  27
ENDBRANCH   2  15
TORSDOF 4
ENDMDL
MODEL      171
REMARK 921   NORMALIZED FREE ENERGY PREDICTED BY IDOCK:   -4.59 KCAL/MOL
REMARK 922        TOTAL FREE ENERGY PREDICTED BY IDOCK:   -6.54 KCAL/MOL
REMARK 923 INTER-LIGAND FREE ENERGY PREDICTED BY IDOCK:   -6.40 KCAL/MOL
REMARK 924 INTRA-LIGAND FREE ENERGY PREDICTED BY IDOCK:   -0.14 KCAL/MOL
REMARK 927      BINDING AFFINITY PREDICTED BY RF-SCORE:    0.00 PKD
ROOT
HETATM    1  C   UNL     1      -8.709  15.149  69.040  1.00  0.00    -0.215 C  
HETATM    2  C   UNL     1      -7.995  14.302  67.988  1.00  0.00    -0.142 C  
ENDROOT
BRANCH   2   3
HETATM    3  N   UNL     1      -7.755  15.006  66.735  1.00  0.00    -0.261 NA 
HETATM    4  H   UNL     1      -7.040  14.678  66.085  1.00  0.00     0.000 HD 
BRANCH   3   5
HETATM    5  C   UNL     1      -8.517  16.133  66.438  1.00  0.00    -0.334 A  
HETATM    6  C   UNL     1     -10.377  17.220  65.424  1.00  0.00     0.024 A  
HETATM    7  N   UNL     1     -10.079  18.451  65.858  1.00  0.00    -0.569 NA 
HETATM    8  C   UNL     1     -11.373  15.508  64.456  1.00  0.00    -0.314 A  
HETATM    9  H   UNL     1     -10.022  14.003  65.027  1.00  0.00     0.000 HD 
HETATM   10  N   UNL     1     -10.312  14.981  65.032  1.00  0.00    -0.385 NA 
HETATM   11  C   UNL     1      -8.946  18.428  66.587  1.00  0.00    -0.289 A  
HETATM   12  C   UNL     1      -9.679  16.046  65.645  1.00  0.00    -0.238 A  
HETATM   13  N   UNL     1     -11.456  16.857  64.673  1.00  0.00    -0.720 NA 
HETATM   14  N   UNL     1      -8.168  17.366  66.897  1.00  0.00    -0.219 NA 
ENDBRANCH   3   5
ENDBRANCH   2   3
BRANCH   2  15
HETATM   15  C   UNL     1      -8.529  12.894  67.671  1.00  0.00    -0.183 C  
HETATM   16  O   UNL     1     -11.366  10.664  67.698  1.00  0.00    -0.395 OA 
HETATM   17  C   UNL     1      -7.606  12.056  67.160  1.00  0.00    -0.146 C  
HETATM   18  C   UNL     1      -7.871  10.653  66.915  1.00  0.00    -0.121 A  
HETATM   19  N   UNL     1      -9.833  12.416  67.931  1.00  0.00    -0.196 N  
HETATM   20  C   UNL     1      -6.805   9.824  66.536  1.00  0.00    -0.084 A  
HETATM   21  C   UNL     1     -10.212  11.076  67.586  1.00  0.00    -0.182 C  
HETATM   22  C   UNL     1      -9.161  10.141  67.080  1.00  0.00    -0.149 A  
HETATM   23 CL   UNL     1     -10.910   7.981  66.895  1.00  0.00    -0.219 Cl 
HETATM   24  C   UNL     1      -7.015   8.470  66.311  1.00  0.00    -0.077 A  
HETATM   25  C   UNL     1      -8.301   7.953  66.436  1.00  0.00    -0.129 A  
HETATM   26  C   UNL     1      -9.375   8.777  66.808  1.00  0.00    -0.179 A  
BRANCH  19  27
HETATM   27  C   UNL     1     -10.866  13.175  68.585  1.00  0.00    -0.259 A  
HETATM   28  C   UNL     1     -11.200  12.867  69.917  1.00  0.00     0.093 A  
HETATM   29  C   UNL     1     -12.190  13.583  70.599  1.00  0.00    -0.434 A  
HETATM   30  C   UNL     1     -12.869  14.615  69.955  1.00  0.00    -0.094 A  
HETATM   31  C   UNL     1     -12.570  14.909  68.623  1.00  0.00     0.382 A  
HETATM   32  C   UNL     1     -11.590  14.179  67.936  1.00  0.00    -0.370 A  
ENDBRANCH  19  27
ENDBRANCH   2  15
TORSDOF 4
ENDMDL
MODEL      172
REMARK 921   NORMALIZED FREE ENERGY PREDICTED BY IDOCK:   -4.58 KCAL/MOL
REMARK 922        TOTAL FREE ENERGY PREDICTED BY IDOCK:   -6.53 KCAL/MOL
REMARK 923 INTER-LIGAND FREE ENERGY PREDICTED BY IDOCK:   -6.03 KCAL/MOL
REMARK 924 INTRA-LIGAND FREE ENERGY PREDICTED BY IDOCK:   -0.50 KCAL/MOL
REMARK 927      BINDING AFFINITY PREDICTED BY RF-SCORE:    0.00 PKD
ROOT
HETATM    1  C   UNL     1      -9.749  10.461  69.604  1.00  0.00    -0.158 C  
HETATM    2  C   UNL     1     -10.542   9.661  68.572  1.00  0.00    -0.220 C  
ENDROOT
BRANCH   2   3
HETATM    3  N   UNL     1     -11.030   8.382  69.072  1.00  0.00    -0.429 NA 
HETATM    4  H   UNL     1     -11.288   7.637  68.425  1.00  0.00     0.000 HD 
BRANCH   3   5
HETATM    5  C   UNL     1     -11.138   8.193  70.447  1.00  0.00    -0.239 A  
HETATM    6  C   UNL     1     -12.122   8.633  72.571  1.00  0.00    -0.298 A  
HETATM    7  N   UNL     1     -11.360   7.776  73.263  1.00  0.00    -0.261 NA 
HETATM    8  C   UNL     1     -13.636  10.136  72.015  1.00  0.00    -0.229 A  
HETATM    9  H   UNL     1     -13.225  10.242  69.958  1.00  0.00     0.000 HD 
HETATM   10  N   UNL     1     -13.032   9.851  70.880  1.00  0.00    -0.314 NA 
HETATM   11  C   UNL     1     -10.485   7.161  72.443  1.00  0.00    -0.218 A  
HETATM   12  C   UNL     1     -12.079   8.907  71.215  1.00  0.00    -0.306 A  
HETATM   13  N   UNL     1     -13.122   9.418  73.062  1.00  0.00     0.071 NA 
HETATM   14  N   UNL     1     -10.335   7.314  71.108  1.00  0.00    -0.199 NA 
ENDBRANCH   3   5
ENDBRANCH   2   3
BRANCH   2  15
HETATM   15  C   UNL     1      -9.947   9.450  67.169  1.00  0.00    -0.204 C  
HETATM   16  O   UNL     1      -7.781   7.463  65.074  1.00  0.00    -0.099 OA 
HETATM   17  C   UNL     1     -10.350  10.357  66.257  1.00  0.00    -0.270 C  
HETATM   18  C   UNL     1      -9.807  10.412  64.915  1.00  0.00    -0.400 A  
HETATM   19  N   UNL     1      -9.000   8.468  66.800  1.00  0.00    -0.140 N  
HETATM   20  C   UNL     1     -10.166  11.488  64.089  1.00  0.00    -0.374 A  
HETATM   21  C   UNL     1      -8.520   8.372  65.452  1.00  0.00    -0.176 C  
HETATM   22  C   UNL     1      -8.926   9.423  64.470  1.00  0.00    -0.227 A  
HETATM   23 CL   UNL     1      -7.399   8.345  62.405  1.00  0.00    -0.098 Cl 
HETATM   24  C   UNL     1      -9.652  11.587  62.803  1.00  0.00    -0.212 A  
HETATM   25  C   UNL     1      -8.802  10.590  62.334  1.00  0.00    -0.299 A  
HETATM   26  C   UNL     1      -8.444   9.506  63.151  1.00  0.00    -0.199 A  
BRANCH  19  27
HETATM   27  C   UNL     1      -8.403   7.527  67.711  1.00  0.00    -0.119 A  
HETATM   28  C   UNL     1      -7.425   7.978  68.616  1.00  0.00    -0.098 A  
HETATM   29  C   UNL     1      -6.823   7.102  69.527  1.00  0.00    -0.050 A  
HETATM   30  C   UNL     1      -7.187   5.758  69.542  1.00  0.00    -0.066 A  
HETATM   31  C   UNL     1      -8.133   5.290  68.627  1.00  0.00    -0.090 A  
HETATM   32  C   UNL     1      -8.722   6.165  67.703  1.00  0.00    -0.105 A  
ENDBRANCH  19  27
ENDBRANCH   2  15
TORSDOF 4
ENDMDL
MODEL      173
REMARK 921   NORMALIZED FREE ENERGY PREDICTED BY IDOCK:   -4.55 KCAL/MOL
REMARK 922        TOTAL FREE ENERGY PREDICTED BY IDOCK:   -6.49 KCAL/MOL
REMARK 923 INTER-LIGAND FREE ENERGY PREDICTED BY IDOCK:   -6.20 KCAL/MOL
REMARK 924 INTRA-LIGAND FREE ENERGY PREDICTED BY IDOCK:   -0.29 KCAL/MOL
REMARK 927      BINDING AFFINITY PREDICTED BY RF-SCORE:    0.00 PKD
ROOT
HETATM    1  C   UNL     1     -10.729   8.433  67.730  1.00  0.00    -0.165 C  
HETATM    2  C   UNL     1      -9.943   9.333  68.682  1.00  0.00    -0.178 C  
ENDROOT
BRANCH   2   3
HETATM    3  N   UNL     1      -9.396   8.630  69.835  1.00  0.00    -0.157 NA 
HETATM    4  H   UNL     1     -10.004   8.088  70.448  1.00  0.00     0.000 HD 
BRANCH   3   5
HETATM    5  C   UNL     1      -8.028   8.709  70.086  1.00  0.00    -0.103 A  
HETATM    6  C   UNL     1      -5.840   7.775  70.193  1.00  0.00    -0.023 A  
HETATM    7  N   UNL     1      -5.224   8.897  70.585  1.00  0.00    -0.020 NA 
HETATM    8  C   UNL     1      -6.251   5.702  69.567  1.00  0.00    -0.032 A  
HETATM    9  H   UNL     1      -8.329   5.866  69.300  1.00  0.00     0.000 HD 
HETATM   10  N   UNL     1      -7.432   6.284  69.548  1.00  0.00    -0.090 NA 
HETATM   11  C   UNL     1      -6.114   9.900  70.716  1.00  0.00    -0.095 A  
HETATM   12  C   UNL     1      -7.188   7.588  69.938  1.00  0.00    -0.080 A  
HETATM   13  N   UNL     1      -5.259   6.567  69.944  1.00  0.00    -0.013 NA 
HETATM   14  N   UNL     1      -7.448   9.873  70.492  1.00  0.00    -0.285 NA 
ENDBRANCH   3   5
ENDBRANCH   2   3
BRANCH   2  15
HETATM   15  C   UNL     1     -10.576  10.651  69.161  1.00  0.00    -0.226 C  
HETATM   16  O   UNL     1     -12.818  12.253  71.492  1.00  0.00    -0.370 OA 
HETATM   17  C   UNL     1     -10.186  11.736  68.463  1.00  0.00    -0.215 C  
HETATM   18  C   UNL     1     -10.762  13.049  68.669  1.00  0.00    -0.273 A  
HETATM   19  N   UNL     1     -11.543  10.793  70.181  1.00  0.00    -0.311 N  
HETATM   20  C   UNL     1     -10.412  14.083  67.787  1.00  0.00    -0.236 A  
HETATM   21  C   UNL     1     -12.059  12.083  70.538  1.00  0.00    -0.311 C  
HETATM   22  C   UNL     1     -11.666  13.266  69.713  1.00  0.00    -0.354 A  
HETATM   23 CL   UNL     1     -13.258  15.036  71.159  1.00  0.00    -0.459 Cl 
HETATM   24  C   UNL     1     -10.957  15.350  67.941  1.00  0.00    -0.310 A  
HETATM   25  C   UNL     1     -11.831  15.590  68.998  1.00  0.00    -0.373 A  
HETATM   26  C   UNL     1     -12.181  14.563  69.889  1.00  0.00    -0.328 A  
BRANCH  19  27
HETATM   27  C   UNL     1     -12.128   9.698  70.910  1.00  0.00    -0.300 A  
HETATM   28  C   UNL     1     -13.477   9.368  70.682  1.00  0.00     0.230 A  
HETATM   29  C   UNL     1     -14.086   8.306  71.360  1.00  0.00    -0.382 A  
HETATM   30  C   UNL     1     -13.356   7.560  72.282  1.00  0.00     0.051 A  
HETATM   31  C   UNL     1     -12.026   7.898  72.542  1.00  0.00    -0.349 A  
HETATM   32  C   UNL     1     -11.422   8.974  71.875  1.00  0.00    -0.440 A  
ENDBRANCH  19  27
ENDBRANCH   2  15
TORSDOF 4
ENDMDL
MODEL      174
REMARK 921   NORMALIZED FREE ENERGY PREDICTED BY IDOCK:   -4.49 KCAL/MOL
REMARK 922        TOTAL FREE ENERGY PREDICTED BY IDOCK:   -6.42 KCAL/MOL
REMARK 923 INTER-LIGAND FREE ENERGY PREDICTED BY IDOCK:   -5.39 KCAL/MOL
REMARK 924 INTRA-LIGAND FREE ENERGY PREDICTED BY IDOCK:   -1.02 KCAL/MOL
REMARK 927      BINDING AFFINITY PREDICTED BY RF-SCORE:    0.00 PKD
ROOT
HETATM    1  C   UNL     1     -11.720   9.702  70.845  1.00  0.00    -0.412 C  
HETATM    2  C   UNL     1     -10.430   8.988  70.448  1.00  0.00    -0.213 C  
ENDROOT
BRANCH   2   3
HETATM    3  N   UNL     1      -9.243   9.511  71.113  1.00  0.00    -0.336 NA 
HETATM    4  H   UNL     1      -8.939  10.470  70.950  1.00  0.00     0.000 HD 
BRANCH   3   5
HETATM    5  C   UNL     1      -8.532   8.679  71.974  1.00  0.00    -0.122 A  
HETATM    6  C   UNL     1      -8.392   6.969  73.625  1.00  0.00    -0.123 A  
HETATM    7  N   UNL     1      -7.055   6.967  73.717  1.00  0.00    -0.074 NA 
HETATM    8  C   UNL     1     -10.527   6.501  73.910  1.00  0.00    -0.308 A  
HETATM    9  H   UNL     1     -11.331   7.890  72.554  1.00  0.00     0.000 HD 
HETATM   10  N   UNL     1     -10.524   7.462  73.011  1.00  0.00    -0.288 NA 
HETATM   11  C   UNL     1      -6.528   7.885  72.884  1.00  0.00    -0.072 A  
HETATM   12  C   UNL     1      -9.189   7.765  72.821  1.00  0.00    -0.195 A  
HETATM   13  N   UNL     1      -9.259   6.166  74.305  1.00  0.00    -0.139 NA 
HETATM   14  N   UNL     1      -7.172   8.720  72.037  1.00  0.00    -0.281 NA 
ENDBRANCH   3   5
ENDBRANCH   2   3
BRANCH   2  15
HETATM   15  C   UNL     1     -10.113   8.787  68.956  1.00  0.00    -0.198 C  
HETATM   16  O   UNL     1      -8.746   6.608  66.425  1.00  0.00    -0.130 OA 
HETATM   17  C   UNL     1     -10.457   9.829  68.173  1.00  0.00    -0.258 C  
HETATM   18  C   UNL     1     -10.128   9.894  66.764  1.00  0.00    -0.292 A  
HETATM   19  N   UNL     1      -9.454   7.676  68.382  1.00  0.00    -0.149 N  
HETATM   20  C   UNL     1     -10.382  11.086  66.069  1.00  0.00    -0.311 A  
HETATM   21  C   UNL     1      -9.216   7.605  66.969  1.00  0.00    -0.138 C  
HETATM   22  C   UNL     1      -9.546   8.796  66.126  1.00  0.00    -0.323 A  
HETATM   23 CL   UNL     1      -8.607   7.624  63.780  1.00  0.00     0.293 Cl 
HETATM   24  C   UNL     1     -10.063  11.193  64.722  1.00  0.00    -0.351 A  
HETATM   25  C   UNL     1      -9.517  10.095  64.065  1.00  0.00    -0.341 A  
HETATM   26  C   UNL     1      -9.266   8.897  64.751  1.00  0.00     0.172 A  
BRANCH  19  27
HETATM   27  C   UNL     1      -8.929   6.563  69.128  1.00  0.00    -0.130 A  
HETATM   28  C   UNL     1      -9.823   5.628  69.680  1.00  0.00    -0.243 A  
HETATM   29  C   UNL     1      -9.360   4.524  70.405  1.00  0.00    -0.217 A  
HETATM   30  C   UNL     1      -7.992   4.343  70.596  1.00  0.00    -0.060 A  
HETATM   31  C   UNL     1      -7.095   5.282  70.081  1.00  0.00    -0.061 A  
HETATM   32  C   UNL     1      -7.562   6.397  69.370  1.00  0.00    -0.095 A  
ENDBRANCH  19  27
ENDBRANCH   2  15
TORSDOF 4
ENDMDL
MODEL      175
REMARK 921   NORMALIZED FREE ENERGY PREDICTED BY IDOCK:   -4.48 KCAL/MOL
REMARK 922        TOTAL FREE ENERGY PREDICTED BY IDOCK:   -6.41 KCAL/MOL
REMARK 923 INTER-LIGAND FREE ENERGY PREDICTED BY IDOCK:   -5.12 KCAL/MOL
REMARK 924 INTRA-LIGAND FREE ENERGY PREDICTED BY IDOCK:   -1.29 KCAL/MOL
REMARK 927      BINDING AFFINITY PREDICTED BY RF-SCORE:    0.00 PKD
ROOT
HETATM    1  C   UNL     1      -6.935   8.457  71.365  1.00  0.00    -0.072 C  
HETATM    2  C   UNL     1      -7.410   9.038  70.034  1.00  0.00    -0.060 C  
ENDROOT
BRANCH   2   3
HETATM    3  N   UNL     1      -8.233  10.232  70.176  1.00  0.00    -0.370 NA 
HETATM    4  H   UNL     1      -8.810  10.367  71.005  1.00  0.00     0.000 HD 
BRANCH   3   5
HETATM    5  C   UNL     1      -8.218  11.185  69.161  1.00  0.00     0.000 A  
HETATM    6  C   UNL     1      -9.275  12.496  67.477  1.00  0.00    -0.188 A  
HETATM    7  N   UNL     1      -8.174  13.158  67.098  1.00  0.00    -0.157 NA 
HETATM    8  C   UNL     1     -11.354  11.786  67.651  1.00  0.00    -0.302 A  
HETATM    9  H   UNL     1     -11.071  10.376  69.183  1.00  0.00     0.000 HD 
HETATM   10  N   UNL     1     -10.697  11.085  68.552  1.00  0.00    -0.188 NA 
HETATM   11  C   UNL     1      -7.111  12.749  67.818  1.00  0.00    -0.132 A  
HETATM   12  C   UNL     1      -9.390  11.523  68.454  1.00  0.00    -0.194 A  
HETATM   13  N   UNL     1     -10.535  12.656  66.983  1.00  0.00    -0.232 NA 
HETATM   14  N   UNL     1      -7.070  11.825  68.805  1.00  0.00    -0.105 NA 
ENDBRANCH   3   5
ENDBRANCH   2   3
BRANCH   2  15
HETATM   15  C   UNL     1      -8.065   8.104  69.001  1.00  0.00    -0.115 C  
HETATM   16  O   UNL     1     -10.885   6.002  68.191  1.00  0.00    -0.275 OA 
HETATM   17  C   UNL     1      -7.344   7.933  67.876  1.00  0.00    -0.092 C  
HETATM   18  C   UNL     1      -7.721   6.995  66.838  1.00  0.00    -0.103 A  
HETATM   19  N   UNL     1      -9.274   7.391  69.166  1.00  0.00    -0.147 N  
HETATM   20  C   UNL     1      -6.826   6.765  65.782  1.00  0.00    -0.056 A  
HETATM   21  C   UNL     1      -9.785   6.549  68.123  1.00  0.00    -0.126 C  
HETATM   22  C   UNL     1      -8.942   6.319  66.910  1.00  0.00    -0.120 A  
HETATM   23 CL   UNL     1     -10.765   4.562  65.751  1.00  0.00    -0.262 Cl 
HETATM   24  C   UNL     1      -7.144   5.860  64.779  1.00  0.00    -0.060 A  
HETATM   25  C   UNL     1      -8.371   5.207  64.818  1.00  0.00    -0.143 A  
HETATM   26  C   UNL     1      -9.276   5.436  65.867  1.00  0.00    -0.156 A  
BRANCH  19  27
HETATM   27  C   UNL     1     -10.068   7.395  70.367  1.00  0.00    -0.192 A  
HETATM   28  C   UNL     1      -9.852   6.394  71.332  1.00  0.00    -0.195 A  
HETATM   29  C   UNL     1     -10.591   6.362  72.520  1.00  0.00    -0.240 A  
HETATM   30  C   UNL     1     -11.565   7.329  72.758  1.00  0.00    -0.213 A  
HETATM   31  C   UNL     1     -11.812   8.309  71.794  1.00  0.00    -0.357 A  
HETATM   32  C   UNL     1     -11.082   8.329  70.596  1.00  0.00    -0.269 A  
ENDBRANCH  19  27
ENDBRANCH   2  15
TORSDOF 4
ENDMDL
MODEL      176
REMARK 921   NORMALIZED FREE ENERGY PREDICTED BY IDOCK:   -4.48 KCAL/MOL
REMARK 922        TOTAL FREE ENERGY PREDICTED BY IDOCK:   -6.40 KCAL/MOL
REMARK 923 INTER-LIGAND FREE ENERGY PREDICTED BY IDOCK:   -6.65 KCAL/MOL
REMARK 924 INTRA-LIGAND FREE ENERGY PREDICTED BY IDOCK:    0.25 KCAL/MOL
REMARK 927      BINDING AFFINITY PREDICTED BY RF-SCORE:    0.00 PKD
ROOT
HETATM    1  C   UNL     1      -9.126  15.176  68.239  1.00  0.00    -0.183 C  
HETATM    2  C   UNL     1      -8.692  13.851  67.615  1.00  0.00    -0.187 C  
ENDROOT
BRANCH   2   3
HETATM    3  N   UNL     1      -8.821  13.818  66.164  1.00  0.00    -0.344 NA 
HETATM    4  H   UNL     1      -8.219  13.215  65.604  1.00  0.00     0.000 HD 
BRANCH   3   5
HETATM    5  C   UNL     1      -9.781  14.623  65.554  1.00  0.00    -0.212 A  
HETATM    6  C   UNL     1     -11.761  14.949  64.272  1.00  0.00    -0.247 A  
HETATM    7  N   UNL     1     -11.750  16.287  64.329  1.00  0.00    -0.752 NA 
HETATM    8  C   UNL     1     -12.321  12.860  63.847  1.00  0.00    -0.396 A  
HETATM    9  H   UNL     1     -10.726  11.907  64.827  1.00  0.00     0.000 HD 
HETATM   10  N   UNL     1     -11.211  12.760  64.548  1.00  0.00    -0.317 NA 
HETATM   11  C   UNL     1     -10.683  16.717  65.031  1.00  0.00    -0.100 A  
HETATM   12  C   UNL     1     -10.849  14.066  64.823  1.00  0.00    -0.419 A  
HETATM   13  N   UNL     1     -12.694  14.165  63.662  1.00  0.00    -0.650 NA 
HETATM   14  N   UNL     1      -9.722  15.981  65.634  1.00  0.00    -0.432 NA 
ENDBRANCH   3   5
ENDBRANCH   2   3
BRANCH   2  15
HETATM   15  C   UNL     1      -9.244  12.535  68.191  1.00  0.00    -0.209 C  
HETATM   16  O   UNL     1      -8.854   8.957  68.459  1.00  0.00    -0.133 OA 
HETATM   17  C   UNL     1     -10.361  12.682  68.930  1.00  0.00    -0.055 C  
HETATM   18  C   UNL     1     -11.109  11.557  69.452  1.00  0.00    -0.287 A  
HETATM   19  N   UNL     1      -8.733  11.239  67.956  1.00  0.00    -0.139 N  
HETATM   20  C   UNL     1     -12.345  11.799  70.070  1.00  0.00    -0.233 A  
HETATM   21  C   UNL     1      -9.338  10.084  68.554  1.00  0.00    -0.145 C  
HETATM   22  C   UNL     1     -10.613  10.258  69.317  1.00  0.00    -0.254 A  
HETATM   23 CL   UNL     1     -10.879   7.536  69.847  1.00  0.00    -0.256 Cl 
HETATM   24  C   UNL     1     -13.100  10.745  70.566  1.00  0.00    -0.140 A  
HETATM   25  C   UNL     1     -12.601   9.450  70.471  1.00  0.00     0.126 A  
HETATM   26  C   UNL     1     -11.362   9.198  69.861  1.00  0.00    -0.030 A  
BRANCH  19  27
HETATM   27  C   UNL     1      -7.624  10.944  67.087  1.00  0.00    -0.109 A  
HETATM   28  C   UNL     1      -6.418  11.649  67.255  1.00  0.00    -0.120 A  
HETATM   29  C   UNL     1      -5.309  11.391  66.441  1.00  0.00    -0.121 A  
HETATM   30  C   UNL     1      -5.392  10.425  65.440  1.00  0.00    -0.101 A  
HETATM   31  C   UNL     1      -6.593   9.741  65.242  1.00  0.00    -0.098 A  
HETATM   32  C   UNL     1      -7.709  10.014  66.047  1.00  0.00    -0.110 A  
ENDBRANCH  19  27
ENDBRANCH   2  15
TORSDOF 4
ENDMDL
MODEL      177
REMARK 921   NORMALIZED FREE ENERGY PREDICTED BY IDOCK:   -4.45 KCAL/MOL
REMARK 922        TOTAL FREE ENERGY PREDICTED BY IDOCK:   -6.36 KCAL/MOL
REMARK 923 INTER-LIGAND FREE ENERGY PREDICTED BY IDOCK:   -5.48 KCAL/MOL
REMARK 924 INTRA-LIGAND FREE ENERGY PREDICTED BY IDOCK:   -0.89 KCAL/MOL
REMARK 927      BINDING AFFINITY PREDICTED BY RF-SCORE:    0.00 PKD
ROOT
HETATM    1  C   UNL     1     -11.726  12.550  67.775  1.00  0.00    -0.419 C  
HETATM    2  C   UNL     1     -10.862  11.556  68.550  1.00  0.00    -0.215 C  
ENDROOT
BRANCH   2   3
HETATM    3  N   UNL     1      -9.801  12.184  69.327  1.00  0.00    -0.203 NA 
HETATM    4  H   UNL     1      -9.785  12.101  70.343  1.00  0.00     0.000 HD 
BRANCH   3   5
HETATM    5  C   UNL     1      -8.810  12.899  68.659  1.00  0.00     0.066 A  
HETATM    6  C   UNL     1      -6.552  13.272  68.001  1.00  0.00    -0.129 A  
HETATM    7  N   UNL     1      -6.795  14.365  67.266  1.00  0.00    -0.210 NA 
HETATM    8  C   UNL     1      -5.550  11.585  69.006  1.00  0.00    -0.050 A  
HETATM    9  H   UNL     1      -7.233  10.734  69.932  1.00  0.00     0.000 HD 
HETATM   10  N   UNL     1      -6.817  11.454  69.341  1.00  0.00    -0.118 NA 
HETATM   11  C   UNL     1      -8.109  14.665  67.294  1.00  0.00    -0.206 A  
HETATM   12  C   UNL     1      -7.458  12.507  68.714  1.00  0.00    -0.049 A  
HETATM   13  N   UNL     1      -5.346  12.667  68.191  1.00  0.00    -0.066 NA 
HETATM   14  N   UNL     1      -9.107  14.010  67.930  1.00  0.00    -0.180 NA 
ENDBRANCH   3   5
ENDBRANCH   2   3
BRANCH   2  15
HETATM   15  C   UNL     1     -10.282  10.336  67.814  1.00  0.00    -0.187 C  
HETATM   16  O   UNL     1      -9.342   6.856  68.011  1.00  0.00    -0.125 OA 
HETATM   17  C   UNL     1      -9.943  10.574  66.532  1.00  0.00    -0.266 C  
HETATM   18  C   UNL     1      -9.262   9.597  65.707  1.00  0.00    -0.264 A  
HETATM   19  N   UNL     1     -10.022   9.065  68.376  1.00  0.00    -0.173 N  
HETATM   20  C   UNL     1      -8.806   9.990  64.440  1.00  0.00    -0.239 A  
HETATM   21  C   UNL     1      -9.477   8.002  67.582  1.00  0.00    -0.145 C  
HETATM   22  C   UNL     1      -9.048   8.301  66.182  1.00  0.00    -0.238 A  
HETATM   23 CL   UNL     1      -8.109   5.719  65.723  1.00  0.00    -0.110 Cl 
HETATM   24  C   UNL     1      -8.132   9.088  63.627  1.00  0.00    -0.164 A  
HETATM   25  C   UNL     1      -7.944   7.783  64.072  1.00  0.00    -0.104 A  
HETATM   26  C   UNL     1      -8.404   7.380  65.335  1.00  0.00    -0.117 A  
BRANCH  19  27
HETATM   27  C   UNL     1     -10.224   8.728  69.761  1.00  0.00    -0.202 A  
HETATM   28  C   UNL     1      -9.140   8.824  70.652  1.00  0.00    -0.221 A  
HETATM   29  C   UNL     1      -9.289   8.516  72.010  1.00  0.00    -0.353 A  
HETATM   30  C   UNL     1     -10.526   8.100  72.495  1.00  0.00    -0.409 A  
HETATM   31  C   UNL     1     -11.603   7.969  71.615  1.00  0.00    -0.317 A  
HETATM   32  C   UNL     1     -11.447   8.261  70.252  1.00  0.00    -0.065 A  
ENDBRANCH  19  27
ENDBRANCH   2  15
TORSDOF 4
ENDMDL
MODEL      178
REMARK 921   NORMALIZED FREE ENERGY PREDICTED BY IDOCK:   -4.41 KCAL/MOL
REMARK 922        TOTAL FREE ENERGY PREDICTED BY IDOCK:   -6.31 KCAL/MOL
REMARK 923 INTER-LIGAND FREE ENERGY PREDICTED BY IDOCK:   -5.47 KCAL/MOL
REMARK 924 INTRA-LIGAND FREE ENERGY PREDICTED BY IDOCK:   -0.84 KCAL/MOL
REMARK 927      BINDING AFFINITY PREDICTED BY RF-SCORE:    0.00 PKD
ROOT
HETATM    1  C   UNL     1      -7.722   5.526  67.341  1.00  0.00    -0.100 C  
HETATM    2  C   UNL     1      -9.232   5.720  67.215  1.00  0.00    -0.110 C  
ENDROOT
BRANCH   2   3
HETATM    3  N   UNL     1      -9.689   5.878  65.840  1.00  0.00    -0.370 NA 
HETATM    4  H   UNL     1     -10.628   6.223  65.643  1.00  0.00     0.000 HD 
BRANCH   3   5
HETATM    5  C   UNL     1      -8.822   5.552  64.800  1.00  0.00     0.024 A  
HETATM    6  C   UNL     1      -7.924   4.043  63.191  1.00  0.00    -0.079 A  
HETATM    7  N   UNL     1      -7.053   4.907  62.654  1.00  0.00    -0.034 NA 
HETATM    8  C   UNL     1      -9.111   2.236  63.620  1.00  0.00    -0.095 A  
HETATM    9  H   UNL     1     -10.266   2.993  65.203  1.00  0.00     0.000 HD 
HETATM   10  N   UNL     1      -9.545   3.121  64.492  1.00  0.00    -0.150 NA 
HETATM   11  C   UNL     1      -7.131   6.099  63.278  1.00  0.00    -0.052 A  
HETATM   12  C   UNL     1      -8.809   4.262  64.233  1.00  0.00    -0.145 A  
HETATM   13  N   UNL     1      -8.137   2.752  62.808  1.00  0.00    -0.071 NA 
HETATM   14  N   UNL     1      -7.947   6.464  64.293  1.00  0.00    -0.116 NA 
ENDBRANCH   3   5
ENDBRANCH   2   3
BRANCH   2  15
HETATM   15  C   UNL     1      -9.928   6.774  68.093  1.00  0.00    -0.149 C  
HETATM   16  O   UNL     1     -10.591  10.278  68.652  1.00  0.00    -0.186 OA 
HETATM   17  C   UNL     1     -10.611   6.261  69.135  1.00  0.00    -0.325 C  
HETATM   18  C   UNL     1     -11.226   7.088  70.153  1.00  0.00    -0.325 A  
HETATM   19  N   UNL     1      -9.850   8.177  67.937  1.00  0.00    -0.161 N  
HETATM   20  C   UNL     1     -11.774   6.466  71.284  1.00  0.00    -0.359 A  
HETATM   21  C   UNL     1     -10.549   9.060  68.825  1.00  0.00    -0.169 C  
HETATM   22  C   UNL     1     -11.247   8.478  70.012  1.00  0.00    -0.086 A  
HETATM   23 CL   UNL     1     -12.058  10.960  70.982  1.00  0.00    -0.443 Cl 
HETATM   24  C   UNL     1     -12.357   7.226  72.289  1.00  0.00    -0.149 A  
HETATM   25  C   UNL     1     -12.417   8.608  72.146  1.00  0.00    -0.453 A  
HETATM   26  C   UNL     1     -11.878   9.239  71.014  1.00  0.00    -0.307 A  
BRANCH  19  27
HETATM   27  C   UNL     1      -9.054   8.845  66.941  1.00  0.00    -0.133 A  
HETATM   28  C   UNL     1      -9.656   9.228  65.729  1.00  0.00    -0.341 A  
HETATM   29  C   UNL     1      -8.926   9.888  64.734  1.00  0.00    -0.255 A  
HETATM   30  C   UNL     1      -7.577  10.170  64.935  1.00  0.00    -0.138 A  
HETATM   31  C   UNL     1      -6.958   9.766  66.121  1.00  0.00    -0.095 A  
HETATM   32  C   UNL     1      -7.688   9.089  67.109  1.00  0.00    -0.099 A  
ENDBRANCH  19  27
ENDBRANCH   2  15
TORSDOF 4
ENDMDL
MODEL      179
REMARK 921   NORMALIZED FREE ENERGY PREDICTED BY IDOCK:   -4.40 KCAL/MOL
REMARK 922        TOTAL FREE ENERGY PREDICTED BY IDOCK:   -6.31 KCAL/MOL
REMARK 923 INTER-LIGAND FREE ENERGY PREDICTED BY IDOCK:   -5.20 KCAL/MOL
REMARK 924 INTRA-LIGAND FREE ENERGY PREDICTED BY IDOCK:   -1.11 KCAL/MOL
REMARK 927      BINDING AFFINITY PREDICTED BY RF-SCORE:    0.00 PKD
ROOT
HETATM    1  C   UNL     1      -6.356   6.437  68.641  1.00  0.00    -0.038 C  
HETATM    2  C   UNL     1      -7.508   7.232  69.254  1.00  0.00    -0.096 C  
ENDROOT
BRANCH   2   3
HETATM    3  N   UNL     1      -8.565   6.397  69.810  1.00  0.00    -0.136 NA 
HETATM    4  H   UNL     1      -8.749   5.471  69.425  1.00  0.00     0.000 HD 
BRANCH   3   5
HETATM    5  C   UNL     1      -9.319   6.884  70.875  1.00  0.00    -0.157 A  
HETATM    6  C   UNL     1      -9.609   7.479  73.162  1.00  0.00    -0.233 A  
HETATM    7  N   UNL     1     -10.873   7.905  73.041  1.00  0.00    -0.385 NA 
HETATM    8  C   UNL     1      -7.625   6.962  73.973  1.00  0.00    -0.102 A  
HETATM    9  H   UNL     1      -6.747   6.243  72.205  1.00  0.00     0.000 HD 
HETATM   10  N   UNL     1      -7.546   6.641  72.698  1.00  0.00    -0.093 NA 
HETATM   11  C   UNL     1     -11.292   7.770  71.768  1.00  0.00    -0.261 A  
HETATM   12  C   UNL     1      -8.785   6.963  72.177  1.00  0.00    -0.127 A  
HETATM   13  N   UNL     1      -8.851   7.479  74.295  1.00  0.00    -0.223 NA 
HETATM   14  N   UNL     1     -10.605   7.298  70.702  1.00  0.00    -0.223 NA 
ENDBRANCH   3   5
ENDBRANCH   2   3
BRANCH   2  15
HETATM   15  C   UNL     1      -8.151   8.369  68.441  1.00  0.00    -0.123 C  
HETATM   16  O   UNL     1     -10.223   9.270  65.627  1.00  0.00    -0.117 OA 
HETATM   17  C   UNL     1      -7.871   9.603  68.902  1.00  0.00    -0.081 C  
HETATM   18  C   UNL     1      -8.271  10.809  68.205  1.00  0.00    -0.124 A  
HETATM   19  N   UNL     1      -8.915   8.224  67.261  1.00  0.00    -0.136 N  
HETATM   20  C   UNL     1      -7.797  12.044  68.673  1.00  0.00    -0.091 A  
HETATM   21  C   UNL     1      -9.465   9.367  66.591  1.00  0.00    -0.177 C  
HETATM   22  C   UNL     1      -9.092  10.731  67.077  1.00  0.00    -0.155 A  
HETATM   23 CL   UNL     1     -10.533  12.037  65.083  1.00  0.00    -0.314 Cl 
HETATM   24  C   UNL     1      -8.143  13.220  68.021  1.00  0.00    -0.157 A  
HETATM   25  C   UNL     1      -8.989  13.161  66.918  1.00  0.00    -0.213 A  
HETATM   26  C   UNL     1      -9.474  11.930  66.448  1.00  0.00    -0.228 A  
BRANCH  19  27
HETATM   27  C   UNL     1      -9.175   6.970  66.604  1.00  0.00    -0.158 A  
HETATM   28  C   UNL     1      -8.362   6.584  65.523  1.00  0.00    -0.146 A  
HETATM   29  C   UNL     1      -8.570   5.370  64.859  1.00  0.00    -0.131 A  
HETATM   30  C   UNL     1      -9.600   4.524  65.263  1.00  0.00    -0.179 A  
HETATM   31  C   UNL     1     -10.435   4.911  66.314  1.00  0.00    -0.349 A  
HETATM   32  C   UNL     1     -10.236   6.136  66.967  1.00  0.00    -0.253 A  
ENDBRANCH  19  27
ENDBRANCH   2  15
TORSDOF 4
ENDMDL
MODEL      180
REMARK 921   NORMALIZED FREE ENERGY PREDICTED BY IDOCK:   -4.40 KCAL/MOL
REMARK 922        TOTAL FREE ENERGY PREDICTED BY IDOCK:   -6.30 KCAL/MOL
REMARK 923 INTER-LIGAND FREE ENERGY PREDICTED BY IDOCK:   -5.59 KCAL/MOL
REMARK 924 INTRA-LIGAND FREE ENERGY PREDICTED BY IDOCK:   -0.71 KCAL/MOL
REMARK 927      BINDING AFFINITY PREDICTED BY RF-SCORE:    0.00 PKD
ROOT
HETATM    1  C   UNL     1      -7.169   8.897  66.714  1.00  0.00    -0.082 C  
HETATM    2  C   UNL     1      -8.376   8.000  66.984  1.00  0.00    -0.116 C  
ENDROOT
BRANCH   2   3
HETATM    3  N   UNL     1      -9.125   7.650  65.784  1.00  0.00    -0.381 NA 
HETATM    4  H   UNL     1     -10.133   7.798  65.741  1.00  0.00     0.000 HD 
BRANCH   3   5
HETATM    5  C   UNL     1      -8.442   7.111  64.696  1.00  0.00     0.163 A  
HETATM    6  C   UNL     1      -7.405   5.310  63.533  1.00  0.00    -0.051 A  
HETATM    7  N   UNL     1      -7.063   6.017  62.449  1.00  0.00    -0.040 NA 
HETATM    8  C   UNL     1      -7.697   3.670  64.977  1.00  0.00    -0.085 A  
HETATM    9  H   UNL     1      -8.686   4.754  66.480  1.00  0.00     0.000 HD 
HETATM   10  N   UNL     1      -8.237   4.717  65.565  1.00  0.00    -0.113 NA 
HETATM   11  C   UNL     1      -7.452   7.300  62.584  1.00  0.00    -0.103 A  
HETATM   12  C   UNL     1      -8.062   5.754  64.668  1.00  0.00    -0.132 A  
HETATM   13  N   UNL     1      -7.188   3.981  63.745  1.00  0.00    -0.050 NA 
HETATM   14  N   UNL     1      -8.108   7.873  63.619  1.00  0.00    -0.116 NA 
ENDBRANCH   3   5
ENDBRANCH   2   3
BRANCH   2  15
HETATM   15  C   UNL     1      -9.369   8.393  68.091  1.00  0.00    -0.133 C  
HETATM   16  O   UNL     1     -11.844  10.763  69.224  1.00  0.00    -0.300 OA 
HETATM   17  C   UNL     1      -9.394   7.545  69.137  1.00  0.00    -0.147 C  
HETATM   18  C   UNL     1     -10.163   7.803  70.337  1.00  0.00    -0.197 A  
HETATM   19  N   UNL     1     -10.166   9.560  68.124  1.00  0.00    -0.183 N  
HETATM   20  C   UNL     1     -10.000   6.947  71.437  1.00  0.00    -0.190 A  
HETATM   21  C   UNL     1     -11.059   9.816  69.217  1.00  0.00    -0.149 C  
HETATM   22  C   UNL     1     -11.027   8.899  70.398  1.00  0.00    -0.275 A  
HETATM   23 CL   UNL     1     -12.934  10.356  71.811  1.00  0.00    -0.559 Cl 
HETATM   24  C   UNL     1     -10.705   7.173  72.611  1.00  0.00    -0.303 A  
HETATM   25  C   UNL     1     -11.597   8.239  72.673  1.00  0.00    -0.419 A  
HETATM   26  C   UNL     1     -11.771   9.096  71.576  1.00  0.00    -0.363 A  
BRANCH  19  27
HETATM   27  C   UNL     1     -10.135  10.599  67.128  1.00  0.00    -0.207 A  
HETATM   28  C   UNL     1      -9.492  11.814  67.429  1.00  0.00    -0.174 A  
HETATM   29  C   UNL     1      -9.427  12.850  66.490  1.00  0.00    -0.251 A  
HETATM   30  C   UNL     1     -10.011  12.689  65.236  1.00  0.00    -0.215 A  
HETATM   31  C   UNL     1     -10.681  11.500  64.936  1.00  0.00    -0.357 A  
HETATM   32  C   UNL     1     -10.760  10.470  65.885  1.00  0.00    -0.061 A  
ENDBRANCH  19  27
ENDBRANCH   2  15
TORSDOF 4
ENDMDL
MODEL      181
REMARK 921   NORMALIZED FREE ENERGY PREDICTED BY IDOCK:   -4.39 KCAL/MOL
REMARK 922        TOTAL FREE ENERGY PREDICTED BY IDOCK:   -6.30 KCAL/MOL
REMARK 923 INTER-LIGAND FREE ENERGY PREDICTED BY IDOCK:   -7.06 KCAL/MOL
REMARK 924 INTRA-LIGAND FREE ENERGY PREDICTED BY IDOCK:    0.77 KCAL/MOL
REMARK 927      BINDING AFFINITY PREDICTED BY RF-SCORE:    0.00 PKD
ROOT
HETATM    1  C   UNL     1     -11.978  10.733  68.447  1.00  0.00     0.002 C  
HETATM    2  C   UNL     1     -11.343  11.812  69.322  1.00  0.00    -0.286 C  
ENDROOT
BRANCH   2   3
HETATM    3  N   UNL     1     -11.901  11.879  70.666  1.00  0.00    -0.471 NA 
HETATM    4  H   UNL     1     -11.984  12.773  71.148  1.00  0.00     0.000 HD 
BRANCH   3   5
HETATM    5  C   UNL     1     -12.320  10.702  71.281  1.00  0.00    -0.383 A  
HETATM    6  C   UNL     1     -11.923   8.543  72.205  1.00  0.00    -0.385 A  
HETATM    7  N   UNL     1     -13.192   8.305  72.563  1.00  0.00    -0.140 NA 
HETATM    8  C   UNL     1      -9.750   8.355  71.886  1.00  0.00    -0.261 A  
HETATM    9  H   UNL     1      -9.417  10.201  70.940  1.00  0.00     0.000 HD 
HETATM   10  N   UNL     1     -10.050   9.533  71.380  1.00  0.00    -0.183 NA 
HETATM   11  C   UNL     1     -13.977   9.345  72.222  1.00  0.00    -0.297 A  
HETATM   12  C   UNL     1     -11.412   9.664  71.575  1.00  0.00    -0.369 A  
HETATM   13  N   UNL     1     -10.851   7.725  72.402  1.00  0.00    -0.276 NA 
HETATM   14  N   UNL     1     -13.624  10.503  71.619  1.00  0.00    -0.162 NA 
ENDBRANCH   3   5
ENDBRANCH   2   3
BRANCH   2  15
HETATM   15  C   UNL     1     -11.209  13.242  68.769  1.00  0.00    -0.276 C  
HETATM   16  O   UNL     1     -11.571  16.774  69.414  1.00  0.00     0.118 OA 
HETATM   17  C   UNL     1     -10.779  13.303  67.494  1.00  0.00    -0.259 C  
HETATM   18  C   UNL     1     -10.711  14.543  66.748  1.00  0.00    -0.291 A  
HETATM   19  N   UNL     1     -11.556  14.435  69.443  1.00  0.00    -0.286 N  
HETATM   20  C   UNL     1     -10.407  14.488  65.379  1.00  0.00    -0.405 A  
HETATM   21  C   UNL     1     -11.383  15.715  68.818  1.00  0.00    -0.349 C  
HETATM   22  C   UNL     1     -10.967  15.761  67.382  1.00  0.00    -0.279 A  
HETATM   23 CL   UNL     1     -11.083  18.540  67.248  1.00  0.00    -0.161 Cl 
HETATM   24  C   UNL     1     -10.350  15.653  64.627  1.00  0.00     0.269 A  
HETATM   25  C   UNL     1     -10.568  16.876  65.253  1.00  0.00    -0.137 A  
HETATM   26  C   UNL     1     -10.865  16.941  66.623  1.00  0.00     0.023 A  
BRANCH  19  27
HETATM   27  C   UNL     1     -12.140  14.491  70.757  1.00  0.00    -0.329 A  
HETATM   28  C   UNL     1     -13.514  14.228  70.905  1.00  0.00    -0.191 A  
HETATM   29  C   UNL     1     -14.126  14.261  72.164  1.00  0.00    -0.634 A  
HETATM   30  C   UNL     1     -13.372  14.565  73.294  1.00  0.00    -0.206 A  
HETATM   31  C   UNL     1     -12.013  14.860  73.157  1.00  0.00    -0.326 A  
HETATM   32  C   UNL     1     -11.406  14.843  71.893  1.00  0.00    -0.133 A  
ENDBRANCH  19  27
ENDBRANCH   2  15
TORSDOF 4
ENDMDL
MODEL      182
REMARK 921   NORMALIZED FREE ENERGY PREDICTED BY IDOCK:   -4.39 KCAL/MOL
REMARK 922        TOTAL FREE ENERGY PREDICTED BY IDOCK:   -6.29 KCAL/MOL
REMARK 923 INTER-LIGAND FREE ENERGY PREDICTED BY IDOCK:   -5.40 KCAL/MOL
REMARK 924 INTRA-LIGAND FREE ENERGY PREDICTED BY IDOCK:   -0.89 KCAL/MOL
REMARK 927      BINDING AFFINITY PREDICTED BY RF-SCORE:    0.00 PKD
ROOT
HETATM    1  C   UNL     1      -7.410   8.848  70.518  1.00  0.00    -0.078 C  
HETATM    2  C   UNL     1      -8.286   9.183  69.312  1.00  0.00    -0.118 C  
ENDROOT
BRANCH   2   3
HETATM    3  N   UNL     1      -9.528   9.860  69.661  1.00  0.00    -0.220 NA 
HETATM    4  H   UNL     1     -10.052   9.585  70.491  1.00  0.00     0.000 HD 
BRANCH   3   5
HETATM    5  C   UNL     1      -9.988  10.888  68.842  1.00  0.00    -0.196 A  
HETATM    6  C   UNL     1      -9.682  12.887  67.584  1.00  0.00    -0.212 A  
HETATM    7  N   UNL     1     -10.944  12.976  67.146  1.00  0.00    -0.264 NA 
HETATM    8  C   UNL     1      -7.542  13.273  67.946  1.00  0.00    -0.152 A  
HETATM    9  H   UNL     1      -7.141  11.635  69.200  1.00  0.00     0.000 HD 
HETATM   10  N   UNL     1      -7.793  12.177  68.632  1.00  0.00    -0.113 NA 
HETATM   11  C   UNL     1     -11.680  11.955  67.627  1.00  0.00    -0.275 A  
HETATM   12  C   UNL     1      -9.133  11.923  68.412  1.00  0.00    -0.167 A  
HETATM   13  N   UNL     1      -8.653  13.733  67.292  1.00  0.00    -0.206 NA 
HETATM   14  N   UNL     1     -11.285  10.939  68.428  1.00  0.00    -0.262 NA 
ENDBRANCH   3   5
ENDBRANCH   2   3
BRANCH   2  15
HETATM   15  C   UNL     1      -8.594   8.083  68.281  1.00  0.00    -0.130 C  
HETATM   16  O   UNL     1     -10.381   5.031  67.565  1.00  0.00    -0.160 OA 
HETATM   17  C   UNL     1      -7.963   8.241  67.101  1.00  0.00    -0.105 C  
HETATM   18  C   UNL     1      -8.016   7.250  66.045  1.00  0.00    -0.115 A  
HETATM   19  N   UNL     1      -9.392   6.937  68.494  1.00  0.00    -0.135 N  
HETATM   20  C   UNL     1      -7.198   7.424  64.919  1.00  0.00    -0.067 A  
HETATM   21  C   UNL     1      -9.606   5.979  67.448  1.00  0.00    -0.112 C  
HETATM   22  C   UNL     1      -8.848   6.135  66.168  1.00  0.00    -0.158 A  
HETATM   23 CL   UNL     1      -9.898   3.809  65.051  1.00  0.00    -0.184 Cl 
HETATM   24  C   UNL     1      -7.207   6.487  63.895  1.00  0.00    -0.063 A  
HETATM   25  C   UNL     1      -8.058   5.390  63.986  1.00  0.00    -0.123 A  
HETATM   26  C   UNL     1      -8.885   5.211  65.107  1.00  0.00    -0.146 A  
BRANCH  19  27
HETATM   27  C   UNL     1     -10.014   6.595  69.747  1.00  0.00    -0.173 A  
HETATM   28  C   UNL     1     -11.312   7.067  70.017  1.00  0.00    -0.293 A  
HETATM   29  C   UNL     1     -11.961   6.754  71.216  1.00  0.00    -0.414 A  
HETATM   30  C   UNL     1     -11.318   5.967  72.168  1.00  0.00    -0.351 A  
HETATM   31  C   UNL     1     -10.017   5.519  71.927  1.00  0.00    -0.227 A  
HETATM   32  C   UNL     1      -9.362   5.849  70.732  1.00  0.00    -0.180 A  
ENDBRANCH  19  27
ENDBRANCH   2  15
TORSDOF 4
ENDMDL
MODEL      183
REMARK 921   NORMALIZED FREE ENERGY PREDICTED BY IDOCK:   -4.38 KCAL/MOL
REMARK 922        TOTAL FREE ENERGY PREDICTED BY IDOCK:   -6.28 KCAL/MOL
REMARK 923 INTER-LIGAND FREE ENERGY PREDICTED BY IDOCK:   -4.95 KCAL/MOL
REMARK 924 INTRA-LIGAND FREE ENERGY PREDICTED BY IDOCK:   -1.33 KCAL/MOL
REMARK 927      BINDING AFFINITY PREDICTED BY RF-SCORE:    0.00 PKD
ROOT
HETATM    1  C   UNL     1     -14.058   6.307  71.691  1.00  0.00     0.545 C  
HETATM    2  C   UNL     1     -12.583   6.702  71.644  1.00  0.00    -0.264 C  
ENDROOT
BRANCH   2   3
HETATM    3  N   UNL     1     -11.946   6.739  72.954  1.00  0.00    -0.387 NA 
HETATM    4  H   UNL     1     -12.148   7.496  73.607  1.00  0.00     0.000 HD 
BRANCH   3   5
HETATM    5  C   UNL     1     -11.056   5.725  73.300  1.00  0.00    -0.208 A  
HETATM    6  C   UNL     1      -8.934   4.934  74.035  1.00  0.00    -0.113 A  
HETATM    7  N   UNL     1      -9.254   3.634  74.025  1.00  0.00    -0.089 NA 
HETATM    8  C   UNL     1      -7.846   6.837  74.263  1.00  0.00    -0.109 A  
HETATM    9  H   UNL     1      -9.376   8.143  73.656  1.00  0.00     0.000 HD 
HETATM   10  N   UNL     1      -9.039   7.197  73.838  1.00  0.00    -0.195 NA 
HETATM   11  C   UNL     1     -10.528   3.468  73.619  1.00  0.00    -0.179 A  
HETATM   12  C   UNL     1      -9.733   6.010  73.692  1.00  0.00    -0.163 A  
HETATM   13  N   UNL     1      -7.740   5.479  74.403  1.00  0.00    -0.095 NA 
HETATM   14  N   UNL     1     -11.427   4.415  73.267  1.00  0.00    -0.248 NA 
ENDBRANCH   3   5
ENDBRANCH   2   3
BRANCH   2  15
HETATM   15  C   UNL     1     -12.169   7.957  70.856  1.00  0.00    -0.121 C  
HETATM   16  O   UNL     1      -9.991   9.364  68.345  1.00  0.00    -0.160 OA 
HETATM   17  C   UNL     1     -12.864   9.065  71.177  1.00  0.00    -0.215 C  
HETATM   18  C   UNL     1     -12.543  10.374  70.646  1.00  0.00    -0.435 A  
HETATM   19  N   UNL     1     -11.116   8.046  69.918  1.00  0.00    -0.170 N  
HETATM   20  C   UNL     1     -13.216  11.492  71.161  1.00  0.00    -0.012 A  
HETATM   21  C   UNL     1     -10.827   9.279  69.244  1.00  0.00    -0.152 C  
HETATM   22  C   UNL     1     -11.564  10.512  69.659  1.00  0.00    -0.342 A  
HETATM   23 CL   UNL     1     -10.175  12.158  67.892  1.00  0.00    -0.194 Cl 
HETATM   24  C   UNL     1     -12.922  12.765  70.691  1.00  0.00     0.100 A  
HETATM   25  C   UNL     1     -11.975  12.914  69.682  1.00  0.00    -0.358 A  
HETATM   26  C   UNL     1     -11.303  11.800  69.156  1.00  0.00    -0.279 A  
BRANCH  19  27
HETATM   27  C   UNL     1     -10.225   6.965  69.585  1.00  0.00    -0.193 A  
HETATM   28  C   UNL     1     -10.664   5.967  68.696  1.00  0.00    -0.363 A  
HETATM   29  C   UNL     1      -9.831   4.902  68.335  1.00  0.00    -0.200 A  
HETATM   30  C   UNL     1      -8.545   4.816  68.864  1.00  0.00    -0.095 A  
HETATM   31  C   UNL     1      -8.109   5.783  69.773  1.00  0.00    -0.104 A  
HETATM   32  C   UNL     1      -8.951   6.839  70.147  1.00  0.00    -0.149 A  
ENDBRANCH  19  27
ENDBRANCH   2  15
TORSDOF 4
ENDMDL
MODEL      184
REMARK 921   NORMALIZED FREE ENERGY PREDICTED BY IDOCK:   -4.26 KCAL/MOL
REMARK 922        TOTAL FREE ENERGY PREDICTED BY IDOCK:   -6.13 KCAL/MOL
REMARK 923 INTER-LIGAND FREE ENERGY PREDICTED BY IDOCK:   -5.05 KCAL/MOL
REMARK 924 INTRA-LIGAND FREE ENERGY PREDICTED BY IDOCK:   -1.07 KCAL/MOL
REMARK 927      BINDING AFFINITY PREDICTED BY RF-SCORE:    0.00 PKD
ROOT
HETATM    1  C   UNL     1      -7.373   9.139  70.930  1.00  0.00    -0.129 C  
HETATM    2  C   UNL     1      -8.736   8.465  70.781  1.00  0.00    -0.150 C  
ENDROOT
BRANCH   2   3
HETATM    3  N   UNL     1      -9.517   8.446  72.011  1.00  0.00    -0.241 NA 
HETATM    4  H   UNL     1      -9.079   8.662  72.906  1.00  0.00     0.000 HD 
BRANCH   3   5
HETATM    5  C   UNL     1     -10.871   8.126  71.945  1.00  0.00    -0.270 A  
HETATM    6  C   UNL     1     -13.154   8.669  71.539  1.00  0.00    -0.305 A  
HETATM    7  N   UNL     1     -13.640   7.447  71.793  1.00  0.00    -0.343 NA 
HETATM    8  C   UNL     1     -12.977  10.800  71.001  1.00  0.00    -0.332 A  
HETATM    9  H   UNL     1     -10.897  11.001  71.217  1.00  0.00     0.000 HD 
HETATM   10  N   UNL     1     -11.740  10.428  71.258  1.00  0.00    -0.303 NA 
HETATM   11  C   UNL     1     -12.642   6.609  72.134  1.00  0.00    -0.126 A  
HETATM   12  C   UNL     1     -11.837   9.091  71.596  1.00  0.00    -0.360 A  
HETATM   13  N   UNL     1     -13.863   9.766  71.152  1.00  0.00    -0.124 NA 
HETATM   14  N   UNL     1     -11.318   6.870  72.221  1.00  0.00    -0.261 NA 
ENDBRANCH   3   5
ENDBRANCH   2   3
BRANCH   2  15
HETATM   15  C   UNL     1      -8.818   7.078  70.121  1.00  0.00    -0.145 C  
HETATM   16  O   UNL     1      -7.967   3.577  70.333  1.00  0.00    -0.046 OA 
HETATM   17  C   UNL     1      -9.471   7.065  68.942  1.00  0.00    -0.137 C  
HETATM   18  C   UNL     1      -9.546   5.889  68.100  1.00  0.00    -0.130 A  
HETATM   19  N   UNL     1      -8.226   5.887  70.599  1.00  0.00    -0.118 N  
HETATM   20  C   UNL     1     -10.105   6.014  66.819  1.00  0.00    -0.235 A  
HETATM   21  C   UNL     1      -8.376   4.649  69.889  1.00  0.00    -0.067 C  
HETATM   22  C   UNL     1      -9.047   4.665  68.553  1.00  0.00    -0.157 A  
HETATM   23 CL   UNL     1      -8.662   1.941  68.123  1.00  0.00    -0.105 Cl 
HETATM   24  C   UNL     1     -10.178   4.914  65.976  1.00  0.00    -0.287 A  
HETATM   25  C   UNL     1      -9.717   3.681  66.428  1.00  0.00    -0.096 A  
HETATM   26  C   UNL     1      -9.163   3.545  67.710  1.00  0.00    -0.184 A  
BRANCH  19  27
HETATM   27  C   UNL     1      -7.402   5.800  71.776  1.00  0.00    -0.093 A  
HETATM   28  C   UNL     1      -8.012   5.556  73.020  1.00  0.00    -0.105 A  
HETATM   29  C   UNL     1      -7.253   5.453  74.191  1.00  0.00    -0.086 A  
HETATM   30  C   UNL     1      -5.869   5.600  74.136  1.00  0.00    -0.056 A  
HETATM   31  C   UNL     1      -5.254   5.875  72.912  1.00  0.00    -0.026 A  
HETATM   32  C   UNL     1      -6.018   5.995  71.743  1.00  0.00    -0.035 A  
ENDBRANCH  19  27
ENDBRANCH   2  15
TORSDOF 4
ENDMDL
MODEL      185
REMARK 921   NORMALIZED FREE ENERGY PREDICTED BY IDOCK:   -4.24 KCAL/MOL
REMARK 922        TOTAL FREE ENERGY PREDICTED BY IDOCK:   -6.11 KCAL/MOL
REMARK 923 INTER-LIGAND FREE ENERGY PREDICTED BY IDOCK:   -5.30 KCAL/MOL
REMARK 924 INTRA-LIGAND FREE ENERGY PREDICTED BY IDOCK:   -0.81 KCAL/MOL
REMARK 927      BINDING AFFINITY PREDICTED BY RF-SCORE:    0.00 PKD
ROOT
HETATM    1  C   UNL     1      -7.980  10.072  69.931  1.00  0.00    -0.184 C  
HETATM    2  C   UNL     1      -8.508   9.033  68.944  1.00  0.00    -0.130 C  
ENDROOT
BRANCH   2   3
HETATM    3  N   UNL     1      -7.807   7.757  69.007  1.00  0.00    -0.116 NA 
HETATM    4  H   UNL     1      -6.826   7.691  68.735  1.00  0.00     0.000 HD 
BRANCH   3   5
HETATM    5  C   UNL     1      -8.497   6.630  69.445  1.00  0.00    -0.131 A  
HETATM    6  C   UNL     1      -8.843   4.276  69.565  1.00  0.00    -0.091 A  
HETATM    7  N   UNL     1      -9.912   4.329  70.370  1.00  0.00    -0.195 NA 
HETATM    8  C   UNL     1      -7.188   3.556  68.299  1.00  0.00    -0.051 A  
HETATM    9  H   UNL     1      -6.372   5.418  67.769  1.00  0.00     0.000 HD 
HETATM   10  N   UNL     1      -7.071   4.867  68.268  1.00  0.00    -0.060 NA 
HETATM   11  C   UNL     1     -10.216   5.609  70.662  1.00  0.00    -0.227 A  
HETATM   12  C   UNL     1      -8.104   5.332  69.061  1.00  0.00    -0.086 A  
HETATM   13  N   UNL     1      -8.242   3.155  69.077  1.00  0.00    -0.059 NA 
HETATM   14  N   UNL     1      -9.585   6.735  70.258  1.00  0.00    -0.165 NA 
ENDBRANCH   3   5
ENDBRANCH   2   3
BRANCH   2  15
HETATM   15  C   UNL     1      -8.689   9.426  67.468  1.00  0.00    -0.122 C  
HETATM   16  O   UNL     1     -10.072  11.793  65.121  1.00  0.00    -0.244 OA 
HETATM   17  C   UNL     1      -8.121   8.571  66.595  1.00  0.00    -0.104 C  
HETATM   18  C   UNL     1      -8.287   8.689  65.161  1.00  0.00    -0.178 A  
HETATM   19  N   UNL     1      -9.433  10.524  66.979  1.00  0.00    -0.161 N  
HETATM   20  C   UNL     1      -7.795   7.662  64.341  1.00  0.00    -0.137 A  
HETATM   21  C   UNL     1      -9.527  10.787  65.572  1.00  0.00    -0.210 C  
HETATM   22  C   UNL     1      -8.946   9.794  64.617  1.00  0.00    -0.270 A  
HETATM   23 CL   UNL     1      -9.786  11.197  62.362  1.00  0.00    -0.089 Cl 
HETATM   24  C   UNL     1      -7.951   7.730  62.963  1.00  0.00    -0.123 A  
HETATM   25  C   UNL     1      -8.573   8.843  62.405  1.00  0.00    -0.208 A  
HETATM   26  C   UNL     1      -9.062   9.878  63.217  1.00  0.00    -0.266 A  
BRANCH  19  27
HETATM   27  C   UNL     1     -10.185  11.433  67.804  1.00  0.00    -0.181 A  
HETATM   28  C   UNL     1     -11.369  10.980  68.416  1.00  0.00    -0.363 A  
HETATM   29  C   UNL     1     -12.129  11.823  69.234  1.00  0.00    -0.292 A  
HETATM   30  C   UNL     1     -11.720  13.137  69.448  1.00  0.00    -0.386 A  
HETATM   31  C   UNL     1     -10.564  13.609  68.820  1.00  0.00    -0.247 A  
HETATM   32  C   UNL     1      -9.814  12.768  67.987  1.00  0.00    -0.226 A  
ENDBRANCH  19  27
ENDBRANCH   2  15
TORSDOF 4
ENDMDL
MODEL      186
REMARK 921   NORMALIZED FREE ENERGY PREDICTED BY IDOCK:   -4.19 KCAL/MOL
REMARK 922        TOTAL FREE ENERGY PREDICTED BY IDOCK:   -6.05 KCAL/MOL
REMARK 923 INTER-LIGAND FREE ENERGY PREDICTED BY IDOCK:   -4.91 KCAL/MOL
REMARK 924 INTRA-LIGAND FREE ENERGY PREDICTED BY IDOCK:   -1.14 KCAL/MOL
REMARK 927      BINDING AFFINITY PREDICTED BY RF-SCORE:    0.00 PKD
ROOT
HETATM    1  C   UNL     1      -5.744  11.703  66.709  1.00  0.00    -0.139 C  
HETATM    2  C   UNL     1      -7.238  11.399  66.606  1.00  0.00    -0.102 C  
ENDROOT
BRANCH   2   3
HETATM    3  N   UNL     1      -7.679  11.083  65.254  1.00  0.00    -0.348 NA 
HETATM    4  H   UNL     1      -8.379  11.660  64.789  1.00  0.00     0.000 HD 
BRANCH   3   5
HETATM    5  C   UNL     1      -7.128   9.979  64.606  1.00  0.00    -0.140 A  
HETATM    6  C   UNL     1      -6.907   7.637  64.239  1.00  0.00    -0.056 A  
HETATM    7  N   UNL     1      -6.005   7.730  63.253  1.00  0.00    -0.058 NA 
HETATM    8  C   UNL     1      -8.327   6.854  65.732  1.00  0.00    -0.142 A  
HETATM    9  H   UNL     1      -8.954   8.684  66.552  1.00  0.00     0.000 HD 
HETATM   10  N   UNL     1      -8.383   8.160  65.888  1.00  0.00    -0.124 NA 
HETATM   11  C   UNL     1      -5.708   9.022  63.012  1.00  0.00    -0.081 A  
HETATM   12  C   UNL     1      -7.496   8.664  64.955  1.00  0.00    -0.093 A  
HETATM   13  N   UNL     1      -7.453   6.493  64.741  1.00  0.00    -0.084 NA 
HETATM   14  N   UNL     1      -6.207  10.126  63.614  1.00  0.00    -0.136 NA 
ENDBRANCH   3   5
ENDBRANCH   2   3
BRANCH   2  15
HETATM   15  C   UNL     1      -8.246  12.374  67.240  1.00  0.00    -0.184 C  
HETATM   16  O   UNL     1     -11.012  12.798  69.520  1.00  0.00    -0.064 OA 
HETATM   17  C   UNL     1      -8.122  13.647  66.819  1.00  0.00     0.271 C  
HETATM   18  C   UNL     1      -9.054  14.691  67.194  1.00  0.00    -0.236 A  
HETATM   19  N   UNL     1      -9.288  12.036  68.133  1.00  0.00    -0.195 N  
HETATM   20  C   UNL     1      -8.940  15.947  66.579  1.00  0.00    -0.331 A  
HETATM   21  C   UNL     1     -10.167  13.040  68.659  1.00  0.00    -0.164 C  
HETATM   22  C   UNL     1     -10.057  14.436  68.133  1.00  0.00    -0.226 A  
HETATM   23 CL   UNL     1     -12.181  15.378  69.668  1.00  0.00    -0.342 Cl 
HETATM   24  C   UNL     1      -9.825  16.967  66.899  1.00  0.00    -0.273 A  
HETATM   25  C   UNL     1     -10.807  16.738  67.858  1.00  0.00    -0.311 A  
HETATM   26  C   UNL     1     -10.924  15.487  68.484  1.00  0.00    -0.288 A  
BRANCH  19  27
HETATM   27  C   UNL     1      -9.598  10.696  68.557  1.00  0.00    -0.175 A  
HETATM   28  C   UNL     1     -10.564   9.960  67.845  1.00  0.00    -0.303 A  
HETATM   29  C   UNL     1     -10.892   8.650  68.214  1.00  0.00    -0.005 A  
HETATM   30  C   UNL     1     -10.263   8.058  69.306  1.00  0.00    -0.214 A  
HETATM   31  C   UNL     1      -9.326   8.788  70.041  1.00  0.00    -0.175 A  
HETATM   32  C   UNL     1      -9.012  10.107  69.681  1.00  0.00    -0.190 A  
ENDBRANCH  19  27
ENDBRANCH   2  15
TORSDOF 4
ENDMDL
MODEL      187
REMARK 921   NORMALIZED FREE ENERGY PREDICTED BY IDOCK:   -4.18 KCAL/MOL
REMARK 922        TOTAL FREE ENERGY PREDICTED BY IDOCK:   -6.04 KCAL/MOL
REMARK 923 INTER-LIGAND FREE ENERGY PREDICTED BY IDOCK:   -5.05 KCAL/MOL
REMARK 924 INTRA-LIGAND FREE ENERGY PREDICTED BY IDOCK:   -0.98 KCAL/MOL
REMARK 927      BINDING AFFINITY PREDICTED BY RF-SCORE:    0.00 PKD
ROOT
HETATM    1  C   UNL     1     -10.541   7.775  67.483  1.00  0.00    -0.319 C  
HETATM    2  C   UNL     1      -9.929   8.491  66.280  1.00  0.00    -0.181 C  
ENDROOT
BRANCH   2   3
HETATM    3  N   UNL     1      -8.619   7.979  65.898  1.00  0.00    -0.146 NA 
HETATM    4  H   UNL     1      -7.826   8.611  65.796  1.00  0.00     0.000 HD 
BRANCH   3   5
HETATM    5  C   UNL     1      -8.469   6.613  65.674  1.00  0.00    -0.144 A  
HETATM    6  C   UNL     1      -7.592   4.466  66.216  1.00  0.00    -0.086 A  
HETATM    7  N   UNL     1      -8.189   3.809  65.214  1.00  0.00    -0.097 NA 
HETATM    8  C   UNL     1      -6.395   4.953  68.002  1.00  0.00    -0.036 A  
HETATM    9  H   UNL     1      -6.772   7.019  68.073  1.00  0.00     0.000 HD 
HETATM   10  N   UNL     1      -6.905   6.109  67.631  1.00  0.00    -0.058 NA 
HETATM   11  C   UNL     1      -8.919   4.660  64.466  1.00  0.00    -0.147 A  
HETATM   12  C   UNL     1      -7.660   5.817  66.510  1.00  0.00    -0.091 A  
HETATM   13  N   UNL     1      -6.789   3.932  67.180  1.00  0.00    -0.050 NA 
HETATM   14  N   UNL     1      -9.092   5.991  64.635  1.00  0.00     0.411 NA 
ENDBRANCH   3   5
ENDBRANCH   2   3
BRANCH   2  15
HETATM   15  C   UNL     1      -9.883  10.029  66.267  1.00  0.00    -0.236 C  
HETATM   16  O   UNL     1      -8.580  13.023  67.805  1.00  0.00    -0.164 OA 
HETATM   17  C   UNL     1     -10.625  10.596  65.296  1.00  0.00    -0.191 C  
HETATM   18  C   UNL     1     -10.819  12.028  65.193  1.00  0.00    -0.347 A  
HETATM   19  N   UNL     1      -9.211  10.853  67.198  1.00  0.00    -0.148 N  
HETATM   20  C   UNL     1     -11.737  12.515  64.250  1.00  0.00    -0.450 A  
HETATM   21  C   UNL     1      -9.242  12.282  67.079  1.00  0.00    -0.205 C  
HETATM   22  C   UNL     1     -10.121  12.896  66.036  1.00  0.00    -0.290 A  
HETATM   23 CL   UNL     1      -9.504  15.505  66.789  1.00  0.00    -0.241 Cl 
HETATM   24  C   UNL     1     -11.965  13.879  64.134  1.00  0.00    -0.464 A  
HETATM   25  C   UNL     1     -11.250  14.758  64.942  1.00  0.00    -0.411 A  
HETATM   26  C   UNL     1     -10.324  14.279  65.883  1.00  0.00    -0.314 A  
BRANCH  19  27
HETATM   27  C   UNL     1      -8.491  10.370  68.348  1.00  0.00    -0.124 A  
HETATM   28  C   UNL     1      -9.185  10.179  69.557  1.00  0.00    -0.223 A  
HETATM   29  C   UNL     1      -8.531   9.702  70.699  1.00  0.00    -0.047 A  
HETATM   30  C   UNL     1      -7.169   9.414  70.649  1.00  0.00    -0.134 A  
HETATM   31  C   UNL     1      -6.462   9.629  69.464  1.00  0.00    -0.045 A  
HETATM   32  C   UNL     1      -7.115  10.124  68.326  1.00  0.00    -0.075 A  
ENDBRANCH  19  27
ENDBRANCH   2  15
TORSDOF 4
ENDMDL
MODEL      188
REMARK 921   NORMALIZED FREE ENERGY PREDICTED BY IDOCK:   -4.18 KCAL/MOL
REMARK 922        TOTAL FREE ENERGY PREDICTED BY IDOCK:   -6.03 KCAL/MOL
REMARK 923 INTER-LIGAND FREE ENERGY PREDICTED BY IDOCK:   -6.03 KCAL/MOL
REMARK 924 INTRA-LIGAND FREE ENERGY PREDICTED BY IDOCK:   -0.00 KCAL/MOL
REMARK 927      BINDING AFFINITY PREDICTED BY RF-SCORE:    0.00 PKD
ROOT
HETATM    1  C   UNL     1      -9.066  15.143  68.236  1.00  0.00    -0.183 C  
HETATM    2  C   UNL     1      -8.689  13.795  67.625  1.00  0.00    -0.185 C  
ENDROOT
BRANCH   2   3
HETATM    3  N   UNL     1      -8.765  13.770  66.170  1.00  0.00    -0.200 NA 
HETATM    4  H   UNL     1      -8.002  13.378  65.618  1.00  0.00     0.000 HD 
BRANCH   3   5
HETATM    5  C   UNL     1      -9.895  14.291  65.546  1.00  0.00    -0.252 A  
HETATM    6  C   UNL     1     -11.937  14.066  64.340  1.00  0.00    -0.454 A  
HETATM    7  N   UNL     1     -12.219  15.374  64.289  1.00  0.00    -0.500 NA 
HETATM    8  C   UNL     1     -12.037  11.875  64.113  1.00  0.00    -0.298 A  
HETATM    9  H   UNL     1     -10.242  11.381  65.087  1.00  0.00     0.000 HD 
HETATM   10  N   UNL     1     -10.912  12.081  64.765  1.00  0.00    -0.301 NA 
HETATM   11  C   UNL     1     -11.251  16.085  64.900  1.00  0.00    -0.312 A  
HETATM   12  C   UNL     1     -10.837  13.453  64.915  1.00  0.00    -0.352 A  
HETATM   13  N   UNL     1     -12.693  13.047  63.842  1.00  0.00    -0.693 NA 
HETATM   14  N   UNL     1     -10.134  15.631  65.513  1.00  0.00    -0.360 NA 
ENDBRANCH   3   5
ENDBRANCH   2   3
BRANCH   2  15
HETATM   15  C   UNL     1      -9.339  12.514  68.176  1.00  0.00    -0.210 C  
HETATM   16  O   UNL     1     -12.051  11.082  70.080  1.00  0.00    -0.309 OA 
HETATM   17  C   UNL     1      -8.676  11.382  67.869  1.00  0.00    -0.145 C  
HETATM   18  C   UNL     1      -9.049  10.086  68.399  1.00  0.00    -0.121 A  
HETATM   19  N   UNL     1     -10.484  12.445  69.002  1.00  0.00    -0.075 N  
HETATM   20  C   UNL     1      -8.206   8.992  68.155  1.00  0.00    -0.113 A  
HETATM   21  C   UNL     1     -10.997  11.184  69.453  1.00  0.00    -0.244 C  
HETATM   22  C   UNL     1     -10.215   9.945  69.157  1.00  0.00    -0.218 A  
HETATM   23 CL   UNL     1     -11.979   8.282  70.529  1.00  0.00    -0.028 Cl 
HETATM   24  C   UNL     1      -8.520   7.738  68.661  1.00  0.00    -0.129 A  
HETATM   25  C   UNL     1      -9.695   7.575  69.388  1.00  0.00    -0.164 A  
HETATM   26  C   UNL     1     -10.549   8.663  69.631  1.00  0.00    -0.218 A  
BRANCH  19  27
HETATM   27  C   UNL     1     -11.203  13.589  69.499  1.00  0.00    -0.132 A  
HETATM   28  C   UNL     1     -12.008  14.328  68.613  1.00  0.00    -0.348 A  
HETATM   29  C   UNL     1     -12.733  15.442  69.052  1.00  0.00     0.494 A  
HETATM   30  C   UNL     1     -12.657  15.839  70.384  1.00  0.00    -0.279 A  
HETATM   31  C   UNL     1     -11.836  15.134  71.267  1.00  0.00    -0.403 A  
HETATM   32  C   UNL     1     -11.097  14.029  70.822  1.00  0.00     0.701 A  
ENDBRANCH  19  27
ENDBRANCH   2  15
TORSDOF 4
ENDMDL
MODEL      189
REMARK 921   NORMALIZED FREE ENERGY PREDICTED BY IDOCK:   -4.16 KCAL/MOL
REMARK 922        TOTAL FREE ENERGY PREDICTED BY IDOCK:   -6.00 KCAL/MOL
REMARK 923 INTER-LIGAND FREE ENERGY PREDICTED BY IDOCK:   -4.42 KCAL/MOL
REMARK 924 INTRA-LIGAND FREE ENERGY PREDICTED BY IDOCK:   -1.58 KCAL/MOL
REMARK 927      BINDING AFFINITY PREDICTED BY RF-SCORE:    0.00 PKD
ROOT
HETATM    1  C   UNL     1     -11.730   9.939  70.949  1.00  0.00    -0.449 C  
HETATM    2  C   UNL     1     -10.591   8.946  70.727  1.00  0.00    -0.226 C  
ENDROOT
BRANCH   2   3
HETATM    3  N   UNL     1      -9.850   8.624  71.939  1.00  0.00    -0.288 NA 
HETATM    4  H   UNL     1      -9.322   9.345  72.431  1.00  0.00     0.000 HD 
BRANCH   3   5
HETATM    5  C   UNL     1      -9.874   7.316  72.417  1.00  0.00    -0.155 A  
HETATM    6  C   UNL     1      -8.952   5.497  73.646  1.00  0.00    -0.124 A  
HETATM    7  N   UNL     1      -9.952   4.639  73.405  1.00  0.00    -0.146 NA 
HETATM    8  C   UNL     1      -7.084   6.407  74.383  1.00  0.00    -0.092 A  
HETATM    9  H   UNL     1      -7.297   8.303  73.503  1.00  0.00     0.000 HD 
HETATM   10  N   UNL     1      -7.649   7.360  73.671  1.00  0.00    -0.100 NA 
HETATM   11  C   UNL     1     -10.890   5.219  72.632  1.00  0.00    -0.253 A  
HETATM   12  C   UNL     1      -8.824   6.802  73.204  1.00  0.00    -0.123 A  
HETATM   13  N   UNL     1      -7.841   5.265  74.400  1.00  0.00    -0.095 NA 
HETATM   14  N   UNL     1     -10.911   6.478  72.137  1.00  0.00    -0.224 NA 
ENDBRANCH   3   5
ENDBRANCH   2   3
BRANCH   2  15
HETATM   15  C   UNL     1      -9.588   9.198  69.587  1.00  0.00    -0.176 C  
HETATM   16  O   UNL     1      -7.572   7.756  66.964  1.00  0.00    -0.096 OA 
HETATM   17  C   UNL     1      -9.255  10.493  69.422  1.00  0.00    -0.128 C  
HETATM   18  C   UNL     1      -8.232  10.927  68.492  1.00  0.00    -0.140 A  
HETATM   19  N   UNL     1      -8.967   8.214  68.786  1.00  0.00    -0.144 N  
HETATM   20  C   UNL     1      -7.838  12.274  68.506  1.00  0.00    -0.111 A  
HETATM   21  C   UNL     1      -8.045   8.577  67.748  1.00  0.00    -0.115 C  
HETATM   22  C   UNL     1      -7.637  10.010  67.621  1.00  0.00    -0.091 A  
HETATM   23 CL   UNL     1      -5.869   9.512  65.528  1.00  0.00    -0.057 Cl 
HETATM   24  C   UNL     1      -6.848  12.723  67.643  1.00  0.00    -0.147 A  
HETATM   25  C   UNL     1      -6.273  11.829  66.745  1.00  0.00    -0.094 A  
HETATM   26  C   UNL     1      -6.666  10.482  66.720  1.00  0.00    -0.091 A  
BRANCH  19  27
HETATM   27  C   UNL     1      -9.146   6.795  68.949  1.00  0.00    -0.133 A  
HETATM   28  C   UNL     1      -8.169   6.058  69.643  1.00  0.00    -0.115 A  
HETATM   29  C   UNL     1      -8.304   4.678  69.835  1.00  0.00    -0.074 A  
HETATM   30  C   UNL     1      -9.418   4.012  69.330  1.00  0.00    -0.259 A  
HETATM   31  C   UNL     1     -10.380   4.727  68.612  1.00  0.00     0.033 A  
HETATM   32  C   UNL     1     -10.234   6.106  68.405  1.00  0.00    -0.208 A  
ENDBRANCH  19  27
ENDBRANCH   2  15
TORSDOF 4
ENDMDL
MODEL      190
REMARK 921   NORMALIZED FREE ENERGY PREDICTED BY IDOCK:   -4.14 KCAL/MOL
REMARK 922        TOTAL FREE ENERGY PREDICTED BY IDOCK:   -5.99 KCAL/MOL
REMARK 923 INTER-LIGAND FREE ENERGY PREDICTED BY IDOCK:   -5.16 KCAL/MOL
REMARK 924 INTRA-LIGAND FREE ENERGY PREDICTED BY IDOCK:   -0.83 KCAL/MOL
REMARK 927      BINDING AFFINITY PREDICTED BY RF-SCORE:    0.00 PKD
ROOT
HETATM    1  C   UNL     1      -6.780   5.559  67.429  1.00  0.00    -0.059 C  
HETATM    2  C   UNL     1      -8.239   5.108  67.475  1.00  0.00    -0.103 C  
ENDROOT
BRANCH   2   3
HETATM    3  N   UNL     1      -8.947   5.290  66.215  1.00  0.00    -0.129 NA 
HETATM    4  H   UNL     1      -9.526   6.115  66.060  1.00  0.00     0.000 HD 
BRANCH   3   5
HETATM    5  C   UNL     1      -8.822   4.319  65.224  1.00  0.00    -0.131 A  
HETATM    6  C   UNL     1      -7.792   3.399  63.284  1.00  0.00    -0.068 A  
HETATM    7  N   UNL     1      -8.565   2.307  63.215  1.00  0.00    -0.084 NA 
HETATM    8  C   UNL     1      -6.247   4.918  62.883  1.00  0.00    -0.021 A  
HETATM    9  H   UNL     1      -6.688   6.232  64.462  1.00  0.00     0.000 HD 
HETATM   10  N   UNL     1      -6.876   5.372  63.947  1.00  0.00    -0.045 NA 
HETATM   11  C   UNL     1      -9.470   2.311  64.213  1.00  0.00    -0.138 A  
HETATM   12  C   UNL     1      -7.849   4.426  64.210  1.00  0.00    -0.085 A  
HETATM   13  N   UNL     1      -6.762   3.725  62.453  1.00  0.00    -0.026 NA 
HETATM   14  N   UNL     1      -9.638   3.229  65.192  1.00  0.00    -0.141 NA 
ENDBRANCH   3   5
ENDBRANCH   2   3
BRANCH   2  15
HETATM   15  C   UNL     1      -9.138   5.596  68.624  1.00  0.00    -0.118 C  
HETATM   16  O   UNL     1     -11.027   8.332  70.027  1.00  0.00    -0.247 OA 
HETATM   17  C   UNL     1      -9.378   4.666  69.569  1.00  0.00    -0.208 C  
HETATM   18  C   UNL     1     -10.092   4.961  70.795  1.00  0.00    -0.303 A  
HETATM   19  N   UNL     1      -9.647   6.904  68.791  1.00  0.00    -0.135 N  
HETATM   20  C   UNL     1     -10.153   3.975  71.791  1.00  0.00    -0.199 A  
HETATM   21  C   UNL     1     -10.480   7.237  69.910  1.00  0.00    -0.225 C  
HETATM   22  C   UNL     1     -10.683   6.213  70.982  1.00  0.00    -0.317 A  
HETATM   23 CL   UNL     1     -12.234   7.906  72.559  1.00  0.00    -0.288 Cl 
HETATM   24  C   UNL     1     -10.812   4.227  72.987  1.00  0.00    -0.267 A  
HETATM   25  C   UNL     1     -11.436   5.456  73.172  1.00  0.00    -0.273 A  
HETATM   26  C   UNL     1     -11.386   6.446  72.178  1.00  0.00    -0.290 A  
BRANCH  19  27
HETATM   27  C   UNL     1      -9.357   8.011  67.917  1.00  0.00    -0.138 A  
HETATM   28  C   UNL     1      -8.264   8.846  68.213  1.00  0.00    -0.121 A  
HETATM   29  C   UNL     1      -7.938   9.929  67.388  1.00  0.00    -0.106 A  
HETATM   30  C   UNL     1      -8.705  10.196  66.257  1.00  0.00    -0.152 A  
HETATM   31  C   UNL     1      -9.812   9.394  65.970  1.00  0.00    -0.366 A  
HETATM   32  C   UNL     1     -10.148   8.321  66.807  1.00  0.00    -0.373 A  
ENDBRANCH  19  27
ENDBRANCH   2  15
TORSDOF 4
ENDMDL
MODEL      191
REMARK 921   NORMALIZED FREE ENERGY PREDICTED BY IDOCK:   -4.13 KCAL/MOL
REMARK 922        TOTAL FREE ENERGY PREDICTED BY IDOCK:   -5.97 KCAL/MOL
REMARK 923 INTER-LIGAND FREE ENERGY PREDICTED BY IDOCK:   -5.80 KCAL/MOL
REMARK 924 INTRA-LIGAND FREE ENERGY PREDICTED BY IDOCK:   -0.17 KCAL/MOL
REMARK 927      BINDING AFFINITY PREDICTED BY RF-SCORE:    0.00 PKD
ROOT
HETATM    1  C   UNL     1      -5.877  14.480  67.946  1.00  0.00    -0.137 C  
HETATM    2  C   UNL     1      -7.091  15.391  67.776  1.00  0.00    -0.165 C  
ENDROOT
BRANCH   2   3
HETATM    3  N   UNL     1      -7.670  15.836  69.037  1.00  0.00    -0.186 NA 
HETATM    4  H   UNL     1      -7.807  15.179  69.804  1.00  0.00     0.000 HD 
BRANCH   3   5
HETATM    5  C   UNL     1      -8.033  17.173  69.177  1.00  0.00    -0.041 A  
HETATM    6  C   UNL     1      -7.530  19.497  69.318  1.00  0.00    -0.241 A  
HETATM    7  N   UNL     1      -8.797  19.911  69.444  1.00  0.00     0.179 NA 
HETATM    8  C   UNL     1      -5.333  19.450  69.136  1.00  0.00    -0.198 A  
HETATM    9  H   UNL     1      -5.080  17.370  68.980  1.00  0.00     0.000 HD 
HETATM   10  N   UNL     1      -5.688  18.184  69.082  1.00  0.00    -0.203 NA 
HETATM   11  C   UNL     1      -9.637  18.857  69.435  1.00  0.00     0.061 A  
HETATM   12  C   UNL     1      -7.066  18.199  69.194  1.00  0.00    -0.182 A  
HETATM   13  N   UNL     1      -6.415  20.279  69.271  1.00  0.00    -0.291 NA 
HETATM   14  N   UNL     1      -9.336  17.544  69.310  1.00  0.00     0.039 NA 
ENDBRANCH   3   5
ENDBRANCH   2   3
BRANCH   2  15
HETATM   15  C   UNL     1      -8.228  14.956  66.835  1.00  0.00    -0.143 C  
HETATM   16  O   UNL     1     -10.686  15.974  64.396  1.00  0.00    -0.451 OA 
HETATM   17  C   UNL     1      -8.500  13.637  66.871  1.00  0.00    -0.073 C  
HETATM   18  C   UNL     1      -9.616  13.047  66.161  1.00  0.00    -0.209 A  
HETATM   19  N   UNL     1      -9.019  15.806  66.029  1.00  0.00    -0.329 N  
HETATM   20  C   UNL     1      -9.918  11.696  66.387  1.00  0.00    -0.235 A  
HETATM   21  C   UNL     1     -10.055  15.277  65.189  1.00  0.00    -0.288 C  
HETATM   22  C   UNL     1     -10.385  13.823  65.289  1.00  0.00    -0.378 A  
HETATM   23 CL   UNL     1     -12.463  13.980  63.441  1.00  0.00     0.002 Cl 
HETATM   24  C   UNL     1     -10.991  11.100  65.739  1.00  0.00    -0.160 A  
HETATM   25  C   UNL     1     -11.744  11.850  64.841  1.00  0.00    -0.262 A  
HETATM   26  C   UNL     1     -11.445  13.201  64.603  1.00  0.00    -0.333 A  
BRANCH  19  27
HETATM   27  C   UNL     1      -8.907  17.241  66.000  1.00  0.00    -0.084 A  
HETATM   28  C   UNL     1     -10.075  18.019  66.097  1.00  0.00    -0.334 A  
HETATM   29  C   UNL     1     -10.017  19.418  66.083  1.00  0.00    -0.501 A  
HETATM   30  C   UNL     1      -8.786  20.060  65.966  1.00  0.00    -0.254 A  
HETATM   31  C   UNL     1      -7.622  19.299  65.837  1.00  0.00    -0.266 A  
HETATM   32  C   UNL     1      -7.685  17.898  65.833  1.00  0.00    -0.141 A  
ENDBRANCH  19  27
ENDBRANCH   2  15
TORSDOF 4
ENDMDL
MODEL      192
REMARK 921   NORMALIZED FREE ENERGY PREDICTED BY IDOCK:   -4.11 KCAL/MOL
REMARK 922        TOTAL FREE ENERGY PREDICTED BY IDOCK:   -5.95 KCAL/MOL
REMARK 923 INTER-LIGAND FREE ENERGY PREDICTED BY IDOCK:   -5.47 KCAL/MOL
REMARK 924 INTRA-LIGAND FREE ENERGY PREDICTED BY IDOCK:   -0.47 KCAL/MOL
REMARK 927      BINDING AFFINITY PREDICTED BY RF-SCORE:    0.00 PKD
ROOT
HETATM    1  C   UNL     1     -10.425  10.408  69.533  1.00  0.00    -0.274 C  
HETATM    2  C   UNL     1     -10.342   9.218  68.578  1.00  0.00    -0.209 C  
ENDROOT
BRANCH   2   3
HETATM    3  N   UNL     1      -9.910   7.983  69.219  1.00  0.00    -0.175 NA 
HETATM    4  H   UNL     1      -9.205   7.391  68.780  1.00  0.00     0.000 HD 
BRANCH   3   5
HETATM    5  C   UNL     1     -10.476   7.624  70.440  1.00  0.00    -0.220 A  
HETATM    6  C   UNL     1     -10.400   7.339  72.803  1.00  0.00    -0.240 A  
HETATM    7  N   UNL     1     -11.659   6.905  72.936  1.00  0.00    -0.090 NA 
HETATM    8  C   UNL     1      -8.334   7.984  73.225  1.00  0.00    -0.211 A  
HETATM    9  H   UNL     1      -7.738   8.416  71.257  1.00  0.00     0.000 HD 
HETATM   10  N   UNL     1      -8.448   8.101  71.918  1.00  0.00    -0.136 NA 
HETATM   11  C   UNL     1     -12.265   6.851  71.734  1.00  0.00    -0.356 A  
HETATM   12  C   UNL     1      -9.741   7.699  71.640  1.00  0.00    -0.161 A  
HETATM   13  N   UNL     1      -9.492   7.534  73.801  1.00  0.00    -0.279 NA 
HETATM   14  N   UNL     1     -11.760   7.179  70.523  1.00  0.00    -0.296 NA 
ENDBRANCH   3   5
ENDBRANCH   2   3
BRANCH   2  15
HETATM   15  C   UNL     1      -9.584   9.377  67.248  1.00  0.00    -0.151 C  
HETATM   16  O   UNL     1      -6.499   8.857  65.449  1.00  0.00    -0.065 OA 
HETATM   17  C   UNL     1     -10.305   9.957  66.269  1.00  0.00    -0.233 C  
HETATM   18  C   UNL     1      -9.738  10.315  64.984  1.00  0.00    -0.370 A  
HETATM   19  N   UNL     1      -8.232   9.042  67.010  1.00  0.00    -0.109 N  
HETATM   20  C   UNL     1     -10.519  11.060  64.089  1.00  0.00    -0.434 A  
HETATM   21  C   UNL     1      -7.637   9.238  65.719  1.00  0.00    -0.098 C  
HETATM   22  C   UNL     1      -8.430   9.941  64.664  1.00  0.00    -0.178 A  
HETATM   23 CL   UNL     1      -6.363   9.860  62.799  1.00  0.00    -0.111 Cl 
HETATM   24  C   UNL     1     -10.003  11.438  62.856  1.00  0.00    -0.278 A  
HETATM   25  C   UNL     1      -8.716  11.042  62.509  1.00  0.00    -0.332 A  
HETATM   26  C   UNL     1      -7.930  10.289  63.396  1.00  0.00    -0.147 A  
BRANCH  19  27
HETATM   27  C   UNL     1      -7.328   8.534  68.008  1.00  0.00    -0.092 A  
HETATM   28  C   UNL     1      -7.176   7.142  68.147  1.00  0.00    -0.095 A  
HETATM   29  C   UNL     1      -6.302   6.601  69.096  1.00  0.00    -0.035 A  
HETATM   30  C   UNL     1      -5.571   7.446  69.928  1.00  0.00    -0.023 A  
HETATM   31  C   UNL     1      -5.737   8.828  69.823  1.00  0.00    -0.029 A  
HETATM   32  C   UNL     1      -6.627   9.369  68.883  1.00  0.00    -0.047 A  
ENDBRANCH  19  27
ENDBRANCH   2  15
TORSDOF 4
ENDMDL
MODEL      193
REMARK 921   NORMALIZED FREE ENERGY PREDICTED BY IDOCK:   -4.09 KCAL/MOL
REMARK 922        TOTAL FREE ENERGY PREDICTED BY IDOCK:   -5.92 KCAL/MOL
REMARK 923 INTER-LIGAND FREE ENERGY PREDICTED BY IDOCK:   -5.71 KCAL/MOL
REMARK 924 INTRA-LIGAND FREE ENERGY PREDICTED BY IDOCK:   -0.21 KCAL/MOL
REMARK 927      BINDING AFFINITY PREDICTED BY RF-SCORE:    0.00 PKD
ROOT
HETATM    1  C   UNL     1      -8.641   7.104  66.193  1.00  0.00    -0.151 C  
HETATM    2  C   UNL     1      -9.818   7.217  67.160  1.00  0.00    -0.185 C  
ENDROOT
BRANCH   2   3
HETATM    3  N   UNL     1     -10.823   8.187  66.747  1.00  0.00    -0.335 NA 
HETATM    4  H   UNL     1     -11.812   7.938  66.741  1.00  0.00     0.000 HD 
BRANCH   3   5
HETATM    5  C   UNL     1     -10.413   9.460  66.359  1.00  0.00    -0.095 A  
HETATM    6  C   UNL     1     -10.431  11.835  66.543  1.00  0.00    -0.230 A  
HETATM    7  N   UNL     1      -9.542  12.061  65.566  1.00  0.00    -0.203 NA 
HETATM    8  C   UNL     1     -11.869  12.106  68.191  1.00  0.00    -0.299 A  
HETATM    9  H   UNL     1     -12.331  10.085  68.534  1.00  0.00     0.000 HD 
HETATM   10  N   UNL     1     -11.818  10.801  68.019  1.00  0.00    -0.509 NA 
HETATM   11  C   UNL     1      -9.139  10.897  65.021  1.00  0.00    -0.190 A  
HETATM   12  C   UNL     1     -10.917  10.617  66.987  1.00  0.00    -0.208 A  
HETATM   13  N   UNL     1     -11.041  12.769  67.325  1.00  0.00    -0.265 NA 
HETATM   14  N   UNL     1      -9.512   9.640  65.354  1.00  0.00    -0.262 NA 
ENDBRANCH   3   5
ENDBRANCH   2   3
BRANCH   2  15
HETATM   15  C   UNL     1      -9.538   7.404  68.662  1.00  0.00    -0.146 C  
HETATM   16  O   UNL     1      -7.357   8.799  71.177  1.00  0.00    -0.079 OA 
HETATM   17  C   UNL     1     -10.448   6.825  69.469  1.00  0.00    -0.248 C  
HETATM   18  C   UNL     1     -10.299   6.773  70.909  1.00  0.00    -0.222 A  
HETATM   19  N   UNL     1      -8.413   8.043  69.230  1.00  0.00    -0.134 N  
HETATM   20  C   UNL     1     -11.212   6.010  71.652  1.00  0.00    -0.328 A  
HETATM   21  C   UNL     1      -8.265   8.155  70.653  1.00  0.00    -0.114 C  
HETATM   22  C   UNL     1      -9.249   7.452  71.533  1.00  0.00    -0.149 A  
HETATM   23 CL   UNL     1      -7.969   8.218  73.885  1.00  0.00    -0.267 Cl 
HETATM   24  C   UNL     1     -11.091   5.921  73.032  1.00  0.00    -0.289 A  
HETATM   25  C   UNL     1     -10.072   6.621  73.671  1.00  0.00    -0.300 A  
HETATM   26  C   UNL     1      -9.158   7.393  72.936  1.00  0.00    -0.148 A  
BRANCH  19  27
HETATM   27  C   UNL     1      -7.315   8.588  68.476  1.00  0.00    -0.092 A  
HETATM   28  C   UNL     1      -7.370   9.931  68.061  1.00  0.00    -0.084 A  
HETATM   29  C   UNL     1      -6.323  10.508  67.334  1.00  0.00    -0.058 A  
HETATM   30  C   UNL     1      -5.205   9.747  67.003  1.00  0.00    -0.041 A  
HETATM   31  C   UNL     1      -5.152   8.403  67.381  1.00  0.00    -0.033 A  
HETATM   32  C   UNL     1      -6.210   7.822  68.094  1.00  0.00    -0.045 A  
ENDBRANCH  19  27
ENDBRANCH   2  15
TORSDOF 4
ENDMDL
MODEL      194
REMARK 921   NORMALIZED FREE ENERGY PREDICTED BY IDOCK:   -3.97 KCAL/MOL
REMARK 922        TOTAL FREE ENERGY PREDICTED BY IDOCK:   -5.78 KCAL/MOL
REMARK 923 INTER-LIGAND FREE ENERGY PREDICTED BY IDOCK:   -4.91 KCAL/MOL
REMARK 924 INTRA-LIGAND FREE ENERGY PREDICTED BY IDOCK:   -0.87 KCAL/MOL
REMARK 927      BINDING AFFINITY PREDICTED BY RF-SCORE:    0.00 PKD
ROOT
HETATM    1  C   UNL     1      -8.947  10.708  67.964  1.00  0.00    -0.140 C  
HETATM    2  C   UNL     1      -9.698   9.612  67.209  1.00  0.00    -0.166 C  
ENDROOT
BRANCH   2   3
HETATM    3  N   UNL     1     -11.091   9.472  67.615  1.00  0.00    -0.462 NA 
HETATM    4  H   UNL     1     -11.710   8.826  67.125  1.00  0.00     0.000 HD 
BRANCH   3   5
HETATM    5  C   UNL     1     -11.562  10.233  68.681  1.00  0.00    -0.025 A  
HETATM    6  C   UNL     1     -12.159  10.528  70.968  1.00  0.00    -0.387 A  
HETATM    7  N   UNL     1     -12.510  11.816  70.860  1.00  0.00    -0.363 NA 
HETATM    8  C   UNL     1     -11.736   8.515  71.762  1.00  0.00    -0.327 A  
HETATM    9  H   UNL     1     -11.097   7.607  69.979  1.00  0.00     0.000 HD 
HETATM   10  N   UNL     1     -11.441   8.425  70.482  1.00  0.00    -0.228 NA 
HETATM   11  C   UNL     1     -12.358  12.237  69.589  1.00  0.00     0.012 A  
HETATM   12  C   UNL     1     -11.701   9.683  69.971  1.00  0.00    -0.023 A  
HETATM   13  N   UNL     1     -12.167   9.770  72.101  1.00  0.00    -0.194 NA 
HETATM   14  N   UNL     1     -11.914  11.539  68.520  1.00  0.00    -0.529 NA 
ENDBRANCH   3   5
ENDBRANCH   2   3
BRANCH   2  15
HETATM   15  C   UNL     1      -9.070   8.212  67.101  1.00  0.00    -0.140 C  
HETATM   16  O   UNL     1      -6.640   6.110  65.457  1.00  0.00    -0.044 OA 
HETATM   17  C   UNL     1      -9.595   7.305  67.948  1.00  0.00    -0.153 C  
HETATM   18  C   UNL     1      -9.235   5.902  67.917  1.00  0.00    -0.108 A  
HETATM   19  N   UNL     1      -8.083   7.806  66.175  1.00  0.00    -0.108 N  
HETATM   20  C   UNL     1      -9.950   5.006  68.725  1.00  0.00    -0.225 A  
HETATM   21  C   UNL     1      -7.574   6.465  66.174  1.00  0.00    -0.090 C  
HETATM   22  C   UNL     1      -8.211   5.457  67.076  1.00  0.00    -0.104 A  
HETATM   23 CL   UNL     1      -6.605   3.367  66.176  1.00  0.00    -0.036 Cl 
HETATM   24  C   UNL     1      -9.647   3.651  68.708  1.00  0.00    -0.159 A  
HETATM   25  C   UNL     1      -8.606   3.199  67.903  1.00  0.00    -0.119 A  
HETATM   26  C   UNL     1      -7.881   4.089  67.097  1.00  0.00    -0.092 A  
BRANCH  19  27
HETATM   27  C   UNL     1      -7.538   8.648  65.142  1.00  0.00    -0.093 A  
HETATM   28  C   UNL     1      -6.410   9.439  65.429  1.00  0.00    -0.066 A  
HETATM   29  C   UNL     1      -5.839  10.265  64.455  1.00  0.00    -0.136 A  
HETATM   30  C   UNL     1      -6.391  10.318  63.178  1.00  0.00    -0.134 A  
HETATM   31  C   UNL     1      -7.530   9.562  62.889  1.00  0.00    -0.106 A  
HETATM   32  C   UNL     1      -8.112   8.748  63.871  1.00  0.00    -0.165 A  
ENDBRANCH  19  27
ENDBRANCH   2  15
TORSDOF 4
ENDMDL
MODEL      195
REMARK 921   NORMALIZED FREE ENERGY PREDICTED BY IDOCK:   -3.97 KCAL/MOL
REMARK 922        TOTAL FREE ENERGY PREDICTED BY IDOCK:   -5.77 KCAL/MOL
REMARK 923 INTER-LIGAND FREE ENERGY PREDICTED BY IDOCK:   -4.34 KCAL/MOL
REMARK 924 INTRA-LIGAND FREE ENERGY PREDICTED BY IDOCK:   -1.43 KCAL/MOL
REMARK 927      BINDING AFFINITY PREDICTED BY RF-SCORE:    0.00 PKD
ROOT
HETATM    1  C   UNL     1      -5.746   6.587  65.685  1.00  0.00    -0.025 C  
HETATM    2  C   UNL     1      -7.073   7.106  66.234  1.00  0.00    -0.074 C  
ENDROOT
BRANCH   2   3
HETATM    3  N   UNL     1      -7.107   8.551  66.416  1.00  0.00    -0.078 NA 
HETATM    4  H   UNL     1      -6.442   9.011  67.037  1.00  0.00     0.000 HD 
BRANCH   3   5
HETATM    5  C   UNL     1      -8.062   9.295  65.727  1.00  0.00    -0.115 A  
HETATM    6  C   UNL     1      -9.970  10.717  65.634  1.00  0.00    -0.260 A  
HETATM    7  N   UNL     1      -9.999  10.832  64.300  1.00  0.00    -0.315 NA 
HETATM    8  C   UNL     1     -10.428  10.927  67.780  1.00  0.00    -0.203 A  
HETATM    9  H   UNL     1      -8.896   9.708  68.543  1.00  0.00     0.000 HD 
HETATM   10  N   UNL     1      -9.380  10.130  67.750  1.00  0.00    -0.141 NA 
HETATM   11  C   UNL     1      -9.000  10.117  63.747  1.00  0.00    -0.246 A  
HETATM   12  C   UNL     1      -9.081   9.991  66.407  1.00  0.00    -0.149 A  
HETATM   13  N   UNL     1     -10.814  11.312  66.524  1.00  0.00    -0.277 NA 
HETATM   14  N   UNL     1      -8.055   9.374  64.368  1.00  0.00    -0.129 NA 
ENDBRANCH   3   5
ENDBRANCH   2   3
BRANCH   2  15
HETATM   15  C   UNL     1      -7.682   6.436  67.479  1.00  0.00    -0.101 C  
HETATM   16  O   UNL     1      -9.522   3.627  68.801  1.00  0.00    -0.161 OA 
HETATM   17  C   UNL     1      -7.504   7.128  68.621  1.00  0.00    -0.102 C  
HETATM   18  C   UNL     1      -8.108   6.737  69.877  1.00  0.00    -0.126 A  
HETATM   19  N   UNL     1      -8.439   5.243  67.501  1.00  0.00    -0.106 N  
HETATM   20  C   UNL     1      -8.001   7.605  70.974  1.00  0.00    -0.094 A  
HETATM   21  C   UNL     1      -8.955   4.716  68.732  1.00  0.00    -0.108 C  
HETATM   22  C   UNL     1      -8.803   5.529  69.978  1.00  0.00    -0.139 A  
HETATM   23 CL   UNL     1     -10.190   3.700  71.557  1.00  0.00    -0.091 Cl 
HETATM   24  C   UNL     1      -8.584   7.273  72.190  1.00  0.00    -0.126 A  
HETATM   25  C   UNL     1      -9.248   6.057  72.315  1.00  0.00    -0.146 A  
HETATM   26  C   UNL     1      -9.354   5.179  71.225  1.00  0.00    -0.148 A  
BRANCH  19  27
HETATM   27  C   UNL     1      -8.802   4.484  66.333  1.00  0.00    -0.113 A  
HETATM   28  C   UNL     1      -7.908   3.513  65.844  1.00  0.00    -0.089 A  
HETATM   29  C   UNL     1      -8.220   2.743  64.718  1.00  0.00    -0.087 A  
HETATM   30  C   UNL     1      -9.431   2.938  64.058  1.00  0.00    -0.129 A  
HETATM   31  C   UNL     1     -10.313   3.920  64.513  1.00  0.00    -0.231 A  
HETATM   32  C   UNL     1      -9.991   4.703  65.631  1.00  0.00    -0.228 A  
ENDBRANCH  19  27
ENDBRANCH   2  15
TORSDOF 4
ENDMDL
MODEL      196
REMARK 921   NORMALIZED FREE ENERGY PREDICTED BY IDOCK:   -3.96 KCAL/MOL
REMARK 922        TOTAL FREE ENERGY PREDICTED BY IDOCK:   -5.76 KCAL/MOL
REMARK 923 INTER-LIGAND FREE ENERGY PREDICTED BY IDOCK:   -4.51 KCAL/MOL
REMARK 924 INTRA-LIGAND FREE ENERGY PREDICTED BY IDOCK:   -1.25 KCAL/MOL
REMARK 927      BINDING AFFINITY PREDICTED BY RF-SCORE:    0.00 PKD
ROOT
HETATM    1  C   UNL     1      -6.924   8.995  71.371  1.00  0.00    -0.073 C  
HETATM    2  C   UNL     1      -8.089   8.023  71.199  1.00  0.00    -0.095 C  
ENDROOT
BRANCH   2   3
HETATM    3  N   UNL     1      -8.935   7.908  72.380  1.00  0.00    -0.146 NA 
HETATM    4  H   UNL     1      -8.558   8.100  73.308  1.00  0.00     0.000 HD 
BRANCH   3   5
HETATM    5  C   UNL     1     -10.267   7.533  72.221  1.00  0.00    -0.206 A  
HETATM    6  C   UNL     1     -12.546   7.994  71.710  1.00  0.00    -0.325 A  
HETATM    7  N   UNL     1     -12.988   6.741  71.879  1.00  0.00    -0.269 NA 
HETATM    8  C   UNL     1     -12.440  10.154  71.283  1.00  0.00    -0.406 A  
HETATM    9  H   UNL     1     -10.386  10.436  71.628  1.00  0.00     0.000 HD 
HETATM   10  N   UNL     1     -11.203   9.825  71.593  1.00  0.00    -0.245 NA 
HETATM   11  C   UNL     1     -11.973   5.932  72.237  1.00  0.00    -0.152 A  
HETATM   12  C   UNL     1     -11.256   8.471  71.862  1.00  0.00    -0.327 A  
HETATM   13  N   UNL     1     -13.284   9.077  71.334  1.00  0.00    -0.310 NA 
HETATM   14  N   UNL     1     -10.669   6.246  72.412  1.00  0.00    -0.215 NA 
ENDBRANCH   3   5
ENDBRANCH   2   3
BRANCH   2  15
HETATM   15  C   UNL     1      -7.813   6.612  70.650  1.00  0.00    -0.106 C  
HETATM   16  O   UNL     1      -8.092   4.355  67.847  1.00  0.00    -0.093 OA 
HETATM   17  C   UNL     1      -7.208   5.787  71.526  1.00  0.00    -0.082 C  
HETATM   18  C   UNL     1      -6.978   4.383  71.251  1.00  0.00    -0.036 A  
HETATM   19  N   UNL     1      -8.192   6.120  69.380  1.00  0.00    -0.111 N  
HETATM   20  C   UNL     1      -6.492   3.567  72.283  1.00  0.00    -0.014 A  
HETATM   21  C   UNL     1      -7.874   4.779  68.981  1.00  0.00    -0.072 C  
HETATM   22  C   UNL     1      -7.262   3.858  69.988  1.00  0.00    -0.042 A  
HETATM   23 CL   UNL     1      -7.227   1.684  68.248  1.00  0.00    -0.042 Cl 
HETATM   24  C   UNL     1      -6.276   2.214  72.064  1.00  0.00    -0.014 A  
HETATM   25  C   UNL     1      -6.520   1.684  70.800  1.00  0.00    -0.024 A  
HETATM   26  C   UNL     1      -7.000   2.494  69.760  1.00  0.00    -0.033 A  
BRANCH  19  27
HETATM   27  C   UNL     1      -8.949   6.864  68.408  1.00  0.00    -0.121 A  
HETATM   28  C   UNL     1      -8.299   7.851  67.646  1.00  0.00    -0.124 A  
HETATM   29  C   UNL     1      -8.991   8.594  66.682  1.00  0.00    -0.174 A  
HETATM   30  C   UNL     1     -10.348   8.364  66.471  1.00  0.00    -0.199 A  
HETATM   31  C   UNL     1     -11.013   7.409  67.243  1.00  0.00    -0.234 A  
HETATM   32  C   UNL     1     -10.322   6.679  68.221  1.00  0.00    -0.220 A  
ENDBRANCH  19  27
ENDBRANCH   2  15
TORSDOF 4
ENDMDL
MODEL      197
REMARK 921   NORMALIZED FREE ENERGY PREDICTED BY IDOCK:   -3.96 KCAL/MOL
REMARK 922        TOTAL FREE ENERGY PREDICTED BY IDOCK:   -5.76 KCAL/MOL
REMARK 923 INTER-LIGAND FREE ENERGY PREDICTED BY IDOCK:   -4.98 KCAL/MOL
REMARK 924 INTRA-LIGAND FREE ENERGY PREDICTED BY IDOCK:   -0.77 KCAL/MOL
REMARK 927      BINDING AFFINITY PREDICTED BY RF-SCORE:    0.00 PKD
ROOT
HETATM    1  C   UNL     1     -11.871  15.175  64.086  1.00  0.00    -0.164 C  
HETATM    2  C   UNL     1     -10.853  15.144  65.225  1.00  0.00    -0.400 C  
ENDROOT
BRANCH   2   3
HETATM    3  N   UNL     1      -9.706  16.015  65.007  1.00  0.00    -0.124 NA 
HETATM    4  H   UNL     1      -8.871  15.665  64.537  1.00  0.00     0.000 HD 
BRANCH   3   5
HETATM    5  C   UNL     1      -9.766  17.333  65.453  1.00  0.00     0.626 A  
HETATM    6  C   UNL     1      -8.763  19.377  66.151  1.00  0.00    -0.279 A  
HETATM    7  N   UNL     1      -9.909  20.041  66.345  1.00  0.00    -0.438 NA 
HETATM    8  C   UNL     1      -6.626  18.852  66.009  1.00  0.00    -0.232 A  
HETATM    9  H   UNL     1      -6.839  16.861  65.371  1.00  0.00     0.000 HD 
HETATM   10  N   UNL     1      -7.254  17.751  65.649  1.00  0.00    -0.480 NA 
HETATM   11  C   UNL     1     -10.962  19.247  66.069  1.00  0.00    -0.099 A  
HETATM   12  C   UNL     1      -8.597  18.068  65.733  1.00  0.00     0.379 A  
HETATM   13  N   UNL     1      -7.499  19.862  66.314  1.00  0.00    -0.285 NA 
HETATM   14  N   UNL     1     -10.958  17.964  65.643  1.00  0.00    -0.128 NA 
ENDBRANCH   3   5
ENDBRANCH   2   3
BRANCH   2  15
HETATM   15  C   UNL     1     -10.352  13.785  65.745  1.00  0.00    -0.307 C  
HETATM   16  O   UNL     1      -9.905  11.623  68.600  1.00  0.00    -0.203 OA 
HETATM   17  C   UNL     1      -9.833  12.987  64.792  1.00  0.00    -0.036 C  
HETATM   18  C   UNL     1      -9.191  11.723  65.092  1.00  0.00     0.062 A  
HETATM   19  N   UNL     1     -10.331  13.361  67.093  1.00  0.00    -0.245 N  
HETATM   20  C   UNL     1      -8.537  11.039  64.056  1.00  0.00     0.153 A  
HETATM   21  C   UNL     1      -9.837  12.064  67.453  1.00  0.00    -0.184 C  
HETATM   22  C   UNL     1      -9.206  11.217  66.394  1.00  0.00    -0.206 A  
HETATM   23 CL   UNL     1      -8.563   9.163  68.161  1.00  0.00    -0.128 Cl 
HETATM   24  C   UNL     1      -7.894   9.835  64.309  1.00  0.00    -0.134 A  
HETATM   25  C   UNL     1      -7.932   9.301  65.593  1.00  0.00    -0.103 A  
HETATM   26  C   UNL     1      -8.590   9.975  66.633  1.00  0.00    -0.125 A  
BRANCH  19  27
HETATM   27  C   UNL     1     -10.741  14.171  68.210  1.00  0.00    -0.249 A  
HETATM   28  C   UNL     1      -9.960  15.285  68.569  1.00  0.00    -0.222 A  
HETATM   29  C   UNL     1     -10.323  16.108  69.642  1.00  0.00    -0.271 A  
HETATM   30  C   UNL     1     -11.471  15.824  70.377  1.00  0.00    -0.380 A  
HETATM   31  C   UNL     1     -12.237  14.702  70.052  1.00  0.00    -0.385 A  
HETATM   32  C   UNL     1     -11.862  13.869  68.988  1.00  0.00    -0.397 A  
ENDBRANCH  19  27
ENDBRANCH   2  15
TORSDOF 4
ENDMDL
MODEL      198
REMARK 921   NORMALIZED FREE ENERGY PREDICTED BY IDOCK:   -3.94 KCAL/MOL
REMARK 922        TOTAL FREE ENERGY PREDICTED BY IDOCK:   -5.73 KCAL/MOL
REMARK 923 INTER-LIGAND FREE ENERGY PREDICTED BY IDOCK:   -6.01 KCAL/MOL
REMARK 924 INTRA-LIGAND FREE ENERGY PREDICTED BY IDOCK:    0.28 KCAL/MOL
REMARK 927      BINDING AFFINITY PREDICTED BY RF-SCORE:    0.00 PKD
ROOT
HETATM    1  C   UNL     1      -6.295  12.651  67.912  1.00  0.00    -0.111 C  
HETATM    2  C   UNL     1      -7.486  13.602  67.799  1.00  0.00    -0.168 C  
ENDROOT
BRANCH   2   3
HETATM    3  N   UNL     1      -8.055  13.981  69.086  1.00  0.00    -0.340 NA 
HETATM    4  H   UNL     1      -7.907  13.399  69.910  1.00  0.00     0.000 HD 
BRANCH   3   5
HETATM    5  C   UNL     1      -8.804  15.152  69.172  1.00  0.00    -0.221 A  
HETATM    6  C   UNL     1     -10.814  16.348  69.625  1.00  0.00    -0.346 A  
HETATM    7  N   UNL     1     -10.318  17.565  69.364  1.00  0.00    -0.204 NA 
HETATM    8  C   UNL     1     -12.156  14.692  70.185  1.00  0.00    -0.327 A  
HETATM    9  H   UNL     1     -10.806  13.102  69.935  1.00  0.00     0.000 HD 
HETATM   10  N   UNL     1     -11.015  14.100  69.902  1.00  0.00    -0.038 NA 
HETATM   11  C   UNL     1      -9.026  17.475  68.996  1.00  0.00    -0.039 A  
HETATM   12  C   UNL     1     -10.162  15.129  69.549  1.00  0.00    -0.233 A  
HETATM   13  N   UNL     1     -12.078  16.051  70.038  1.00  0.00    -0.222 NA 
HETATM   14  N   UNL     1      -8.258  16.367  68.889  1.00  0.00    -0.229 NA 
ENDBRANCH   3   5
ENDBRANCH   2   3
BRANCH   2  15
HETATM   15  C   UNL     1      -8.632  13.256  66.833  1.00  0.00    -0.105 C  
HETATM   16  O   UNL     1     -10.385  10.667  65.031  1.00  0.00    -0.310 OA 
HETATM   17  C   UNL     1      -9.348  14.321  66.423  1.00  0.00    -0.270 C  
HETATM   18  C   UNL     1     -10.384  14.227  65.415  1.00  0.00    -0.391 A  
HETATM   19  N   UNL     1      -8.930  11.976  66.312  1.00  0.00    -0.173 N  
HETATM   20  C   UNL     1     -10.963  15.412  64.934  1.00  0.00    -0.453 A  
HETATM   21  C   UNL     1     -10.032  11.781  65.415  1.00  0.00    -0.253 C  
HETATM   22  C   UNL     1     -10.775  12.980  64.920  1.00  0.00    -0.349 A  
HETATM   23 CL   UNL     1     -12.460  11.488  63.280  1.00  0.00    -0.312 Cl 
HETATM   24  C   UNL     1     -11.946  15.364  63.955  1.00  0.00     0.007 A  
HETATM   25  C   UNL     1     -12.370  14.127  63.479  1.00  0.00     0.151 A  
HETATM   26  C   UNL     1     -11.802  12.937  63.959  1.00  0.00    -0.443 A  
BRANCH  19  27
HETATM   27  C   UNL     1      -8.163  10.788  66.577  1.00  0.00    -0.148 A  
HETATM   28  C   UNL     1      -7.194  10.377  65.643  1.00  0.00    -0.146 A  
HETATM   29  C   UNL     1      -6.417   9.234  65.861  1.00  0.00    -0.071 A  
HETATM   30  C   UNL     1      -6.602   8.478  67.016  1.00  0.00    -0.058 A  
HETATM   31  C   UNL     1      -7.583   8.856  67.936  1.00  0.00    -0.093 A  
HETATM   32  C   UNL     1      -8.373   9.992  67.707  1.00  0.00    -0.114 A  
ENDBRANCH  19  27
ENDBRANCH   2  15
TORSDOF 4
ENDMDL
MODEL      199
REMARK 921   NORMALIZED FREE ENERGY PREDICTED BY IDOCK:   -3.84 KCAL/MOL
REMARK 922        TOTAL FREE ENERGY PREDICTED BY IDOCK:   -5.61 KCAL/MOL
REMARK 923 INTER-LIGAND FREE ENERGY PREDICTED BY IDOCK:   -5.82 KCAL/MOL
REMARK 924 INTRA-LIGAND FREE ENERGY PREDICTED BY IDOCK:    0.20 KCAL/MOL
REMARK 927      BINDING AFFINITY PREDICTED BY RF-SCORE:    0.00 PKD
ROOT
HETATM    1  C   UNL     1      -8.370  15.167  69.015  1.00  0.00    -0.209 C  
HETATM    2  C   UNL     1      -7.692  14.479  67.832  1.00  0.00    -0.140 C  
ENDROOT
BRANCH   2   3
HETATM    3  N   UNL     1      -7.668  15.287  66.620  1.00  0.00    -0.232 NA 
HETATM    4  H   UNL     1      -7.083  15.018  65.829  1.00  0.00     0.000 HD 
BRANCH   3   5
HETATM    5  C   UNL     1      -8.455  16.434  66.559  1.00  0.00    -0.301 A  
HETATM    6  C   UNL     1      -8.915  18.713  67.076  1.00  0.00    -0.285 A  
HETATM    7  N   UNL     1     -10.072  18.782  66.405  1.00  0.00    -0.382 NA 
HETATM    8  C   UNL     1      -7.150  19.219  68.295  1.00  0.00    -0.280 A  
HETATM    9  H   UNL     1      -6.194  17.349  68.246  1.00  0.00     0.000 HD 
HETATM   10  N   UNL     1      -6.973  17.953  67.981  1.00  0.00    -0.198 NA 
HETATM   11  C   UNL     1     -10.354  17.594  65.834  1.00  0.00    -0.257 A  
HETATM   12  C   UNL     1      -8.074  17.622  67.214  1.00  0.00    -0.209 A  
HETATM   13  N   UNL     1      -8.308  19.721  67.763  1.00  0.00    -0.302 NA 
HETATM   14  N   UNL     1      -9.629  16.453  65.869  1.00  0.00    -0.455 NA 
ENDBRANCH   3   5
ENDBRANCH   2   3
BRANCH   2  15
HETATM   15  C   UNL     1      -8.107  13.044  67.462  1.00  0.00    -0.179 C  
HETATM   16  O   UNL     1     -10.780  10.626  67.282  1.00  0.00    -0.251 OA 
HETATM   17  C   UNL     1      -7.100  12.281  66.996  1.00  0.00    -0.040 C  
HETATM   18  C   UNL     1      -7.252  10.868  66.715  1.00  0.00    -0.134 A  
HETATM   19  N   UNL     1      -9.389  12.473  67.634  1.00  0.00    -0.183 N  
HETATM   20  C   UNL     1      -6.110  10.120  66.390  1.00  0.00    -0.070 A  
HETATM   21  C   UNL     1      -9.653  11.117  67.248  1.00  0.00    -0.165 C  
HETATM   22  C   UNL     1      -8.511  10.266  66.793  1.00  0.00    -0.123 A  
HETATM   23 CL   UNL     1     -10.092   7.996  66.469  1.00  0.00    -0.312 Cl 
HETATM   24  C   UNL     1      -6.213   8.760  66.132  1.00  0.00    -0.059 A  
HETATM   25  C   UNL     1      -7.465   8.155  66.171  1.00  0.00    -0.078 A  
HETATM   26  C   UNL     1      -8.614   8.896  66.489  1.00  0.00    -0.124 A  
BRANCH  19  27
HETATM   27  C   UNL     1     -10.509  13.147  68.236  1.00  0.00    -0.250 A  
HETATM   28  C   UNL     1     -10.977  12.711  69.489  1.00  0.00     0.046 A  
HETATM   29  C   UNL     1     -12.057  13.341  70.118  1.00  0.00    -0.403 A  
HETATM   30  C   UNL     1     -12.691  14.415  69.499  1.00  0.00     0.138 A  
HETATM   31  C   UNL     1     -12.258  14.837  68.240  1.00  0.00    -0.065 A  
HETATM   32  C   UNL     1     -11.187  14.193  67.603  1.00  0.00    -0.315 A  
ENDBRANCH  19  27
ENDBRANCH   2  15
TORSDOF 4
ENDMDL
MODEL      200
REMARK 921   NORMALIZED FREE ENERGY PREDICTED BY IDOCK:   -3.80 KCAL/MOL
REMARK 922        TOTAL FREE ENERGY PREDICTED BY IDOCK:   -5.56 KCAL/MOL
REMARK 923 INTER-LIGAND FREE ENERGY PREDICTED BY IDOCK:   -4.59 KCAL/MOL
REMARK 924 INTRA-LIGAND FREE ENERGY PREDICTED BY IDOCK:   -0.98 KCAL/MOL
REMARK 927      BINDING AFFINITY PREDICTED BY RF-SCORE:    0.00 PKD
ROOT
HETATM    1  C   UNL     1      -6.659   8.688  67.578  1.00  0.00    -0.058 C  
HETATM    2  C   UNL     1      -7.688   7.565  67.464  1.00  0.00    -0.118 C  
ENDROOT
BRANCH   2   3
HETATM    3  N   UNL     1      -8.535   7.665  66.283  1.00  0.00    -0.131 NA 
HETATM    4  H   UNL     1      -9.485   7.293  66.293  1.00  0.00     0.000 HD 
BRANCH   3   5
HETATM    5  C   UNL     1      -8.028   8.278  65.139  1.00  0.00    -0.128 A  
HETATM    6  C   UNL     1      -6.698   8.296  63.164  1.00  0.00    -0.085 A  
HETATM    7  N   UNL     1      -7.015   9.541  62.788  1.00  0.00    -0.096 NA 
HETATM    8  C   UNL     1      -5.835   6.268  63.234  1.00  0.00    -0.022 A  
HETATM    9  H   UNL     1      -6.721   5.618  65.025  1.00  0.00     0.000 HD 
HETATM   10  N   UNL     1      -6.580   6.340  64.317  1.00  0.00    -0.033 NA 
HETATM   11  C   UNL     1      -7.860  10.098  63.678  1.00  0.00    -0.154 A  
HETATM   12  C   UNL     1      -7.129   7.608  64.285  1.00  0.00    -0.067 A  
HETATM   13  N   UNL     1      -5.882   7.425  62.504  1.00  0.00    -0.049 NA 
HETATM   14  N   UNL     1      -8.375   9.551  64.803  1.00  0.00    -0.140 NA 
ENDBRANCH   3   5
ENDBRANCH   2   3
BRANCH   2  15
HETATM   15  C   UNL     1      -8.571   7.231  68.679  1.00  0.00    -0.128 C  
HETATM   16  O   UNL     1      -9.887   4.656  70.839  1.00  0.00    -0.177 OA 
HETATM   17  C   UNL     1      -9.151   8.303  69.251  1.00  0.00    -0.151 C  
HETATM   18  C   UNL     1     -10.119   8.192  70.323  1.00  0.00    -0.192 A  
HETATM   19  N   UNL     1      -8.862   5.938  69.172  1.00  0.00    -0.117 N  
HETATM   20  C   UNL     1     -10.790   9.350  70.745  1.00  0.00    -0.372 A  
HETATM   21  C   UNL     1      -9.702   5.756  70.320  1.00  0.00    -0.175 C  
HETATM   22  C   UNL     1     -10.389   6.950  70.902  1.00  0.00    -0.218 A  
HETATM   23 CL   UNL     1     -11.733   5.462  72.835  1.00  0.00    -0.312 Cl 
HETATM   24  C   UNL     1     -11.738   9.281  71.757  1.00  0.00    -0.456 A  
HETATM   25  C   UNL     1     -11.991   8.056  72.368  1.00  0.00    -0.405 A  
HETATM   26  C   UNL     1     -11.319   6.894  71.957  1.00  0.00    -0.265 A  
BRANCH  19  27
HETATM   27  C   UNL     1      -8.404   4.713  68.571  1.00  0.00    -0.086 A  
HETATM   28  C   UNL     1      -7.132   4.217  68.914  1.00  0.00    -0.051 A  
HETATM   29  C   UNL     1      -6.647   3.025  68.364  1.00  0.00    -0.036 A  
HETATM   30  C   UNL     1      -7.426   2.312  67.456  1.00  0.00    -0.056 A  
HETATM   31  C   UNL     1      -8.677   2.810  67.082  1.00  0.00    -0.137 A  
HETATM   32  C   UNL     1      -9.153   4.014  67.621  1.00  0.00    -0.172 A  
ENDBRANCH  19  27
ENDBRANCH   2  15
TORSDOF 4
ENDMDL
MODEL      201
REMARK 921   NORMALIZED FREE ENERGY PREDICTED BY IDOCK:   -3.73 KCAL/MOL
REMARK 922        TOTAL FREE ENERGY PREDICTED BY IDOCK:   -5.48 KCAL/MOL
REMARK 923 INTER-LIGAND FREE ENERGY PREDICTED BY IDOCK:   -5.62 KCAL/MOL
REMARK 924 INTRA-LIGAND FREE ENERGY PREDICTED BY IDOCK:    0.14 KCAL/MOL
REMARK 927      BINDING AFFINITY PREDICTED BY RF-SCORE:    0.00 PKD
ROOT
HETATM    1  C   UNL     1      -9.076  15.933  65.716  1.00  0.00    -0.188 C  
HETATM    2  C   UNL     1      -9.870  15.339  66.878  1.00  0.00    -0.235 C  
ENDROOT
BRANCH   2   3
HETATM    3  N   UNL     1     -10.047  16.258  67.995  1.00  0.00    -0.240 NA 
HETATM    4  H   UNL     1     -10.581  15.977  68.817  1.00  0.00     0.000 HD 
BRANCH   3   5
HETATM    5  C   UNL     1      -9.476  17.526  67.922  1.00  0.00    -0.277 A  
HETATM    6  C   UNL     1      -9.311  19.721  67.014  1.00  0.00    -0.355 A  
HETATM    7  N   UNL     1      -8.307  20.127  67.802  1.00  0.00    -0.288 NA 
HETATM    8  C   UNL     1     -10.910  19.657  65.499  1.00  0.00    -0.163 A  
HETATM    9  H   UNL     1     -11.547  17.678  65.805  1.00  0.00     0.000 HD 
HETATM   10  N   UNL     1     -10.930  18.457  66.039  1.00  0.00     0.047 NA 
HETATM   11  C   UNL     1      -7.935  19.136  68.635  1.00  0.00    -0.363 A  
HETATM   12  C   UNL     1      -9.931  18.484  66.994  1.00  0.00    -0.344 A  
HETATM   13  N   UNL     1      -9.952  20.457  66.062  1.00  0.00    -0.267 NA 
HETATM   14  N   UNL     1      -8.450  17.890  68.740  1.00  0.00    -0.253 NA 
ENDBRANCH   3   5
ENDBRANCH   2   3
BRANCH   2  15
HETATM   15  C   UNL     1      -9.473  13.959  67.429  1.00  0.00    -0.226 C  
HETATM   16  O   UNL     1      -7.045  12.029  69.274  1.00  0.00    -0.075 OA 
HETATM   17  C   UNL     1     -10.353  12.978  67.148  1.00  0.00    -0.243 C  
HETATM   18  C   UNL     1     -10.103  11.586  67.463  1.00  0.00    -0.203 A  
HETATM   19  N   UNL     1      -8.277  13.644  68.114  1.00  0.00    -0.149 N  
HETATM   20  C   UNL     1     -10.999  10.618  66.988  1.00  0.00    -0.274 A  
HETATM   21  C   UNL     1      -8.021  12.312  68.582  1.00  0.00    -0.050 C  
HETATM   22  C   UNL     1      -8.976  11.224  68.206  1.00  0.00    -0.172 A  
HETATM   23 CL   UNL     1      -7.490   9.234  69.466  1.00  0.00    -0.075 Cl 
HETATM   24  C   UNL     1     -10.784   9.273  67.253  1.00  0.00    -0.244 A  
HETATM   25  C   UNL     1      -9.685   8.900  68.022  1.00  0.00    -0.181 A  
HETATM   26  C   UNL     1      -8.787   9.863  68.508  1.00  0.00    -0.122 A  
BRANCH  19  27
HETATM   27  C   UNL     1      -7.209  14.576  68.363  1.00  0.00    -0.116 A  
HETATM   28  C   UNL     1      -7.009  15.052  69.672  1.00  0.00    -0.191 A  
HETATM   29  C   UNL     1      -5.978  15.951  69.965  1.00  0.00    -0.156 A  
HETATM   30  C   UNL     1      -5.133  16.394  68.950  1.00  0.00    -0.109 A  
HETATM   31  C   UNL     1      -5.341  15.954  67.641  1.00  0.00    -0.135 A  
HETATM   32  C   UNL     1      -6.386  15.067  67.346  1.00  0.00     0.027 A  
ENDBRANCH  19  27
ENDBRANCH   2  15
TORSDOF 4
ENDMDL
MODEL      202
REMARK 921   NORMALIZED FREE ENERGY PREDICTED BY IDOCK:   -3.68 KCAL/MOL
REMARK 922        TOTAL FREE ENERGY PREDICTED BY IDOCK:   -5.41 KCAL/MOL
REMARK 923 INTER-LIGAND FREE ENERGY PREDICTED BY IDOCK:   -4.57 KCAL/MOL
REMARK 924 INTRA-LIGAND FREE ENERGY PREDICTED BY IDOCK:   -0.84 KCAL/MOL
REMARK 927      BINDING AFFINITY PREDICTED BY RF-SCORE:    0.00 PKD
ROOT
HETATM    1  C   UNL     1     -10.907  10.108  68.438  1.00  0.00    -0.284 C  
HETATM    2  C   UNL     1      -9.508  10.276  67.847  1.00  0.00    -0.141 C  
ENDROOT
BRANCH   2   3
HETATM    3  N   UNL     1      -9.282  11.582  67.240  1.00  0.00    -0.165 NA 
HETATM    4  H   UNL     1      -9.777  11.850  66.390  1.00  0.00     0.000 HD 
BRANCH   3   5
HETATM    5  C   UNL     1      -8.380  12.457  67.840  1.00  0.00    -0.165 A  
HETATM    6  C   UNL     1      -7.798  14.543  68.830  1.00  0.00    -0.145 A  
HETATM    7  N   UNL     1      -6.522  14.229  69.088  1.00  0.00    -0.103 NA 
HETATM    8  C   UNL     1      -9.722  15.611  68.690  1.00  0.00    -0.204 A  
HETATM    9  H   UNL     1     -10.842  14.107  67.743  1.00  0.00     0.000 HD 
HETATM   10  N   UNL     1      -9.963  14.439  68.141  1.00  0.00    -0.218 NA 
HETATM   11  C   UNL     1      -6.254  12.977  68.667  1.00  0.00    -0.079 A  
HETATM   12  C   UNL     1      -8.763  13.758  68.224  1.00  0.00    -0.179 A  
HETATM   13  N   UNL     1      -8.428  15.715  69.127  1.00  0.00    -0.237 NA 
HETATM   14  N   UNL     1      -7.089  12.093  68.075  1.00  0.00    -0.087 NA 
ENDBRANCH   3   5
ENDBRANCH   2   3
BRANCH   2  15
HETATM   15  C   UNL     1      -8.956   9.191  66.906  1.00  0.00    -0.123 C  
HETATM   16  O   UNL     1      -8.365   5.670  66.376  1.00  0.00    -0.109 OA 
HETATM   17  C   UNL     1      -8.447   9.667  65.753  1.00  0.00    -0.142 C  
HETATM   18  C   UNL     1      -7.763   8.826  64.792  1.00  0.00    -0.113 A  
HETATM   19  N   UNL     1      -8.882   7.806  67.179  1.00  0.00    -0.123 N  
HETATM   20  C   UNL     1      -7.124   9.434  63.701  1.00  0.00    -0.101 A  
HETATM   21  C   UNL     1      -8.344   6.890  66.215  1.00  0.00    -0.126 C  
HETATM   22  C   UNL     1      -7.725   7.440  64.970  1.00  0.00    -0.114 A  
HETATM   23 CL   UNL     1      -6.975   4.934  64.015  1.00  0.00    -0.048 Cl 
HETATM   24  C   UNL     1      -6.443   8.663  62.769  1.00  0.00    -0.091 A  
HETATM   25  C   UNL     1      -6.428   7.280  62.914  1.00  0.00    -0.053 A  
HETATM   26  C   UNL     1      -7.070   6.662  63.998  1.00  0.00    -0.051 A  
BRANCH  19  27
HETATM   27  C   UNL     1      -9.277   7.196  68.421  1.00  0.00    -0.133 A  
HETATM   28  C   UNL     1     -10.528   6.557  68.501  1.00  0.00    -0.257 A  
HETATM   29  C   UNL     1     -10.953   5.941  69.684  1.00  0.00    -0.447 A  
HETATM   30  C   UNL     1     -10.133   5.961  70.809  1.00  0.00    -0.253 A  
HETATM   31  C   UNL     1      -8.902   6.619  70.754  1.00  0.00    -0.147 A  
HETATM   32  C   UNL     1      -8.486   7.251  69.573  1.00  0.00    -0.133 A  
ENDBRANCH  19  27
ENDBRANCH   2  15
TORSDOF 4
ENDMDL
MODEL      203
REMARK 921   NORMALIZED FREE ENERGY PREDICTED BY IDOCK:   -3.64 KCAL/MOL
REMARK 922        TOTAL FREE ENERGY PREDICTED BY IDOCK:   -5.36 KCAL/MOL
REMARK 923 INTER-LIGAND FREE ENERGY PREDICTED BY IDOCK:   -5.12 KCAL/MOL
REMARK 924 INTRA-LIGAND FREE ENERGY PREDICTED BY IDOCK:   -0.24 KCAL/MOL
REMARK 927      BINDING AFFINITY PREDICTED BY RF-SCORE:    0.00 PKD
ROOT
HETATM    1  C   UNL     1      -9.830  12.457  68.556  1.00  0.00    -0.156 C  
HETATM    2  C   UNL     1      -8.468  11.968  68.068  1.00  0.00    -0.168 C  
ENDROOT
BRANCH   2   3
HETATM    3  N   UNL     1      -7.774  12.925  67.216  1.00  0.00    -0.300 NA 
HETATM    4  H   UNL     1      -7.027  12.618  66.594  1.00  0.00     0.000 HD 
BRANCH   3   5
HETATM    5  C   UNL     1      -8.147  14.266  67.265  1.00  0.00    -0.178 A  
HETATM    6  C   UNL     1      -8.000  16.471  68.154  1.00  0.00    -0.163 A  
HETATM    7  N   UNL     1      -8.909  17.016  67.336  1.00  0.00    -0.202 NA 
HETATM    8  C   UNL     1      -6.468  16.180  69.712  1.00  0.00    -0.159 A  
HETATM    9  H   UNL     1      -6.133  14.124  69.437  1.00  0.00     0.000 HD 
HETATM   10  N   UNL     1      -6.618  14.985  69.180  1.00  0.00    -0.112 NA 
HETATM   11  C   UNL     1      -9.406  16.084  66.500  1.00  0.00    -0.268 A  
HETATM   12  C   UNL     1      -7.576  15.154  68.199  1.00  0.00    -0.112 A  
HETATM   13  N   UNL     1      -7.279  17.110  69.118  1.00  0.00    -0.232 NA 
HETATM   14  N   UNL     1      -9.085  14.773  66.417  1.00  0.00    -0.262 NA 
ENDBRANCH   3   5
ENDBRANCH   2   3
BRANCH   2  15
HETATM   15  C   UNL     1      -8.357  10.570  67.434  1.00  0.00    -0.121 C  
HETATM   16  O   UNL     1      -9.223   8.436  64.656  1.00  0.00     0.340 OA 
HETATM   17  C   UNL     1      -7.650   9.688  68.166  1.00  0.00    -0.082 C  
HETATM   18  C   UNL     1      -7.536   8.288  67.811  1.00  0.00    -0.102 A  
HETATM   19  N   UNL     1      -8.974  10.143  66.236  1.00  0.00    -0.146 N  
HETATM   20  C   UNL     1      -6.917   7.413  68.717  1.00  0.00    -0.078 A  
HETATM   21  C   UNL     1      -8.793   8.807  65.747  1.00  0.00    -0.195 C  
HETATM   22  C   UNL     1      -8.059   7.823  66.601  1.00  0.00    -0.111 A  
HETATM   23 CL   UNL     1      -8.427   5.718  64.815  1.00  0.00    -0.117 Cl 
HETATM   24  C   UNL     1      -6.806   6.061  68.421  1.00  0.00    -0.074 A  
HETATM   25  C   UNL     1      -7.290   5.591  67.204  1.00  0.00    -0.080 A  
HETATM   26  C   UNL     1      -7.904   6.460  66.289  1.00  0.00    -0.101 A  
BRANCH  19  27
HETATM   27  C   UNL     1      -9.852  10.954  65.435  1.00  0.00    -0.255 A  
HETATM   28  C   UNL     1      -9.430  11.362  64.157  1.00  0.00    -0.155 A  
HETATM   29  C   UNL     1     -10.253  12.143  63.337  1.00  0.00    -0.422 A  
HETATM   30  C   UNL     1     -11.511  12.534  63.788  1.00  0.00    -0.542 A  
HETATM   31  C   UNL     1     -11.930  12.164  65.068  1.00  0.00    -0.343 A  
HETATM   32  C   UNL     1     -11.096  11.396  65.895  1.00  0.00    -0.225 A  
ENDBRANCH  19  27
ENDBRANCH   2  15
TORSDOF 4
ENDMDL
MODEL      204
REMARK 921   NORMALIZED FREE ENERGY PREDICTED BY IDOCK:   -3.62 KCAL/MOL
REMARK 922        TOTAL FREE ENERGY PREDICTED BY IDOCK:   -5.34 KCAL/MOL
REMARK 923 INTER-LIGAND FREE ENERGY PREDICTED BY IDOCK:   -4.45 KCAL/MOL
REMARK 924 INTRA-LIGAND FREE ENERGY PREDICTED BY IDOCK:   -0.88 KCAL/MOL
REMARK 927      BINDING AFFINITY PREDICTED BY RF-SCORE:    0.00 PKD
ROOT
HETATM    1  C   UNL     1      -7.078   7.341  71.204  1.00  0.00    -0.061 C  
HETATM    2  C   UNL     1      -7.404   8.092  69.914  1.00  0.00    -0.065 C  
ENDROOT
BRANCH   2   3
HETATM    3  N   UNL     1      -8.088   9.360  70.132  1.00  0.00    -0.138 NA 
HETATM    4  H   UNL     1      -8.746   9.468  70.904  1.00  0.00     0.000 HD 
BRANCH   3   5
HETATM    5  C   UNL     1      -7.829  10.422  69.270  1.00  0.00    -0.147 A  
HETATM    6  C   UNL     1      -6.709  12.439  68.676  1.00  0.00    -0.083 A  
HETATM    7  N   UNL     1      -7.295  12.581  67.480  1.00  0.00    -0.139 NA 
HETATM    8  C   UNL     1      -5.444  12.742  70.455  1.00  0.00    -0.159 A  
HETATM    9  H   UNL     1      -6.056  11.062  71.559  1.00  0.00     0.000 HD 
HETATM   10  N   UNL     1      -6.113  11.639  70.720  1.00  0.00    -0.310 NA 
HETATM   11  C   UNL     1      -8.164  11.575  67.261  1.00  0.00    -0.155 A  
HETATM   12  C   UNL     1      -6.911  11.437  69.609  1.00  0.00    -0.020 A  
HETATM   13  N   UNL     1      -5.767  13.255  69.227  1.00  0.00    -0.079 NA 
HETATM   14  N   UNL     1      -8.456  10.528  68.066  1.00  0.00    -0.118 NA 
ENDBRANCH   3   5
ENDBRANCH   2   3
BRANCH   2  15
HETATM   15  C   UNL     1      -8.103   7.343  68.767  1.00  0.00    -0.128 C  
HETATM   16  O   UNL     1     -11.201   6.021  67.470  1.00  0.00    -0.229 OA 
HETATM   17  C   UNL     1      -7.281   6.975  67.766  1.00  0.00    -0.091 C  
HETATM   18  C   UNL     1      -7.715   6.149  66.657  1.00  0.00    -0.103 A  
HETATM   19  N   UNL     1      -9.465   6.966  68.722  1.00  0.00    -0.136 N  
HETATM   20  C   UNL     1      -6.753   5.683  65.749  1.00  0.00    -0.055 A  
HETATM   21  C   UNL     1     -10.002   6.266  67.590  1.00  0.00    -0.131 C  
HETATM   22  C   UNL     1      -9.064   5.810  66.518  1.00  0.00    -0.144 A  
HETATM   23 CL   UNL     1     -11.067   4.561  65.041  1.00  0.00    -0.114 Cl 
HETATM   24  C   UNL     1      -7.128   4.874  64.685  1.00  0.00    -0.054 A  
HETATM   25  C   UNL     1      -8.472   4.558  64.513  1.00  0.00    -0.128 A  
HETATM   26  C   UNL     1      -9.442   5.026  65.413  1.00  0.00    -0.085 A  
BRANCH  19  27
HETATM   27  C   UNL     1     -10.411   7.191  69.783  1.00  0.00    -0.214 A  
HETATM   28  C   UNL     1     -10.660   6.159  70.706  1.00  0.00    -0.299 A  
HETATM   29  C   UNL     1     -11.564   6.334  71.761  1.00  0.00    -0.358 A  
HETATM   30  C   UNL     1     -12.238   7.544  71.903  1.00  0.00    -0.339 A  
HETATM   31  C   UNL     1     -12.025   8.565  70.975  1.00  0.00    -0.260 A  
HETATM   32  C   UNL     1     -11.132   8.381  69.909  1.00  0.00    -0.109 A  
ENDBRANCH  19  27
ENDBRANCH   2  15
TORSDOF 4
ENDMDL
MODEL      205
REMARK 921   NORMALIZED FREE ENERGY PREDICTED BY IDOCK:   -3.60 KCAL/MOL
REMARK 922        TOTAL FREE ENERGY PREDICTED BY IDOCK:   -5.32 KCAL/MOL
REMARK 923 INTER-LIGAND FREE ENERGY PREDICTED BY IDOCK:   -6.52 KCAL/MOL
REMARK 924 INTRA-LIGAND FREE ENERGY PREDICTED BY IDOCK:    1.20 KCAL/MOL
REMARK 927      BINDING AFFINITY PREDICTED BY RF-SCORE:    0.00 PKD
ROOT
HETATM    1  C   UNL     1     -10.725   8.490  67.757  1.00  0.00    -0.170 C  
HETATM    2  C   UNL     1      -9.879   9.406  68.640  1.00  0.00    -0.163 C  
ENDROOT
BRANCH   2   3
HETATM    3  N   UNL     1      -9.287   8.729  69.786  1.00  0.00    -0.160 NA 
HETATM    4  H   UNL     1      -8.744   9.252  70.473  1.00  0.00     0.000 HD 
BRANCH   3   5
HETATM    5  C   UNL     1      -9.475   7.357  69.931  1.00  0.00    -0.153 A  
HETATM    6  C   UNL     1      -9.309   5.316  71.147  1.00  0.00    -0.151 A  
HETATM    7  N   UNL     1      -9.889   4.547  70.217  1.00  0.00    -0.220 NA 
HETATM    8  C   UNL     1      -8.334   6.021  72.994  1.00  0.00    -0.116 A  
HETATM    9  H   UNL     1      -8.148   8.052  72.490  1.00  0.00     0.000 HD 
HETATM   10  N   UNL     1      -8.447   7.105  72.255  1.00  0.00    -0.116 NA 
HETATM   11  C   UNL     1     -10.231   5.287  69.144  1.00  0.00    -0.210 A  
HETATM   12  C   UNL     1      -9.059   6.676  71.092  1.00  0.00    -0.152 A  
HETATM   13  N   UNL     1      -8.849   4.918  72.367  1.00  0.00    -0.123 NA 
HETATM   14  N   UNL     1     -10.064   6.615  68.952  1.00  0.00    -0.159 NA 
ENDBRANCH   3   5
ENDBRANCH   2   3
BRANCH   2  15
HETATM   15  C   UNL     1     -10.468  10.748  69.106  1.00  0.00    -0.218 C  
HETATM   16  O   UNL     1     -12.721  12.437  71.365  1.00  0.00    -0.348 OA 
HETATM   17  C   UNL     1     -10.001  11.819  68.434  1.00  0.00    -0.202 C  
HETATM   18  C   UNL     1     -10.522  13.156  68.630  1.00  0.00    -0.242 A  
HETATM   19  N   UNL     1     -11.467  10.928  70.090  1.00  0.00    -0.313 N  
HETATM   20  C   UNL     1     -10.090  14.179  67.772  1.00  0.00    -0.239 A  
HETATM   21  C   UNL     1     -11.935  12.238  70.439  1.00  0.00    -0.263 C  
HETATM   22  C   UNL     1     -11.454  13.407  69.641  1.00  0.00    -0.274 A  
HETATM   23 CL   UNL     1     -13.016  15.239  71.041  1.00  0.00    -0.484 Cl 
HETATM   24  C   UNL     1     -10.580  15.469  67.917  1.00  0.00    -0.274 A  
HETATM   25  C   UNL     1     -11.482  15.742  68.941  1.00  0.00    -0.381 A  
HETATM   26  C   UNL     1     -11.914  14.727  69.809  1.00  0.00    -0.321 A  
BRANCH  19  27
HETATM   27  C   UNL     1     -12.130   9.856  70.786  1.00  0.00    -0.308 A  
HETATM   28  C   UNL     1     -13.463   9.549  70.456  1.00  0.00     0.318 A  
HETATM   29  C   UNL     1     -14.146   8.510  71.098  1.00  0.00    -0.151 A  
HETATM   30  C   UNL     1     -13.507   7.765  72.086  1.00  0.00    -0.138 A  
HETATM   31  C   UNL     1     -12.195   8.081  72.446  1.00  0.00    -0.337 A  
HETATM   32  C   UNL     1     -11.518   9.134  71.814  1.00  0.00    -0.452 A  
ENDBRANCH  19  27
ENDBRANCH   2  15
TORSDOF 4
ENDMDL
MODEL      206
REMARK 921   NORMALIZED FREE ENERGY PREDICTED BY IDOCK:   -3.54 KCAL/MOL
REMARK 922        TOTAL FREE ENERGY PREDICTED BY IDOCK:   -5.25 KCAL/MOL
REMARK 923 INTER-LIGAND FREE ENERGY PREDICTED BY IDOCK:   -3.94 KCAL/MOL
REMARK 924 INTRA-LIGAND FREE ENERGY PREDICTED BY IDOCK:   -1.31 KCAL/MOL
REMARK 927      BINDING AFFINITY PREDICTED BY RF-SCORE:    0.00 PKD
ROOT
HETATM    1  C   UNL     1      -5.597   6.374  65.497  1.00  0.00    -0.018 C  
HETATM    2  C   UNL     1      -6.936   6.824  66.079  1.00  0.00    -0.065 C  
ENDROOT
BRANCH   2   3
HETATM    3  N   UNL     1      -7.006   8.255  66.346  1.00  0.00    -0.066 NA 
HETATM    4  H   UNL     1      -6.276   8.718  66.886  1.00  0.00     0.000 HD 
BRANCH   3   5
HETATM    5  C   UNL     1      -8.088   8.980  65.851  1.00  0.00    -0.108 A  
HETATM    6  C   UNL     1      -9.226  10.168  64.130  1.00  0.00    -0.270 A  
HETATM    7  N   UNL     1     -10.322  10.446  64.847  1.00  0.00    -0.263 NA 
HETATM    8  C   UNL     1      -7.756  10.024  62.493  1.00  0.00    -0.128 A  
HETATM    9  H   UNL     1      -6.267   8.946  63.510  1.00  0.00     0.000 HD 
HETATM   10  N   UNL     1      -7.183   9.395  63.498  1.00  0.00    -0.098 NA 
HETATM   11  C   UNL     1     -10.205   9.946  66.093  1.00  0.00    -0.207 A  
HETATM   12  C   UNL     1      -8.097   9.477  64.532  1.00  0.00    -0.142 A  
HETATM   13  N   UNL     1      -8.995  10.501  62.828  1.00  0.00    -0.234 NA 
HETATM   14  N   UNL     1      -9.178   9.244  66.623  1.00  0.00    -0.141 NA 
ENDBRANCH   3   5
ENDBRANCH   2   3
BRANCH   2  15
HETATM   15  C   UNL     1      -7.523   6.066  67.283  1.00  0.00    -0.081 C  
HETATM   16  O   UNL     1      -9.370   3.186  68.429  1.00  0.00    -0.174 OA 
HETATM   17  C   UNL     1      -7.306   6.665  68.470  1.00  0.00    -0.087 C  
HETATM   18  C   UNL     1      -7.885   6.183  69.708  1.00  0.00    -0.106 A  
HETATM   19  N   UNL     1      -8.297   4.885  67.232  1.00  0.00    -0.106 N  
HETATM   20  C   UNL     1      -7.737   6.961  70.866  1.00  0.00    -0.092 A  
HETATM   21  C   UNL     1      -8.789   4.270  68.431  1.00  0.00    -0.107 C  
HETATM   22  C   UNL     1      -8.594   4.980  69.732  1.00  0.00    -0.100 A  
HETATM   23 CL   UNL     1      -9.967   3.051  71.199  1.00  0.00    -0.103 Cl 
HETATM   24  C   UNL     1      -8.294   6.543  72.067  1.00  0.00    -0.107 A  
HETATM   25  C   UNL     1      -8.972   5.329  72.114  1.00  0.00    -0.138 A  
HETATM   26  C   UNL     1      -9.118   4.541  70.962  1.00  0.00    -0.132 A  
BRANCH  19  27
HETATM   27  C   UNL     1      -8.699   4.224  66.018  1.00  0.00    -0.114 A  
HETATM   28  C   UNL     1      -9.978   4.483  65.490  1.00  0.00    -0.230 A  
HETATM   29  C   UNL     1     -10.411   3.873  64.308  1.00  0.00    -0.245 A  
HETATM   30  C   UNL     1      -9.572   2.986  63.637  1.00  0.00    -0.115 A  
HETATM   31  C   UNL     1      -8.313   2.694  64.168  1.00  0.00    -0.083 A  
HETATM   32  C   UNL     1      -7.888   3.294  65.362  1.00  0.00    -0.082 A  
ENDBRANCH  19  27
ENDBRANCH   2  15
TORSDOF 4
ENDMDL
MODEL      207
REMARK 921   NORMALIZED FREE ENERGY PREDICTED BY IDOCK:   -3.52 KCAL/MOL
REMARK 922        TOTAL FREE ENERGY PREDICTED BY IDOCK:   -5.21 KCAL/MOL
REMARK 923 INTER-LIGAND FREE ENERGY PREDICTED BY IDOCK:   -5.34 KCAL/MOL
REMARK 924 INTRA-LIGAND FREE ENERGY PREDICTED BY IDOCK:    0.13 KCAL/MOL
REMARK 927      BINDING AFFINITY PREDICTED BY RF-SCORE:    0.00 PKD
ROOT
HETATM    1  C   UNL     1     -11.079   9.533  66.267  1.00  0.00     0.897 C  
HETATM    2  C   UNL     1     -11.080  10.157  67.661  1.00  0.00    -0.206 C  
ENDROOT
BRANCH   2   3
HETATM    3  N   UNL     1     -11.891  11.363  67.761  1.00  0.00    -0.630 NA 
HETATM    4  H   UNL     1     -12.279  11.798  66.924  1.00  0.00     0.000 HD 
BRANCH   3   5
HETATM    5  C   UNL     1     -12.129  11.913  69.019  1.00  0.00    -0.186 A  
HETATM    6  C   UNL     1     -12.840  11.773  71.287  1.00  0.00    -0.308 A  
HETATM    7  N   UNL     1     -12.589  13.051  71.596  1.00  0.00    -0.188 NA 
HETATM    8  C   UNL     1     -13.427   9.651  71.400  1.00  0.00    -0.329 A  
HETATM    9  H   UNL     1     -13.007   9.108  69.414  1.00  0.00     0.000 HD 
HETATM   10  N   UNL     1     -13.032   9.810  70.154  1.00  0.00     0.321 NA 
HETATM   11  C   UNL     1     -12.105  13.706  70.522  1.00  0.00    -0.339 A  
HETATM   12  C   UNL     1     -12.660  11.139  70.070  1.00  0.00    -0.147 A  
HETATM   13  N   UNL     1     -13.321  10.809  72.123  1.00  0.00    -0.356 NA 
HETATM   14  N   UNL     1     -11.864  13.222  69.282  1.00  0.00    -0.322 NA 
ENDBRANCH   3   5
ENDBRANCH   2   3
BRANCH   2  15
HETATM   15  C   UNL     1      -9.738  10.403  68.372  1.00  0.00    -0.158 C  
HETATM   16  O   UNL     1      -7.491   9.399  71.012  1.00  0.00    -0.252 OA 
HETATM   17  C   UNL     1      -9.019  11.420  67.858  1.00  0.00    -0.153 C  
HETATM   18  C   UNL     1      -7.791  11.896  68.462  1.00  0.00    -0.136 A  
HETATM   19  N   UNL     1      -9.259   9.722  69.514  1.00  0.00    -0.198 N  
HETATM   20  C   UNL     1      -7.199  13.061  67.952  1.00  0.00    -0.129 A  
HETATM   21  C   UNL     1      -7.984  10.044  70.088  1.00  0.00    -0.101 C  
HETATM   22  C   UNL     1      -7.229  11.216  69.546  1.00  0.00    -0.058 A  
HETATM   23 CL   UNL     1      -5.150  10.958  71.380  1.00  0.00    -0.095 Cl 
HETATM   24  C   UNL     1      -6.032  13.558  68.516  1.00  0.00    -0.090 A  
HETATM   25  C   UNL     1      -5.442  12.871  69.572  1.00  0.00    -0.084 A  
HETATM   26  C   UNL     1      -6.024  11.701  70.084  1.00  0.00    -0.161 A  
BRANCH  19  27
HETATM   27  C   UNL     1      -9.990   8.707  70.226  1.00  0.00    -0.186 A  
HETATM   28  C   UNL     1     -10.474   7.591  69.519  1.00  0.00    -0.227 A  
HETATM   29  C   UNL     1     -11.181   6.573  70.168  1.00  0.00    -0.437 A  
HETATM   30  C   UNL     1     -11.422   6.660  71.538  1.00  0.00    -0.343 A  
HETATM   31  C   UNL     1     -10.975   7.778  72.246  1.00  0.00    -0.345 A  
HETATM   32  C   UNL     1     -10.282   8.805  71.590  1.00  0.00    -0.394 A  
ENDBRANCH  19  27
ENDBRANCH   2  15
TORSDOF 4
ENDMDL
MODEL      208
REMARK 921   NORMALIZED FREE ENERGY PREDICTED BY IDOCK:   -3.50 KCAL/MOL
REMARK 922        TOTAL FREE ENERGY PREDICTED BY IDOCK:   -5.20 KCAL/MOL
REMARK 923 INTER-LIGAND FREE ENERGY PREDICTED BY IDOCK:   -6.06 KCAL/MOL
REMARK 924 INTRA-LIGAND FREE ENERGY PREDICTED BY IDOCK:    0.87 KCAL/MOL
REMARK 927      BINDING AFFINITY PREDICTED BY RF-SCORE:    0.00 PKD
ROOT
HETATM    1  C   UNL     1      -7.213  16.820  69.416  1.00  0.00    -0.105 C  
HETATM    2  C   UNL     1      -8.158  15.620  69.465  1.00  0.00    -0.174 C  
ENDROOT
BRANCH   2   3
HETATM    3  N   UNL     1      -7.527  14.399  69.950  1.00  0.00    -0.380 NA 
HETATM    4  H   UNL     1      -7.664  14.093  70.913  1.00  0.00     0.000 HD 
BRANCH   3   5
HETATM    5  C   UNL     1      -6.735  13.658  69.077  1.00  0.00    -0.111 A  
HETATM    6  C   UNL     1      -5.705  11.634  68.357  1.00  0.00    -0.045 A  
HETATM    7  N   UNL     1      -5.128  12.148  67.264  1.00  0.00    -0.136 NA 
HETATM    8  C   UNL     1      -6.381  10.250  69.934  1.00  0.00    -0.082 A  
HETATM    9  H   UNL     1      -7.488  11.612  71.088  1.00  0.00     0.000 HD 
HETATM   10  N   UNL     1      -6.904  11.408  70.276  1.00  0.00     0.000 NA 
HETATM   11  C   UNL     1      -5.408  13.462  67.160  1.00  0.00     0.579 A  
HETATM   12  C   UNL     1      -6.489  12.287  69.293  1.00  0.00    -0.109 A  
HETATM   13  N   UNL     1      -5.654  10.339  68.776  1.00  0.00    -0.038 NA 
HETATM   14  N   UNL     1      -6.162  14.228  67.981  1.00  0.00    -0.139 NA 
ENDBRANCH   3   5
ENDBRANCH   2   3
BRANCH   2  15
HETATM   15  C   UNL     1      -9.005  15.282  68.227  1.00  0.00    -0.176 C  
HETATM   16  O   UNL     1     -10.430  16.464  65.128  1.00  0.00    -0.622 OA 
HETATM   17  C   UNL     1      -9.463  14.016  68.200  1.00  0.00    -0.215 C  
HETATM   18  C   UNL     1     -10.383  13.536  67.189  1.00  0.00    -0.250 A  
HETATM   19  N   UNL     1      -9.382  16.178  67.200  1.00  0.00    -0.212 N  
HETATM   20  C   UNL     1     -10.932  12.252  67.335  1.00  0.00    -0.298 A  
HETATM   21  C   UNL     1     -10.178  15.740  66.090  1.00  0.00    -0.315 C  
HETATM   22  C   UNL     1     -10.730  14.351  66.109  1.00  0.00    -0.304 A  
HETATM   23 CL   UNL     1     -12.102  14.667  63.705  1.00  0.00    -0.083 Cl 
HETATM   24  C   UNL     1     -11.831  11.764  66.397  1.00  0.00     0.002 A  
HETATM   25  C   UNL     1     -12.159  12.551  65.297  1.00  0.00    -0.500 A  
HETATM   26  C   UNL     1     -11.609  13.833  65.140  1.00  0.00    -0.331 A  
BRANCH  19  27
HETATM   27  C   UNL     1      -9.060  17.581  67.182  1.00  0.00    -0.243 A  
HETATM   28  C   UNL     1      -7.930  18.014  66.465  1.00  0.00    -0.294 A  
HETATM   29  C   UNL     1      -7.582  19.369  66.410  1.00  0.00    -0.283 A  
HETATM   30  C   UNL     1      -8.358  20.312  67.079  1.00  0.00    -0.373 A  
HETATM   31  C   UNL     1      -9.464  19.892  67.821  1.00  0.00    -0.474 A  
HETATM   32  C   UNL     1      -9.801  18.533  67.890  1.00  0.00    -0.352 A  
ENDBRANCH  19  27
ENDBRANCH   2  15
TORSDOF 4
ENDMDL
MODEL      209
REMARK 921   NORMALIZED FREE ENERGY PREDICTED BY IDOCK:   -3.37 KCAL/MOL
REMARK 922        TOTAL FREE ENERGY PREDICTED BY IDOCK:   -5.03 KCAL/MOL
REMARK 923 INTER-LIGAND FREE ENERGY PREDICTED BY IDOCK:   -5.65 KCAL/MOL
REMARK 924 INTRA-LIGAND FREE ENERGY PREDICTED BY IDOCK:    0.62 KCAL/MOL
REMARK 927      BINDING AFFINITY PREDICTED BY RF-SCORE:    0.00 PKD
ROOT
HETATM    1  C   UNL     1     -12.160  11.223  68.689  1.00  0.00    -0.211 C  
HETATM    2  C   UNL     1     -10.799  11.843  68.379  1.00  0.00    -0.228 C  
ENDROOT
BRANCH   2   3
HETATM    3  N   UNL     1      -9.825  11.684  69.451  1.00  0.00    -0.267 NA 
HETATM    4  H   UNL     1      -9.554  12.480  70.027  1.00  0.00     0.000 HD 
BRANCH   3   5
HETATM    5  C   UNL     1      -9.270  10.427  69.676  1.00  0.00    -0.056 A  
HETATM    6  C   UNL     1      -7.600   8.763  69.342  1.00  0.00    -0.088 A  
HETATM    7  N   UNL     1      -8.136   7.853  70.166  1.00  0.00    -0.114 NA 
HETATM    8  C   UNL     1      -6.269   9.799  67.922  1.00  0.00    -0.052 A  
HETATM    9  H   UNL     1      -7.344  11.596  67.747  1.00  0.00     0.000 HD 
HETATM   10  N   UNL     1      -7.238  10.662  68.145  1.00  0.00    -0.085 NA 
HETATM   11  C   UNL     1      -9.274   8.327  70.708  1.00  0.00    -0.153 A  
HETATM   12  C   UNL     1      -8.081  10.024  69.036  1.00  0.00    -0.118 A  
HETATM   13  N   UNL     1      -6.443   8.640  68.631  1.00  0.00    -0.053 NA 
HETATM   14  N   UNL     1      -9.858   9.532  70.518  1.00  0.00    -0.265 NA 
ENDBRANCH   3   5
ENDBRANCH   2   3
BRANCH   2  15
HETATM   15  C   UNL     1     -10.736  13.292  67.864  1.00  0.00    -0.239 C  
HETATM   16  O   UNL     1     -10.405  15.468  65.004  1.00  0.00    -0.378 OA 
HETATM   17  C   UNL     1     -10.836  14.226  68.829  1.00  0.00    -0.265 C  
HETATM   18  C   UNL     1     -10.671  15.641  68.571  1.00  0.00    -0.264 A  
HETATM   19  N   UNL     1     -10.519  13.696  66.527  1.00  0.00    -0.278 N  
HETATM   20  C   UNL     1     -10.630  16.523  69.661  1.00  0.00    -0.302 A  
HETATM   21  C   UNL     1     -10.482  15.085  66.170  1.00  0.00    -0.305 C  
HETATM   22  C   UNL     1     -10.530  16.106  67.261  1.00  0.00    -0.309 A  
HETATM   23 CL   UNL     1     -10.275  18.256  65.509  1.00  0.00     0.089 Cl 
HETATM   24  C   UNL     1     -10.454  17.885  69.455  1.00  0.00     0.365 A  
HETATM   25  C   UNL     1     -10.349  18.366  68.154  1.00  0.00    -0.393 A  
HETATM   26  C   UNL     1     -10.396  17.492  67.057  1.00  0.00    -0.324 A  
BRANCH  19  27
HETATM   27  C   UNL     1     -10.274  12.795  65.431  1.00  0.00    -0.283 A  
HETATM   28  C   UNL     1      -9.949  11.455  65.708  1.00  0.00    -0.271 A  
HETATM   29  C   UNL     1      -9.712  10.539  64.676  1.00  0.00    -0.369 A  
HETATM   30  C   UNL     1      -9.790  10.954  63.348  1.00  0.00    -0.408 A  
HETATM   31  C   UNL     1     -10.079  12.290  63.060  1.00  0.00     0.259 A  
HETATM   32  C   UNL     1     -10.299  13.209  64.096  1.00  0.00    -0.286 A  
ENDBRANCH  19  27
ENDBRANCH   2  15
TORSDOF 4
ENDMDL
MODEL      210
REMARK 921   NORMALIZED FREE ENERGY PREDICTED BY IDOCK:   -3.35 KCAL/MOL
REMARK 922        TOTAL FREE ENERGY PREDICTED BY IDOCK:   -5.01 KCAL/MOL
REMARK 923 INTER-LIGAND FREE ENERGY PREDICTED BY IDOCK:   -5.56 KCAL/MOL
REMARK 924 INTRA-LIGAND FREE ENERGY PREDICTED BY IDOCK:    0.55 KCAL/MOL
REMARK 927      BINDING AFFINITY PREDICTED BY RF-SCORE:    0.00 PKD
ROOT
HETATM    1  C   UNL     1      -6.296  12.934  67.535  1.00  0.00    -0.161 C  
HETATM    2  C   UNL     1      -7.527  13.750  67.925  1.00  0.00    -0.152 C  
ENDROOT
BRANCH   2   3
HETATM    3  N   UNL     1      -8.167  13.293  69.152  1.00  0.00    -0.217 NA 
HETATM    4  H   UNL     1      -7.606  12.994  69.949  1.00  0.00     0.000 HD 
BRANCH   3   5
HETATM    5  C   UNL     1      -9.558  13.270  69.218  1.00  0.00     0.718 A  
HETATM    6  C   UNL     1     -11.669  12.194  68.974  1.00  0.00    -0.322 A  
HETATM    7  N   UNL     1     -12.408  13.234  69.381  1.00  0.00    -0.140 NA 
HETATM    8  C   UNL     1     -11.034  10.207  68.260  1.00  0.00    -0.248 A  
HETATM    9  H   UNL     1      -8.960  10.540  68.225  1.00  0.00     0.000 HD 
HETATM   10  N   UNL     1      -9.907  10.873  68.405  1.00  0.00    -0.170 NA 
HETATM   11  C   UNL     1     -11.616  14.280  69.685  1.00  0.00    -0.296 A  
HETATM   12  C   UNL     1     -10.292  12.123  68.854  1.00  0.00    -0.073 A  
HETATM   13  N   UNL     1     -12.123  10.964  68.600  1.00  0.00    -0.516 NA 
HETATM   14  N   UNL     1     -10.267  14.357  69.631  1.00  0.00     0.093 NA 
ENDBRANCH   3   5
ENDBRANCH   2   3
BRANCH   2  15
HETATM   15  C   UNL     1      -8.614  14.018  66.870  1.00  0.00    -0.125 C  
HETATM   16  O   UNL     1     -10.630  16.482  65.170  1.00  0.00    -0.632 OA 
HETATM   17  C   UNL     1      -9.081  12.909  66.265  1.00  0.00    -0.019 C  
HETATM   18  C   UNL     1     -10.194  12.931  65.338  1.00  0.00    -0.301 A  
HETATM   19  N   UNL     1      -9.182  15.273  66.554  1.00  0.00    -0.269 N  
HETATM   20  C   UNL     1     -10.715  11.710  64.883  1.00  0.00    -0.352 A  
HETATM   21  C   UNL     1     -10.194  15.394  65.544  1.00  0.00    -0.382 C  
HETATM   22  C   UNL     1     -10.746  14.148  64.929  1.00  0.00    -0.444 A  
HETATM   23 CL   UNL     1     -12.577  15.523  63.343  1.00  0.00     1.159 Cl 
HETATM   24  C   UNL     1     -11.793  11.690  64.009  1.00  0.00    -0.307 A  
HETATM   25  C   UNL     1     -12.330  12.895  63.566  1.00  0.00    -0.521 A  
HETATM   26  C   UNL     1     -11.810  14.121  64.009  1.00  0.00    -0.271 A  
BRANCH  19  27
HETATM   27  C   UNL     1      -8.856  16.508  67.218  1.00  0.00    -0.192 A  
HETATM   28  C   UNL     1      -9.766  17.045  68.147  1.00  0.00    -0.268 A  
HETATM   29  C   UNL     1      -9.489  18.238  68.825  1.00  0.00    -0.298 A  
HETATM   30  C   UNL     1      -8.298  18.916  68.578  1.00  0.00    -0.384 A  
HETATM   31  C   UNL     1      -7.401  18.411  67.634  1.00  0.00    -0.219 A  
HETATM   32  C   UNL     1      -7.688  17.225  66.943  1.00  0.00    -0.250 A  
ENDBRANCH  19  27
ENDBRANCH   2  15
TORSDOF 4
ENDMDL
MODEL      211
REMARK 921   NORMALIZED FREE ENERGY PREDICTED BY IDOCK:   -3.32 KCAL/MOL
REMARK 922        TOTAL FREE ENERGY PREDICTED BY IDOCK:   -4.97 KCAL/MOL
REMARK 923 INTER-LIGAND FREE ENERGY PREDICTED BY IDOCK:   -4.01 KCAL/MOL
REMARK 924 INTRA-LIGAND FREE ENERGY PREDICTED BY IDOCK:   -0.95 KCAL/MOL
REMARK 927      BINDING AFFINITY PREDICTED BY RF-SCORE:    0.00 PKD
ROOT
HETATM    1  C   UNL     1     -10.721   7.846  67.564  1.00  0.00    -0.252 C  
HETATM    2  C   UNL     1      -9.207   7.814  67.360  1.00  0.00    -0.136 C  
ENDROOT
BRANCH   2   3
HETATM    3  N   UNL     1      -8.628   6.483  67.491  1.00  0.00    -0.119 NA 
HETATM    4  H   UNL     1      -8.245   6.169  68.382  1.00  0.00     0.000 HD 
BRANCH   3   5
HETATM    5  C   UNL     1      -8.605   5.646  66.378  1.00  0.00    -0.123 A  
HETATM    6  C   UNL     1      -8.713   3.506  65.339  1.00  0.00    -0.120 A  
HETATM    7  N   UNL     1      -8.578   3.949  64.082  1.00  0.00    -0.096 NA 
HETATM    8  C   UNL     1      -8.978   2.210  67.103  1.00  0.00    -0.137 A  
HETATM    9  H   UNL     1      -8.939   3.696  68.587  1.00  0.00     0.000 HD 
HETATM   10  N   UNL     1      -8.893   3.424  67.604  1.00  0.00    -0.116 NA 
HETATM   11  C   UNL     1      -8.449   5.290  64.070  1.00  0.00    -0.102 A  
HETATM   12  C   UNL     1      -8.728   4.248  66.507  1.00  0.00    -0.113 A  
HETATM   13  N   UNL     1      -8.882   2.213  65.737  1.00  0.00    -0.120 NA 
HETATM   14  N   UNL     1      -8.457   6.144  65.119  1.00  0.00    -0.134 NA 
ENDBRANCH   3   5
ENDBRANCH   2   3
BRANCH   2  15
HETATM   15  C   UNL     1      -8.326   8.814  68.129  1.00  0.00    -0.122 C  
HETATM   16  O   UNL     1      -7.086   9.902  71.339  1.00  0.00    -0.245 OA 
HETATM   17  C   UNL     1      -7.712   9.723  67.346  1.00  0.00    -0.095 C  
HETATM   18  C   UNL     1      -6.944  10.828  67.882  1.00  0.00    -0.073 A  
HETATM   19  N   UNL     1      -8.178   8.893  69.532  1.00  0.00    -0.104 N  
HETATM   20  C   UNL     1      -6.478  11.813  66.999  1.00  0.00    -0.147 A  
HETATM   21  C   UNL     1      -7.322   9.876  70.131  1.00  0.00    -0.160 C  
HETATM   22  C   UNL     1      -6.699  10.915  69.255  1.00  0.00    -0.086 A  
HETATM   23 CL   UNL     1      -5.470  12.233  71.378  1.00  0.00    -0.015 Cl 
HETATM   24  C   UNL     1      -5.754  12.897  67.477  1.00  0.00    -0.100 A  
HETATM   25  C   UNL     1      -5.472  12.979  68.837  1.00  0.00    -0.071 A  
HETATM   26  C   UNL     1      -5.928  11.993  69.726  1.00  0.00    -0.136 A  
BRANCH  19  27
HETATM   27  C   UNL     1      -8.878   8.062  70.475  1.00  0.00    -0.137 A  
HETATM   28  C   UNL     1      -8.275   6.868  70.913  1.00  0.00    -0.118 A  
HETATM   29  C   UNL     1      -8.912   6.032  71.837  1.00  0.00    -0.138 A  
HETATM   30  C   UNL     1     -10.168   6.375  72.333  1.00  0.00    -0.204 A  
HETATM   31  C   UNL     1     -10.792   7.540  71.882  1.00  0.00    -0.264 A  
HETATM   32  C   UNL     1     -10.159   8.368  70.943  1.00  0.00    -0.234 A  
ENDBRANCH  19  27
ENDBRANCH   2  15
TORSDOF 4
ENDMDL
MODEL      212
REMARK 921   NORMALIZED FREE ENERGY PREDICTED BY IDOCK:   -3.28 KCAL/MOL
REMARK 922        TOTAL FREE ENERGY PREDICTED BY IDOCK:   -4.92 KCAL/MOL
REMARK 923 INTER-LIGAND FREE ENERGY PREDICTED BY IDOCK:   -3.78 KCAL/MOL
REMARK 924 INTRA-LIGAND FREE ENERGY PREDICTED BY IDOCK:   -1.14 KCAL/MOL
REMARK 927      BINDING AFFINITY PREDICTED BY RF-SCORE:    0.00 PKD
ROOT
HETATM    1  C   UNL     1      -7.225   7.313  71.664  1.00  0.00    -0.075 C  
HETATM    2  C   UNL     1      -7.186   7.389  70.138  1.00  0.00    -0.070 C  
ENDROOT
BRANCH   2   3
HETATM    3  N   UNL     1      -7.915   8.526  69.591  1.00  0.00    -0.099 NA 
HETATM    4  H   UNL     1      -8.783   8.842  70.022  1.00  0.00     0.000 HD 
BRANCH   3   5
HETATM    5  C   UNL     1      -7.407   9.174  68.468  1.00  0.00    -0.077 A  
HETATM    6  C   UNL     1      -7.654  10.420  66.453  1.00  0.00    -0.123 A  
HETATM    7  N   UNL     1      -6.345  10.518  66.183  1.00  0.00    -0.108 NA 
HETATM    8  C   UNL     1      -9.848  10.610  66.358  1.00  0.00    -0.211 A  
HETATM    9  H   UNL     1     -10.327   9.541  68.102  1.00  0.00     0.000 HD 
HETATM   10  N   UNL     1      -9.632   9.910  67.451  1.00  0.00    -0.152 NA 
HETATM   11  C   UNL     1      -5.624   9.888  67.131  1.00  0.00    -0.046 A  
HETATM   12  C   UNL     1      -8.257   9.784  67.524  1.00  0.00    -0.114 A  
HETATM   13  N   UNL     1      -8.680  10.946  65.727  1.00  0.00    -0.189 NA 
HETATM   14  N   UNL     1      -6.067   9.240  68.232  1.00  0.00    -0.052 NA 
ENDBRANCH   3   5
ENDBRANCH   2   3
BRANCH   2  15
HETATM   15  C   UNL     1      -7.534   6.135  69.317  1.00  0.00    -0.089 C  
HETATM   16  O   UNL     1     -10.028   3.659  68.497  1.00  0.00     0.044 OA 
HETATM   17  C   UNL     1      -6.531   5.692  68.535  1.00  0.00    -0.043 C  
HETATM   18  C   UNL     1      -6.610   4.456  67.784  1.00  0.00    -0.046 A  
HETATM   19  N   UNL     1      -8.744   5.407  69.374  1.00  0.00    -0.105 N  
HETATM   20  C   UNL     1      -5.460   3.993  67.128  1.00  0.00    -0.013 A  
HETATM   21  C   UNL     1      -8.950   4.249  68.553  1.00  0.00    -0.114 C  
HETATM   22  C   UNL     1      -7.806   3.734  67.740  1.00  0.00    -0.081 A  
HETATM   23 CL   UNL     1      -9.244   1.562  66.755  1.00  0.00    -0.065 Cl 
HETATM   24  C   UNL     1      -5.491   2.803  66.413  1.00  0.00    -0.017 A  
HETATM   25  C   UNL     1      -6.684   2.092  66.331  1.00  0.00    -0.039 A  
HETATM   26  C   UNL     1      -7.842   2.551  66.978  1.00  0.00    -0.071 A  
BRANCH  19  27
HETATM   27  C   UNL     1      -9.838   5.708  70.259  1.00  0.00    -0.194 A  
HETATM   28  C   UNL     1      -9.917   5.046  71.498  1.00  0.00    -0.254 A  
HETATM   29  C   UNL     1     -10.956   5.312  72.396  1.00  0.00    -0.273 A  
HETATM   30  C   UNL     1     -11.939   6.242  72.066  1.00  0.00    -0.353 A  
HETATM   31  C   UNL     1     -11.891   6.884  70.826  1.00  0.00    -0.427 A  
HETATM   32  C   UNL     1     -10.858   6.602  69.920  1.00  0.00    -0.329 A  
ENDBRANCH  19  27
ENDBRANCH   2  15
TORSDOF 4
ENDMDL
MODEL      213
REMARK 921   NORMALIZED FREE ENERGY PREDICTED BY IDOCK:   -3.21 KCAL/MOL
REMARK 922        TOTAL FREE ENERGY PREDICTED BY IDOCK:   -4.83 KCAL/MOL
REMARK 923 INTER-LIGAND FREE ENERGY PREDICTED BY IDOCK:   -4.06 KCAL/MOL
REMARK 924 INTRA-LIGAND FREE ENERGY PREDICTED BY IDOCK:   -0.77 KCAL/MOL
REMARK 927      BINDING AFFINITY PREDICTED BY RF-SCORE:    0.00 PKD
ROOT
HETATM    1  C   UNL     1     -10.075   9.045  69.477  1.00  0.00    -0.199 C  
HETATM    2  C   UNL     1      -9.247   7.776  69.286  1.00  0.00    -0.145 C  
ENDROOT
BRANCH   2   3
HETATM    3  N   UNL     1      -8.044   7.733  70.107  1.00  0.00    -0.115 NA 
HETATM    4  H   UNL     1      -7.121   7.763  69.675  1.00  0.00     0.000 HD 
BRANCH   3   5
HETATM    5  C   UNL     1      -8.176   7.650  71.491  1.00  0.00    -0.103 A  
HETATM    6  C   UNL     1      -9.031   6.654  73.478  1.00  0.00    -0.126 A  
HETATM    7  N   UNL     1      -8.416   7.483  74.331  1.00  0.00    -0.213 NA 
HETATM    8  C   UNL     1     -10.249   5.026  72.626  1.00  0.00    -0.188 A  
HETATM    9  H   UNL     1      -9.898   5.411  70.590  1.00  0.00     0.000 HD 
HETATM   10  N   UNL     1      -9.750   5.640  71.573  1.00  0.00    -0.158 NA 
HETATM   11  C   UNL     1      -7.691   8.396  73.655  1.00  0.00    -0.091 A  
HETATM   12  C   UNL     1      -8.981   6.664  72.095  1.00  0.00    -0.138 A  
HETATM   13  N   UNL     1      -9.835   5.601  73.798  1.00  0.00    -0.164 NA 
HETATM   14  N   UNL     1      -7.536   8.523  72.318  1.00  0.00    -0.264 NA 
ENDBRANCH   3   5
ENDBRANCH   2   3
BRANCH   2  15
HETATM   15  C   UNL     1      -8.889   7.323  67.859  1.00  0.00    -0.128 C  
HETATM   16  O   UNL     1      -7.238   8.142  64.756  1.00  0.00    -0.077 OA 
HETATM   17  C   UNL     1      -9.356   6.102  67.534  1.00  0.00    -0.113 C  
HETATM   18  C   UNL     1      -9.240   5.547  66.201  1.00  0.00    -0.166 A  
HETATM   19  N   UNL     1      -8.202   8.085  66.887  1.00  0.00    -0.114 N  
HETATM   20  C   UNL     1      -9.898   4.342  65.915  1.00  0.00    -0.230 A  
HETATM   21  C   UNL     1      -7.926   7.549  65.585  1.00  0.00    -0.117 C  
HETATM   22  C   UNL     1      -8.506   6.220  65.220  1.00  0.00    -0.113 A  
HETATM   23 CL   UNL     1      -7.487   6.282  62.629  1.00  0.00    -0.059 Cl 
HETATM   24  C   UNL     1      -9.826   3.789  64.644  1.00  0.00    -0.190 A  
HETATM   25  C   UNL     1      -9.069   4.428  63.667  1.00  0.00    -0.136 A  
HETATM   26  C   UNL     1      -8.402   5.631  63.946  1.00  0.00    -0.058 A  
BRANCH  19  27
HETATM   27  C   UNL     1      -7.765   9.444  67.073  1.00  0.00    -0.091 A  
HETATM   28  C   UNL     1      -8.610  10.495  66.671  1.00  0.00    -0.133 A  
HETATM   29  C   UNL     1      -8.233  11.832  66.840  1.00  0.00    -0.166 A  
HETATM   30  C   UNL     1      -7.000  12.139  67.410  1.00  0.00    -0.146 A  
HETATM   31  C   UNL     1      -6.138  11.105  67.783  1.00  0.00    -0.047 A  
HETATM   32  C   UNL     1      -6.510   9.766  67.597  1.00  0.00    -0.067 A  
ENDBRANCH  19  27
ENDBRANCH   2  15
TORSDOF 4
ENDMDL
MODEL      214
REMARK 921   NORMALIZED FREE ENERGY PREDICTED BY IDOCK:   -3.14 KCAL/MOL
REMARK 922        TOTAL FREE ENERGY PREDICTED BY IDOCK:   -4.75 KCAL/MOL
REMARK 923 INTER-LIGAND FREE ENERGY PREDICTED BY IDOCK:   -4.79 KCAL/MOL
REMARK 924 INTRA-LIGAND FREE ENERGY PREDICTED BY IDOCK:    0.03 KCAL/MOL
REMARK 927      BINDING AFFINITY PREDICTED BY RF-SCORE:    0.00 PKD
ROOT
HETATM    1  C   UNL     1      -6.773  11.963  66.710  1.00  0.00    -0.009 C  
HETATM    2  C   UNL     1      -7.703  12.994  67.347  1.00  0.00    -0.155 C  
ENDROOT
BRANCH   2   3
HETATM    3  N   UNL     1      -7.001  14.065  68.041  1.00  0.00    -0.126 NA 
HETATM    4  H   UNL     1      -6.407  13.861  68.844  1.00  0.00     0.000 HD 
BRANCH   3   5
HETATM    5  C   UNL     1      -7.155  15.374  67.591  1.00  0.00    -0.180 A  
HETATM    6  C   UNL     1      -6.757  17.718  67.729  1.00  0.00    -0.185 A  
HETATM    7  N   UNL     1      -7.463  18.048  66.640  1.00  0.00    -0.210 NA 
HETATM    8  C   UNL     1      -5.488  17.811  69.529  1.00  0.00    -0.204 A  
HETATM    9  H   UNL     1      -5.461  15.762  69.994  1.00  0.00     0.000 HD 
HETATM   10  N   UNL     1      -5.766  16.531  69.396  1.00  0.00    -0.149 NA 
HETATM   11  C   UNL     1      -8.002  16.948  66.080  1.00  0.00    -0.255 A  
HETATM   12  C   UNL     1      -6.561  16.459  68.267  1.00  0.00    -0.132 A  
HETATM   13  N   UNL     1      -6.061  18.565  68.539  1.00  0.00    -0.193 NA 
HETATM   14  N   UNL     1      -7.890  15.661  66.481  1.00  0.00    -0.105 NA 
ENDBRANCH   3   5
ENDBRANCH   2   3
BRANCH   2  15
HETATM   15  C   UNL     1      -8.865  12.509  68.231  1.00  0.00    -0.171 C  
HETATM   16  O   UNL     1     -10.797   9.695  69.405  1.00  0.00    -0.224 OA 
HETATM   17  C   UNL     1      -9.504  13.494  68.892  1.00  0.00     0.155 C  
HETATM   18  C   UNL     1     -10.703  13.265  69.672  1.00  0.00     0.338 A  
HETATM   19  N   UNL     1      -9.336  11.181  68.340  1.00  0.00    -0.179 N  
HETATM   20  C   UNL     1     -11.390  14.374  70.190  1.00  0.00    -0.221 A  
HETATM   21  C   UNL     1     -10.434  10.853  69.204  1.00  0.00    -0.221 C  
HETATM   22  C   UNL     1     -11.171  11.965  69.879  1.00  0.00    -0.051 A  
HETATM   23 CL   UNL     1     -13.016  10.259  71.080  1.00  0.00    -0.468 Cl 
HETATM   24  C   UNL     1     -12.552  14.196  70.927  1.00  0.00    -0.433 A  
HETATM   25  C   UNL     1     -13.011  12.906  71.171  1.00  0.00    -0.259 A  
HETATM   26  C   UNL     1     -12.326  11.790  70.664  1.00  0.00    -0.328 A  
BRANCH  19  27
HETATM   27  C   UNL     1      -8.818  10.066  67.591  1.00  0.00    -0.121 A  
HETATM   28  C   UNL     1      -7.820   9.260  68.168  1.00  0.00    -0.095 A  
HETATM   29  C   UNL     1      -7.292   8.160  67.483  1.00  0.00    -0.093 A  
HETATM   30  C   UNL     1      -7.751   7.853  66.204  1.00  0.00    -0.091 A  
HETATM   31  C   UNL     1      -8.718   8.665  65.607  1.00  0.00    -0.214 A  
HETATM   32  C   UNL     1      -9.233   9.777  66.288  1.00  0.00    -0.207 A  
ENDBRANCH  19  27
ENDBRANCH   2  15
TORSDOF 4
ENDMDL
MODEL      215
REMARK 921   NORMALIZED FREE ENERGY PREDICTED BY IDOCK:   -3.14 KCAL/MOL
REMARK 922        TOTAL FREE ENERGY PREDICTED BY IDOCK:   -4.75 KCAL/MOL
REMARK 923 INTER-LIGAND FREE ENERGY PREDICTED BY IDOCK:   -4.23 KCAL/MOL
REMARK 924 INTRA-LIGAND FREE ENERGY PREDICTED BY IDOCK:   -0.51 KCAL/MOL
REMARK 927      BINDING AFFINITY PREDICTED BY RF-SCORE:    0.00 PKD
ROOT
HETATM    1  C   UNL     1      -6.967  15.014  67.755  1.00  0.00    -0.193 C  
HETATM    2  C   UNL     1      -8.153  14.180  68.238  1.00  0.00    -0.146 C  
ENDROOT
BRANCH   2   3
HETATM    3  N   UNL     1      -7.771  13.052  69.077  1.00  0.00    -0.326 NA 
HETATM    4  H   UNL     1      -7.793  13.132  70.094  1.00  0.00     0.000 HD 
BRANCH   3   5
HETATM    5  C   UNL     1      -7.375  11.863  68.470  1.00  0.00    -0.111 A  
HETATM    6  C   UNL     1      -7.770   9.636  67.724  1.00  0.00    -0.094 A  
HETATM    7  N   UNL     1      -6.553   9.441  67.202  1.00  0.00    -0.070 NA 
HETATM    8  C   UNL     1      -9.862   9.358  68.361  1.00  0.00    -0.160 A  
HETATM    9  H   UNL     1     -10.167  11.238  69.249  1.00  0.00     0.000 HD 
HETATM   10  N   UNL     1      -9.564  10.577  68.758  1.00  0.00    -0.171 NA 
HETATM   11  C   UNL     1      -5.789  10.538  67.372  1.00  0.00    -0.045 A  
HETATM   12  C   UNL     1      -8.252  10.765  68.363  1.00  0.00    -0.129 A  
HETATM   13  N   UNL     1      -8.810   8.755  67.725  1.00  0.00    -0.135 NA 
HETATM   14  N   UNL     1      -6.122  11.710  67.959  1.00  0.00    -0.046 NA 
ENDBRANCH   3   5
ENDBRANCH   2   3
BRANCH   2  15
HETATM   15  C   UNL     1      -9.199  13.704  67.215  1.00  0.00    -0.232 C  
HETATM   16  O   UNL     1     -12.701  13.419  66.388  1.00  0.00    -0.232 OA 
HETATM   17  C   UNL     1      -8.675  13.124  66.118  1.00  0.00     0.468 C  
HETATM   18  C   UNL     1      -9.490  12.494  65.099  1.00  0.00     0.194 A  
HETATM   19  N   UNL     1     -10.603  13.762  67.366  1.00  0.00    -0.259 N  
HETATM   20  C   UNL     1      -8.851  11.775  64.078  1.00  0.00     0.649 A  
HETATM   21  C   UNL     1     -11.479  13.284  66.335  1.00  0.00    -0.329 C  
HETATM   22  C   UNL     1     -10.883  12.586  65.155  1.00  0.00    -0.323 A  
HETATM   23 CL   UNL     1     -13.356  12.040  63.997  1.00  0.00    -0.033 Cl 
HETATM   24  C   UNL     1      -9.598  11.142  63.094  1.00  0.00    -0.388 A  
HETATM   25  C   UNL     1     -10.985  11.255  63.116  1.00  0.00    -0.037 A  
HETATM   26  C   UNL     1     -11.632  11.978  64.131  1.00  0.00    -0.379 A  
BRANCH  19  27
HETATM   27  C   UNL     1     -11.279  14.243  68.542  1.00  0.00    -0.266 A  
HETATM   28  C   UNL     1     -11.714  15.581  68.582  1.00  0.00    -0.363 A  
HETATM   29  C   UNL     1     -12.384  16.092  69.699  1.00  0.00     0.113 A  
HETATM   30  C   UNL     1     -12.624  15.272  70.800  1.00  0.00    -0.474 A  
HETATM   31  C   UNL     1     -12.168  13.952  70.787  1.00  0.00    -0.441 A  
HETATM   32  C   UNL     1     -11.482  13.447  69.673  1.00  0.00    -0.274 A  
ENDBRANCH  19  27
ENDBRANCH   2  15
TORSDOF 4
ENDMDL
MODEL      216
REMARK 921   NORMALIZED FREE ENERGY PREDICTED BY IDOCK:   -3.09 KCAL/MOL
REMARK 922        TOTAL FREE ENERGY PREDICTED BY IDOCK:   -4.68 KCAL/MOL
REMARK 923 INTER-LIGAND FREE ENERGY PREDICTED BY IDOCK:   -5.01 KCAL/MOL
REMARK 924 INTRA-LIGAND FREE ENERGY PREDICTED BY IDOCK:    0.33 KCAL/MOL
REMARK 927      BINDING AFFINITY PREDICTED BY RF-SCORE:    0.00 PKD
ROOT
HETATM    1  C   UNL     1      -9.308  10.036  66.909  1.00  0.00    -0.188 C  
HETATM    2  C   UNL     1     -10.019   8.689  66.799  1.00  0.00    -0.273 C  
ENDROOT
BRANCH   2   3
HETATM    3  N   UNL     1     -10.904   8.400  67.919  1.00  0.00    -0.480 NA 
HETATM    4  H   UNL     1     -11.870   8.118  67.757  1.00  0.00     0.000 HD 
BRANCH   3   5
HETATM    5  C   UNL     1     -10.410   8.518  69.216  1.00  0.00    -0.221 A  
HETATM    6  C   UNL     1     -10.377   7.939  71.526  1.00  0.00    -0.201 A  
HETATM    7  N   UNL     1      -9.370   8.755  71.864  1.00  0.00    -0.286 NA 
HETATM    8  C   UNL     1     -11.995   6.444  71.595  1.00  0.00    -0.291 A  
HETATM    9  H   UNL     1     -12.557   6.503  69.572  1.00  0.00     0.000 HD 
HETATM   10  N   UNL     1     -11.964   6.827  70.336  1.00  0.00    -0.348 NA 
HETATM   11  C   UNL     1      -8.940   9.439  70.786  1.00  0.00    -0.191 A  
HETATM   12  C   UNL     1     -10.950   7.765  70.278  1.00  0.00    -0.247 A  
HETATM   13  N   UNL     1     -11.048   7.085  72.349  1.00  0.00    -0.248 NA 
HETATM   14  N   UNL     1      -9.389   9.368  69.512  1.00  0.00    -0.170 NA 
ENDBRANCH   3   5
ENDBRANCH   2   3
BRANCH   2  15
HETATM   15  C   UNL     1      -9.192   7.429  66.484  1.00  0.00    -0.165 C  
HETATM   16  O   UNL     1      -6.396   6.023  64.687  1.00  0.00    -0.032 OA 
HETATM   17  C   UNL     1      -9.630   6.314  67.100  1.00  0.00    -0.151 C  
HETATM   18  C   UNL     1      -9.072   5.003  66.837  1.00  0.00    -0.117 A  
HETATM   19  N   UNL     1      -8.105   7.345  65.585  1.00  0.00    -0.122 N  
HETATM   20  C   UNL     1      -9.698   3.881  67.401  1.00  0.00    -0.173 A  
HETATM   21  C   UNL     1      -7.411   6.107  65.377  1.00  0.00    -0.080 C  
HETATM   22  C   UNL     1      -7.949   4.867  66.018  1.00  0.00    -0.107 A  
HETATM   23 CL   UNL     1      -6.011   3.220  64.882  1.00  0.00    -0.022 Cl 
HETATM   24  C   UNL     1      -9.204   2.607  67.157  1.00  0.00    -0.162 A  
HETATM   25  C   UNL     1      -8.065   2.459  66.373  1.00  0.00    -0.084 A  
HETATM   26  C   UNL     1      -7.428   3.577  65.810  1.00  0.00    -0.077 A  
BRANCH  19  27
HETATM   27  C   UNL     1      -7.626   8.436  64.777  1.00  0.00    -0.102 A  
HETATM   28  C   UNL     1      -8.311   8.760  63.591  1.00  0.00    -0.146 A  
HETATM   29  C   UNL     1      -7.890   9.818  62.778  1.00  0.00    -0.128 A  
HETATM   30  C   UNL     1      -6.770  10.565  63.136  1.00  0.00    -0.012 A  
HETATM   31  C   UNL     1      -6.062  10.234  64.293  1.00  0.00    -0.121 A  
HETATM   32  C   UNL     1      -6.476   9.162  65.098  1.00  0.00    -0.069 A  
ENDBRANCH  19  27
ENDBRANCH   2  15
TORSDOF 4
ENDMDL
MODEL      217
REMARK 921   NORMALIZED FREE ENERGY PREDICTED BY IDOCK:   -2.93 KCAL/MOL
REMARK 922        TOTAL FREE ENERGY PREDICTED BY IDOCK:   -4.49 KCAL/MOL
REMARK 923 INTER-LIGAND FREE ENERGY PREDICTED BY IDOCK:   -4.94 KCAL/MOL
REMARK 924 INTRA-LIGAND FREE ENERGY PREDICTED BY IDOCK:    0.45 KCAL/MOL
REMARK 927      BINDING AFFINITY PREDICTED BY RF-SCORE:    0.00 PKD
ROOT
HETATM    1  C   UNL     1     -12.006  13.864  70.453  1.00  0.00    -0.393 C  
HETATM    2  C   UNL     1     -11.236  13.492  69.188  1.00  0.00    -0.260 C  
ENDROOT
BRANCH   2   3
HETATM    3  N   UNL     1     -10.722  12.128  69.196  1.00  0.00    -0.417 NA 
HETATM    4  H   UNL     1     -11.099  11.436  69.843  1.00  0.00     0.000 HD 
BRANCH   3   5
HETATM    5  C   UNL     1      -9.708  11.785  68.305  1.00  0.00    -0.199 A  
HETATM    6  C   UNL     1      -8.919  11.008  66.197  1.00  0.00    -0.191 A  
HETATM    7  N   UNL     1      -7.615  11.107  66.486  1.00  0.00    -0.146 NA 
HETATM    8  C   UNL     1     -10.828  10.652  65.153  1.00  0.00     0.110 A  
HETATM    9  H   UNL     1     -12.134  11.203  66.703  1.00  0.00     0.000 HD 
HETATM   10  N   UNL     1     -11.187  11.074  66.347  1.00  0.00    -0.161 NA 
HETATM   11  C   UNL     1      -7.447  11.557  67.745  1.00  0.00    -0.101 A  
HETATM   12  C   UNL     1      -9.997  11.303  67.013  1.00  0.00    -0.198 A  
HETATM   13  N   UNL     1      -9.466  10.604  65.016  1.00  0.00    -0.223 NA 
HETATM   14  N   UNL     1      -8.395  11.896  68.649  1.00  0.00    -0.106 NA 
ENDBRANCH   3   5
ENDBRANCH   2   3
BRANCH   2  15
HETATM   15  C   UNL     1     -10.131  14.434  68.679  1.00  0.00    -0.242 C  
HETATM   16  O   UNL     1      -8.870  16.400  65.927  1.00  0.00    -0.432 OA 
HETATM   17  C   UNL     1      -9.167  14.694  69.583  1.00  0.00     0.315 C  
HETATM   18  C   UNL     1      -7.974  15.451  69.263  1.00  0.00    -0.229 A  
HETATM   19  N   UNL     1     -10.019  14.963  67.373  1.00  0.00    -0.223 N  
HETATM   20  C   UNL     1      -6.952  15.533  70.220  1.00  0.00     0.255 A  
HETATM   21  C   UNL     1      -8.937  15.836  67.019  1.00  0.00    -0.224 C  
HETATM   22  C   UNL     1      -7.844  16.063  68.013  1.00  0.00    -0.142 A  
HETATM   23 CL   UNL     1      -6.368  17.684  66.296  1.00  0.00    -0.258 Cl 
HETATM   24  C   UNL     1      -5.786  16.233  69.943  1.00  0.00    -0.187 A  
HETATM   25  C   UNL     1      -5.657  16.878  68.716  1.00  0.00    -0.133 A  
HETATM   26  C   UNL     1      -6.678  16.807  67.755  1.00  0.00    -0.137 A  
BRANCH  19  27
HETATM   27  C   UNL     1     -10.914  14.658  66.288  1.00  0.00    -0.327 A  
HETATM   28  C   UNL     1     -10.408  14.614  64.976  1.00  0.00    -0.432 A  
HETATM   29  C   UNL     1     -11.238  14.313  63.890  1.00  0.00     0.396 A  
HETATM   30  C   UNL     1     -12.590  14.056  64.100  1.00  0.00    -0.127 A  
HETATM   31  C   UNL     1     -13.112  14.129  65.393  1.00  0.00    -0.165 A  
HETATM   32  C   UNL     1     -12.283  14.448  66.478  1.00  0.00    -0.358 A  
ENDBRANCH  19  27
ENDBRANCH   2  15
TORSDOF 4
ENDMDL
MODEL      218
REMARK 921   NORMALIZED FREE ENERGY PREDICTED BY IDOCK:   -2.85 KCAL/MOL
REMARK 922        TOTAL FREE ENERGY PREDICTED BY IDOCK:   -4.39 KCAL/MOL
REMARK 923 INTER-LIGAND FREE ENERGY PREDICTED BY IDOCK:   -4.38 KCAL/MOL
REMARK 924 INTRA-LIGAND FREE ENERGY PREDICTED BY IDOCK:   -0.01 KCAL/MOL
REMARK 927      BINDING AFFINITY PREDICTED BY RF-SCORE:    0.00 PKD
ROOT
HETATM    1  C   UNL     1      -9.919   9.455  70.975  1.00  0.00    -0.334 C  
HETATM    2  C   UNL     1      -9.445   8.478  69.901  1.00  0.00    -0.163 C  
ENDROOT
BRANCH   2   3
HETATM    3  N   UNL     1      -8.837   7.267  70.438  1.00  0.00    -0.149 NA 
HETATM    4  H   UNL     1      -7.906   6.979  70.139  1.00  0.00     0.000 HD 
BRANCH   3   5
HETATM    5  C   UNL     1      -9.548   6.511  71.366  1.00  0.00    -0.165 A  
HETATM    6  C   UNL     1     -10.208   4.443  72.348  1.00  0.00    -0.190 A  
HETATM    7  N   UNL     1     -10.996   4.977  73.290  1.00  0.00    -0.292 NA 
HETATM    8  C   UNL     1      -9.091   3.019  71.089  1.00  0.00    -0.112 A  
HETATM    9  H   UNL     1      -8.172   4.401  69.800  1.00  0.00     0.000 HD 
HETATM   10  N   UNL     1      -8.786   4.199  70.590  1.00  0.00    -0.074 NA 
HETATM   11  C   UNL     1     -11.007   6.320  73.186  1.00  0.00    -0.223 A  
HETATM   12  C   UNL     1      -9.480   5.103  71.373  1.00  0.00    -0.152 A  
HETATM   13  N   UNL     1      -9.942   3.120  72.157  1.00  0.00    -0.167 NA 
HETATM   14  N   UNL     1     -10.344   7.099  72.301  1.00  0.00    -0.197 NA 
ENDBRANCH   3   5
ENDBRANCH   2   3
BRANCH   2  15
HETATM   15  C   UNL     1      -8.573   9.000  68.746  1.00  0.00    -0.132 C  
HETATM   16  O   UNL     1      -7.332   8.434  65.404  1.00  0.00    -0.080 OA 
HETATM   17  C   UNL     1      -7.962  10.173  69.002  1.00  0.00    -0.115 C  
HETATM   18  C   UNL     1      -6.998  10.768  68.100  1.00  0.00    -0.072 A  
HETATM   19  N   UNL     1      -8.320   8.338  67.523  1.00  0.00    -0.128 N  
HETATM   20  C   UNL     1      -6.294  11.905  68.524  1.00  0.00    -0.054 A  
HETATM   21  C   UNL     1      -7.485   8.931  66.519  1.00  0.00    -0.088 C  
HETATM   22  C   UNL     1      -6.764  10.200  66.845  1.00  0.00    -0.079 A  
HETATM   23 CL   UNL     1      -5.463  10.308  64.385  1.00  0.00    -0.116 Cl 
HETATM   24  C   UNL     1      -5.348  12.493  67.695  1.00  0.00    -0.111 A  
HETATM   25  C   UNL     1      -5.131  11.960  66.428  1.00  0.00     0.184 A  
HETATM   26  C   UNL     1      -5.836  10.827  65.993  1.00  0.00    -0.140 A  
BRANCH  19  27
HETATM   27  C   UNL     1      -8.813   7.028  67.186  1.00  0.00    -0.121 A  
HETATM   28  C   UNL     1      -7.901   5.962  67.075  1.00  0.00    -0.102 A  
HETATM   29  C   UNL     1      -8.333   4.669  66.759  1.00  0.00    -0.106 A  
HETATM   30  C   UNL     1      -9.687   4.424  66.542  1.00  0.00    -0.230 A  
HETATM   31  C   UNL     1     -10.599   5.479  66.617  1.00  0.00    -0.365 A  
HETATM   32  C   UNL     1     -10.161   6.777  66.917  1.00  0.00    -0.300 A  
ENDBRANCH  19  27
ENDBRANCH   2  15
TORSDOF 4
ENDMDL
MODEL      219
REMARK 921   NORMALIZED FREE ENERGY PREDICTED BY IDOCK:   -2.82 KCAL/MOL
REMARK 922        TOTAL FREE ENERGY PREDICTED BY IDOCK:   -4.35 KCAL/MOL
REMARK 923 INTER-LIGAND FREE ENERGY PREDICTED BY IDOCK:   -4.96 KCAL/MOL
REMARK 924 INTRA-LIGAND FREE ENERGY PREDICTED BY IDOCK:    0.61 KCAL/MOL
REMARK 927      BINDING AFFINITY PREDICTED BY RF-SCORE:    0.00 PKD
ROOT
HETATM    1  C   UNL     1      -8.471  10.601  63.623  1.00  0.00    -0.077 C  
HETATM    2  C   UNL     1      -9.122  10.083  64.904  1.00  0.00    -0.221 C  
ENDROOT
BRANCH   2   3
HETATM    3  N   UNL     1     -10.364  10.763  65.246  1.00  0.00    -0.277 NA 
HETATM    4  H   UNL     1     -10.992  11.094  64.514  1.00  0.00     0.000 HD 
BRANCH   3   5
HETATM    5  C   UNL     1     -10.681  10.954  66.589  1.00  0.00    -0.230 A  
HETATM    6  C   UNL     1     -11.221  12.325  68.460  1.00  0.00    -0.271 A  
HETATM    7  N   UNL     1     -11.352  11.323  69.339  1.00  0.00    -0.267 NA 
HETATM    8  C   UNL     1     -11.170  14.323  67.530  1.00  0.00    -0.307 A  
HETATM    9  H   UNL     1     -10.647  13.742  65.579  1.00  0.00     0.000 HD 
HETATM   10  N   UNL     1     -10.861  13.502  66.548  1.00  0.00    -0.282 NA 
HETATM   11  C   UNL     1     -11.112  10.140  68.740  1.00  0.00    -0.203 A  
HETATM   12  C   UNL     1     -10.892  12.243  67.118  1.00  0.00    -0.244 A  
HETATM   13  N   UNL     1     -11.402  13.654  68.702  1.00  0.00    -0.266 NA 
HETATM   14  N   UNL     1     -10.795   9.902  67.447  1.00  0.00    -0.269 NA 
ENDBRANCH   3   5
ENDBRANCH   2   3
BRANCH   2  15
HETATM   15  C   UNL     1      -8.266   9.947  66.176  1.00  0.00    -0.118 C  
HETATM   16  O   UNL     1      -6.876   7.723  68.656  1.00  0.00    -0.059 OA 
HETATM   17  C   UNL     1      -7.786  11.114  66.646  1.00  0.00    -0.155 C  
HETATM   18  C   UNL     1      -7.069  11.219  67.901  1.00  0.00    -0.078 A  
HETATM   19  N   UNL     1      -8.019   8.755  66.894  1.00  0.00    -0.098 N  
HETATM   20  C   UNL     1      -6.749  12.495  68.388  1.00  0.00    -0.081 A  
HETATM   21  C   UNL     1      -7.200   8.756  68.072  1.00  0.00    -0.083 C  
HETATM   22  C   UNL     1      -6.728  10.067  68.615  1.00  0.00    -0.053 A  
HETATM   23 CL   UNL     1      -5.449   8.909  70.801  1.00  0.00    -0.027 Cl 
HETATM   24  C   UNL     1      -6.079  12.637  69.595  1.00  0.00    -0.128 A  
HETATM   25  C   UNL     1      -5.702  11.498  70.300  1.00  0.00    -0.148 A  
HETATM   26  C   UNL     1      -6.011  10.217  69.816  1.00  0.00    -0.047 A  
BRANCH  19  27
HETATM   27  C   UNL     1      -8.579   7.470  66.563  1.00  0.00    -0.132 A  
HETATM   28  C   UNL     1      -8.141   6.814  65.398  1.00  0.00    -0.129 A  
HETATM   29  C   UNL     1      -8.648   5.560  65.039  1.00  0.00    -0.128 A  
HETATM   30  C   UNL     1      -9.609   4.945  65.839  1.00  0.00    -0.185 A  
HETATM   31  C   UNL     1     -10.076   5.600  66.981  1.00  0.00    -0.223 A  
HETATM   32  C   UNL     1      -9.579   6.865  67.329  1.00  0.00    -0.173 A  
ENDBRANCH  19  27
ENDBRANCH   2  15
TORSDOF 4
ENDMDL
MODEL      220
REMARK 921   NORMALIZED FREE ENERGY PREDICTED BY IDOCK:   -2.79 KCAL/MOL
REMARK 922        TOTAL FREE ENERGY PREDICTED BY IDOCK:   -4.32 KCAL/MOL
REMARK 923 INTER-LIGAND FREE ENERGY PREDICTED BY IDOCK:   -3.27 KCAL/MOL
REMARK 924 INTRA-LIGAND FREE ENERGY PREDICTED BY IDOCK:   -1.05 KCAL/MOL
REMARK 927      BINDING AFFINITY PREDICTED BY RF-SCORE:    0.00 PKD
ROOT
HETATM    1  C   UNL     1     -11.222   9.001  66.607  1.00  0.00     1.216 C  
HETATM    2  C   UNL     1     -11.090   9.893  67.840  1.00  0.00    -0.152 C  
ENDROOT
BRANCH   2   3
HETATM    3  N   UNL     1     -11.117  11.318  67.537  1.00  0.00    -0.267 NA 
HETATM    4  H   UNL     1     -10.840  11.657  66.616  1.00  0.00     0.000 HD 
BRANCH   3   5
HETATM    5  C   UNL     1     -11.528  12.209  68.525  1.00  0.00    -0.300 A  
HETATM    6  C   UNL     1     -11.234  14.146  69.879  1.00  0.00    -0.107 A  
HETATM    7  N   UNL     1     -12.395  14.038  70.538  1.00  0.00    -0.346 NA 
HETATM    8  C   UNL     1      -9.273  14.852  69.162  1.00  0.00    -0.142 A  
HETATM    9  H   UNL     1      -8.898  13.341  67.751  1.00  0.00     0.000 HD 
HETATM   10  N   UNL     1      -9.499  13.760  68.462  1.00  0.00    -0.196 NA 
HETATM   11  C   UNL     1     -13.071  12.951  70.119  1.00  0.00     0.815 A  
HETATM   12  C   UNL     1     -10.728  13.307  68.902  1.00  0.00    -0.184 A  
HETATM   13  N   UNL     1     -10.299  15.127  70.026  1.00  0.00    -0.207 NA 
HETATM   14  N   UNL     1     -12.715  12.053  69.173  1.00  0.00     0.458 NA 
ENDBRANCH   3   5
ENDBRANCH   2   3
BRANCH   2  15
HETATM   15  C   UNL     1      -9.955   9.621  68.843  1.00  0.00    -0.178 C  
HETATM   16  O   UNL     1      -9.036   8.333  72.087  1.00  0.00    -0.168 OA 
HETATM   17  C   UNL     1      -8.736  10.000  68.413  1.00  0.00    -0.117 C  
HETATM   18  C   UNL     1      -7.558   9.951  69.254  1.00  0.00    -0.101 A  
HETATM   19  N   UNL     1     -10.099   9.097  70.148  1.00  0.00    -0.190 N  
HETATM   20  C   UNL     1      -6.366  10.516  68.775  1.00  0.00    -0.047 A  
HETATM   21  C   UNL     1      -8.958   8.888  70.991  1.00  0.00    -0.241 C  
HETATM   22  C   UNL     1      -7.623   9.372  70.524  1.00  0.00    -0.162 A  
HETATM   23 CL   UNL     1      -6.319   8.595  72.859  1.00  0.00    -0.093 Cl 
HETATM   24  C   UNL     1      -5.221  10.505  69.559  1.00  0.00    -0.038 A  
HETATM   25  C   UNL     1      -5.261   9.900  70.812  1.00  0.00    -0.051 A  
HETATM   26  C   UNL     1      -6.447   9.326  71.296  1.00  0.00    -0.066 A  
BRANCH  19  27
HETATM   27  C   UNL     1     -11.359   8.773  70.764  1.00  0.00    -0.272 A  
HETATM   28  C   UNL     1     -12.164   9.815  71.260  1.00  0.00    -0.465 A  
HETATM   29  C   UNL     1     -13.402   9.551  71.859  1.00  0.00    -0.518 A  
HETATM   30  C   UNL     1     -13.851   8.238  71.975  1.00  0.00    -0.406 A  
HETATM   31  C   UNL     1     -13.047   7.192  71.516  1.00  0.00    -0.427 A  
HETATM   32  C   UNL     1     -11.799   7.457  70.933  1.00  0.00    -0.320 A  
ENDBRANCH  19  27
ENDBRANCH   2  15
TORSDOF 4
ENDMDL
MODEL      221
REMARK 921   NORMALIZED FREE ENERGY PREDICTED BY IDOCK:   -2.75 KCAL/MOL
REMARK 922        TOTAL FREE ENERGY PREDICTED BY IDOCK:   -4.26 KCAL/MOL
REMARK 923 INTER-LIGAND FREE ENERGY PREDICTED BY IDOCK:   -4.39 KCAL/MOL
REMARK 924 INTRA-LIGAND FREE ENERGY PREDICTED BY IDOCK:    0.12 KCAL/MOL
REMARK 927      BINDING AFFINITY PREDICTED BY RF-SCORE:    0.00 PKD
ROOT
HETATM    1  C   UNL     1     -10.527  10.122  69.311  1.00  0.00    -0.246 C  
HETATM    2  C   UNL     1      -9.188   9.435  69.569  1.00  0.00    -0.176 C  
ENDROOT
BRANCH   2   3
HETATM    3  N   UNL     1      -8.113   9.905  68.705  1.00  0.00    -0.098 NA 
HETATM    4  H   UNL     1      -7.645   9.264  68.065  1.00  0.00     0.000 HD 
BRANCH   3   5
HETATM    5  C   UNL     1      -7.735  11.244  68.767  1.00  0.00    -0.138 A  
HETATM    6  C   UNL     1      -7.899  13.521  68.088  1.00  0.00    -0.144 A  
HETATM    7  N   UNL     1      -6.962  13.988  68.923  1.00  0.00    -0.106 NA 
HETATM    8  C   UNL     1      -9.479  13.377  66.557  1.00  0.00    -0.245 A  
HETATM    9  H   UNL     1      -9.815  11.305  66.655  1.00  0.00     0.000 HD 
HETATM   10  N   UNL     1      -9.319  12.138  66.973  1.00  0.00    -0.195 NA 
HETATM   11  C   UNL     1      -6.444  12.982  69.655  1.00  0.00    -0.044 A  
HETATM   12  C   UNL     1      -8.330  12.214  67.936  1.00  0.00    -0.161 A  
HETATM   13  N   UNL     1      -8.646  14.247  67.209  1.00  0.00    -0.205 NA 
HETATM   14  N   UNL     1      -6.770  11.670  69.628  1.00  0.00    -0.099 NA 
ENDBRANCH   3   5
ENDBRANCH   2   3
BRANCH   2  15
HETATM   15  C   UNL     1      -9.134   7.899  69.636  1.00  0.00    -0.153 C  
HETATM   16  O   UNL     1      -8.411   4.824  67.891  1.00  0.00    -0.102 OA 
HETATM   17  C   UNL     1      -9.506   7.385  70.824  1.00  0.00    -0.167 C  
HETATM   18  C   UNL     1      -9.650   5.962  71.053  1.00  0.00    -0.197 A  
HETATM   19  N   UNL     1      -8.810   7.026  68.573  1.00  0.00    -0.125 N  
HETATM   20  C   UNL     1     -10.197   5.528  72.269  1.00  0.00    -0.244 A  
HETATM   21  C   UNL     1      -8.794   5.604  68.761  1.00  0.00    -0.108 C  
HETATM   22  C   UNL     1      -9.271   5.048  70.065  1.00  0.00    -0.182 A  
HETATM   23 CL   UNL     1      -8.932   2.401  69.270  1.00  0.00    -0.151 Cl 
HETATM   24  C   UNL     1     -10.368   4.173  72.517  1.00  0.00    -0.228 A  
HETATM   25  C   UNL     1      -9.961   3.250  71.558  1.00  0.00    -0.148 A  
HETATM   26  C   UNL     1      -9.406   3.675  70.341  1.00  0.00    -0.168 A  
BRANCH  19  27
HETATM   27  C   UNL     1      -8.518   7.449  67.228  1.00  0.00    -0.118 A  
HETATM   28  C   UNL     1      -7.206   7.313  66.738  1.00  0.00    -0.083 A  
HETATM   29  C   UNL     1      -6.876   7.702  65.435  1.00  0.00    -0.045 A  
HETATM   30  C   UNL     1      -7.855   8.239  64.602  1.00  0.00    -0.132 A  
HETATM   31  C   UNL     1      -9.154   8.410  65.087  1.00  0.00     0.087 A  
HETATM   32  C   UNL     1      -9.478   8.037  66.399  1.00  0.00    -0.268 A  
ENDBRANCH  19  27
ENDBRANCH   2  15
TORSDOF 4
ENDMDL
MODEL      222
REMARK 921   NORMALIZED FREE ENERGY PREDICTED BY IDOCK:   -2.56 KCAL/MOL
REMARK 922        TOTAL FREE ENERGY PREDICTED BY IDOCK:   -4.03 KCAL/MOL
REMARK 923 INTER-LIGAND FREE ENERGY PREDICTED BY IDOCK:   -2.83 KCAL/MOL
REMARK 924 INTRA-LIGAND FREE ENERGY PREDICTED BY IDOCK:   -1.20 KCAL/MOL
REMARK 927      BINDING AFFINITY PREDICTED BY RF-SCORE:    0.00 PKD
ROOT
HETATM    1  C   UNL     1      -5.387   6.464  66.144  1.00  0.00    -0.013 C  
HETATM    2  C   UNL     1      -6.285   7.280  67.072  1.00  0.00    -0.046 C  
ENDROOT
BRANCH   2   3
HETATM    3  N   UNL     1      -5.837   8.654  67.260  1.00  0.00    -0.043 NA 
HETATM    4  H   UNL     1      -4.861   8.856  67.476  1.00  0.00     0.000 HD 
BRANCH   3   5
HETATM    5  C   UNL     1      -6.764   9.687  67.141  1.00  0.00    -0.075 A  
HETATM    6  C   UNL     1      -7.438  11.959  67.373  1.00  0.00    -0.148 A  
HETATM    7  N   UNL     1      -8.668  11.796  66.869  1.00  0.00    -0.183 NA 
HETATM    8  C   UNL     1      -5.614  12.840  68.243  1.00  0.00    -0.070 A  
HETATM    9  H   UNL     1      -4.445  11.096  68.338  1.00  0.00     0.000 HD 
HETATM   10  N   UNL     1      -5.320  11.564  68.099  1.00  0.00    -0.043 NA 
HETATM   11  C   UNL     1      -8.867  10.508  66.526  1.00  0.00    -0.144 A  
HETATM   12  C   UNL     1      -6.457  11.000  67.552  1.00  0.00    -0.063 A  
HETATM   13  N   UNL     1      -6.882  13.124  67.811  1.00  0.00    -0.133 NA 
HETATM   14  N   UNL     1      -8.006   9.470  66.628  1.00  0.00    -0.108 NA 
ENDBRANCH   3   5
ENDBRANCH   2   3
BRANCH   2  15
HETATM   15  C   UNL     1      -6.676   6.696  68.441  1.00  0.00    -0.065 C  
HETATM   16  O   UNL     1      -8.733   4.338  70.241  1.00  0.00    -0.074 OA 
HETATM   17  C   UNL     1      -6.020   7.242  69.483  1.00  0.00    -0.027 C  
HETATM   18  C   UNL     1      -6.335   6.925  70.861  1.00  0.00    -0.040 A  
HETATM   19  N   UNL     1      -7.676   5.726  68.681  1.00  0.00    -0.089 N  
HETATM   20  C   UNL     1      -5.712   7.663  71.879  1.00  0.00    -0.036 A  
HETATM   21  C   UNL     1      -7.949   5.258  70.010  1.00  0.00    -0.080 C  
HETATM   22  C   UNL     1      -7.259   5.920  71.159  1.00  0.00    -0.074 A  
HETATM   23 CL   UNL     1      -8.574   4.383  73.073  1.00  0.00    -0.101 Cl 
HETATM   24  C   UNL     1      -6.002   7.401  73.211  1.00  0.00    -0.055 A  
HETATM   25  C   UNL     1      -6.892   6.379  73.524  1.00  0.00    -0.074 A  
HETATM   26  C   UNL     1      -7.514   5.631  72.512  1.00  0.00    -0.097 A  
BRANCH  19  27
HETATM   27  C   UNL     1      -8.527   5.161  67.667  1.00  0.00    -0.105 A  
HETATM   28  C   UNL     1      -8.138   3.964  67.038  1.00  0.00    -0.096 A  
HETATM   29  C   UNL     1      -8.936   3.371  66.053  1.00  0.00    -0.143 A  
HETATM   30  C   UNL     1     -10.136   3.972  65.677  1.00  0.00    -0.127 A  
HETATM   31  C   UNL     1     -10.517   5.177  66.271  1.00  0.00    -0.341 A  
HETATM   32  C   UNL     1      -9.707   5.779  67.244  1.00  0.00    -0.140 A  
ENDBRANCH  19  27
ENDBRANCH   2  15
TORSDOF 4
ENDMDL
MODEL      223
REMARK 921   NORMALIZED FREE ENERGY PREDICTED BY IDOCK:   -2.41 KCAL/MOL
REMARK 922        TOTAL FREE ENERGY PREDICTED BY IDOCK:   -3.85 KCAL/MOL
REMARK 923 INTER-LIGAND FREE ENERGY PREDICTED BY IDOCK:   -3.41 KCAL/MOL
REMARK 924 INTRA-LIGAND FREE ENERGY PREDICTED BY IDOCK:   -0.44 KCAL/MOL
REMARK 927      BINDING AFFINITY PREDICTED BY RF-SCORE:    0.00 PKD
ROOT
HETATM    1  C   UNL     1      -5.497   4.823  69.330  1.00  0.00    -0.008 C  
HETATM    2  C   UNL     1      -6.130   5.851  70.266  1.00  0.00    -0.026 C  
ENDROOT
BRANCH   2   3
HETATM    3  N   UNL     1      -6.590   5.288  71.528  1.00  0.00    -0.038 NA 
HETATM    4  H   UNL     1      -6.352   4.330  71.786  1.00  0.00     0.000 HD 
BRANCH   3   5
HETATM    5  C   UNL     1      -7.359   6.078  72.379  1.00  0.00    -0.090 A  
HETATM    6  C   UNL     1      -7.650   7.900  73.885  1.00  0.00    -0.159 A  
HETATM    7  N   UNL     1      -8.957   7.702  74.100  1.00  0.00    -0.236 NA 
HETATM    8  C   UNL     1      -5.606   8.724  73.928  1.00  0.00    -0.114 A  
HETATM    9  H   UNL     1      -4.692   7.352  72.626  1.00  0.00     0.000 HD 
HETATM   10  N   UNL     1      -5.520   7.690  73.117  1.00  0.00    -0.044 NA 
HETATM   11  C   UNL     1      -9.389   6.634  73.401  1.00  0.00    -0.137 A  
HETATM   12  C   UNL     1      -6.798   7.164  73.080  1.00  0.00    -0.069 A  
HETATM   13  N   UNL     1      -6.877   8.893  74.409  1.00  0.00    -0.375 NA 
HETATM   14  N   UNL     1      -8.684   5.831  72.571  1.00  0.00    -0.124 NA 
ENDBRANCH   3   5
ENDBRANCH   2   3
BRANCH   2  15
HETATM   15  C   UNL     1      -7.217   6.792  69.718  1.00  0.00    -0.077 C  
HETATM   16  O   UNL     1     -10.380   7.078  68.003  1.00  0.00    -0.172 OA 
HETATM   17  C   UNL     1      -6.965   8.101  69.915  1.00  0.00    -0.048 C  
HETATM   18  C   UNL     1      -7.796   9.151  69.363  1.00  0.00    -0.095 A  
HETATM   19  N   UNL     1      -8.370   6.408  68.996  1.00  0.00    -0.118 N  
HETATM   20  C   UNL     1      -7.365  10.481  69.482  1.00  0.00    -0.148 A  
HETATM   21  C   UNL     1      -9.315   7.385  68.537  1.00  0.00    -0.141 C  
HETATM   22  C   UNL     1      -8.988   8.834  68.706  1.00  0.00    -0.138 A  
HETATM   23 CL   UNL     1     -11.305   9.696  67.425  1.00  0.00     0.231 Cl 
HETATM   24  C   UNL     1      -8.125  11.514  68.950  1.00  0.00    -0.035 A  
HETATM   25  C   UNL     1      -9.332  11.216  68.325  1.00  0.00    -0.176 A  
HETATM   26  C   UNL     1      -9.774   9.889  68.208  1.00  0.00    -0.144 A  
BRANCH  19  27
HETATM   27  C   UNL     1      -8.684   5.056  68.617  1.00  0.00    -0.093 A  
HETATM   28  C   UNL     1      -9.141   4.159  69.600  1.00  0.00    -0.184 A  
HETATM   29  C   UNL     1      -9.468   2.837  69.277  1.00  0.00    -0.145 A  
HETATM   30  C   UNL     1      -9.335   2.389  67.965  1.00  0.00    -0.253 A  
HETATM   31  C   UNL     1      -8.851   3.260  66.986  1.00  0.00    -0.152 A  
HETATM   32  C   UNL     1      -8.508   4.579  67.314  1.00  0.00    -0.104 A  
ENDBRANCH  19  27
ENDBRANCH   2  15
TORSDOF 4
ENDMDL
MODEL      224
REMARK 921   NORMALIZED FREE ENERGY PREDICTED BY IDOCK:   -1.97 KCAL/MOL
REMARK 922        TOTAL FREE ENERGY PREDICTED BY IDOCK:   -3.31 KCAL/MOL
REMARK 923 INTER-LIGAND FREE ENERGY PREDICTED BY IDOCK:   -4.58 KCAL/MOL
REMARK 924 INTRA-LIGAND FREE ENERGY PREDICTED BY IDOCK:    1.27 KCAL/MOL
REMARK 927      BINDING AFFINITY PREDICTED BY RF-SCORE:    0.00 PKD
ROOT
HETATM    1  C   UNL     1     -11.175  16.317  66.089  1.00  0.00     0.284 C  
HETATM    2  C   UNL     1     -10.433  16.313  67.424  1.00  0.00    -0.304 C  
ENDROOT
BRANCH   2   3
HETATM    3  N   UNL     1      -9.012  16.012  67.302  1.00  0.00    -0.193 NA 
HETATM    4  H   UNL     1      -8.317  16.755  67.376  1.00  0.00     0.000 HD 
BRANCH   3   5
HETATM    5  C   UNL     1      -8.619  14.694  67.084  1.00  0.00    -0.223 A  
HETATM    6  C   UNL     1      -7.596  12.653  67.763  1.00  0.00    -0.141 A  
HETATM    7  N   UNL     1      -7.839  11.986  66.627  1.00  0.00    -0.033 NA 
HETATM    8  C   UNL     1      -6.940  13.183  69.799  1.00  0.00     0.357 A  
HETATM    9  H   UNL     1      -7.615  15.173  69.834  1.00  0.00     0.000 HD 
HETATM   10  N   UNL     1      -7.508  14.282  69.347  1.00  0.00    -0.036 NA 
HETATM   11  C   UNL     1      -8.485  12.778  65.749  1.00  0.00     1.268 A  
HETATM   12  C   UNL     1      -7.926  13.962  68.069  1.00  0.00    -0.154 A  
HETATM   13  N   UNL     1      -6.977  12.171  68.877  1.00  0.00    -0.102 NA 
HETATM   14  N   UNL     1      -8.882  14.061  65.908  1.00  0.00     0.515 NA 
ENDBRANCH   3   5
ENDBRANCH   2   3
BRANCH   2  15
HETATM   15  C   UNL     1     -11.011  15.507  68.600  1.00  0.00    -0.279 C  
HETATM   16  O   UNL     1     -12.590  12.445  69.677  1.00  0.00     0.103 OA 
HETATM   17  C   UNL     1     -10.947  16.141  69.787  1.00  0.00    -0.349 C  
HETATM   18  C   UNL     1     -11.552  15.611  70.992  1.00  0.00    -0.434 A  
HETATM   19  N   UNL     1     -11.638  14.243  68.520  1.00  0.00    -0.301 N  
HETATM   20  C   UNL     1     -11.576  16.415  72.142  1.00  0.00    -0.336 A  
HETATM   21  C   UNL     1     -12.138  13.590  69.695  1.00  0.00    -0.306 C  
HETATM   22  C   UNL     1     -12.118  14.333  70.993  1.00  0.00    -0.416 A  
HETATM   23 CL   UNL     1     -13.359  12.276  72.402  1.00  0.00    -0.426 Cl 
HETATM   24  C   UNL     1     -12.163  15.949  73.311  1.00  0.00    -0.625 A  
HETATM   25  C   UNL     1     -12.699  14.665  73.336  1.00  0.00    -0.528 A  
HETATM   26  C   UNL     1     -12.673  13.851  72.193  1.00  0.00    -0.230 A  
BRANCH  19  27
HETATM   27  C   UNL     1     -11.877  13.525  67.296  1.00  0.00    -0.385 A  
HETATM   28  C   UNL     1     -11.312  12.247  67.132  1.00  0.00    -0.398 A  
HETATM   29  C   UNL     1     -11.524  11.507  65.963  1.00  0.00    -0.093 A  
HETATM   30  C   UNL     1     -12.299  12.038  64.936  1.00  0.00    -0.106 A  
HETATM   31  C   UNL     1     -12.839  13.319  65.072  1.00  0.00    -0.356 A  
HETATM   32  C   UNL     1     -12.611  14.067  66.237  1.00  0.00    -0.352 A  
ENDBRANCH  19  27
ENDBRANCH   2  15
TORSDOF 4
ENDMDL
MODEL      225
REMARK 921   NORMALIZED FREE ENERGY PREDICTED BY IDOCK:   -1.51 KCAL/MOL
REMARK 922        TOTAL FREE ENERGY PREDICTED BY IDOCK:   -2.73 KCAL/MOL
REMARK 923 INTER-LIGAND FREE ENERGY PREDICTED BY IDOCK:   -4.87 KCAL/MOL
REMARK 924 INTRA-LIGAND FREE ENERGY PREDICTED BY IDOCK:    2.14 KCAL/MOL
REMARK 927      BINDING AFFINITY PREDICTED BY RF-SCORE:    0.00 PKD
ROOT
HETATM    1  C   UNL     1     -10.170  10.195  68.136  1.00  0.00    -0.200 C  
HETATM    2  C   UNL     1     -11.573  10.741  68.395  1.00  0.00    -0.239 C  
ENDROOT
BRANCH   2   3
HETATM    3  N   UNL     1     -12.263  11.181  67.189  1.00  0.00     0.514 NA 
HETATM    4  H   UNL     1     -13.257  10.994  67.064  1.00  0.00     0.000 HD 
BRANCH   3   5
HETATM    5  C   UNL     1     -11.541  11.861  66.211  1.00  0.00    -0.246 A  
HETATM    6  C   UNL     1      -9.966  11.954  64.427  1.00  0.00    -0.234 A  
HETATM    7  N   UNL     1     -10.088  13.267  64.196  1.00  0.00    -0.274 NA 
HETATM    8  C   UNL     1      -9.354   9.839  64.313  1.00  0.00    -0.190 A  
HETATM    9  H   UNL     1     -10.538   9.090  65.879  1.00  0.00     0.000 HD 
HETATM   10  N   UNL     1     -10.224   9.870  65.301  1.00  0.00    -0.175 NA 
HETATM   11  C   UNL     1     -10.977  13.812  65.050  1.00  0.00    -0.357 A  
HETATM   12  C   UNL     1     -10.618  11.193  65.382  1.00  0.00    -0.227 A  
HETATM   13  N   UNL     1      -9.173  11.075  63.752  1.00  0.00    -0.198 NA 
HETATM   14  N   UNL     1     -11.695  13.200  66.019  1.00  0.00    -0.360 NA 
ENDBRANCH   3   5
ENDBRANCH   2   3
BRANCH   2  15
HETATM   15  C   UNL     1     -11.774  11.800  69.494  1.00  0.00    -0.343 C  
HETATM   16  O   UNL     1     -13.042  12.524  72.794  1.00  0.00    -0.082 OA 
HETATM   17  C   UNL     1     -11.307  13.022  69.174  1.00  0.00    -0.328 C  
HETATM   18  C   UNL     1     -11.512  14.185  70.014  1.00  0.00    -0.258 A  
HETATM   19  N   UNL     1     -12.443  11.612  70.725  1.00  0.00    -0.357 N  
HETATM   20  C   UNL     1     -11.134  15.444  69.524  1.00  0.00    -0.284 A  
HETATM   21  C   UNL     1     -12.564  12.683  71.672  1.00  0.00    -0.081 C  
HETATM   22  C   UNL     1     -12.098  14.047  71.275  1.00  0.00    -0.307 A  
HETATM   23 CL   UNL     1     -12.900  15.218  73.671  1.00  0.00    -0.654 Cl 
HETATM   24  C   UNL     1     -11.332  16.583  70.292  1.00  0.00    -0.073 A  
HETATM   25  C   UNL     1     -11.881  16.457  71.564  1.00  0.00    -0.289 A  
HETATM   26  C   UNL     1     -12.256  15.201  72.065  1.00  0.00    -0.364 A  
BRANCH  19  27
HETATM   27  C   UNL     1     -13.090  10.391  71.125  1.00  0.00    -0.383 A  
HETATM   28  C   UNL     1     -13.499   9.478  70.135  1.00  0.00     1.008 A  
HETATM   29  C   UNL     1     -14.124   8.273  70.475  1.00  0.00     1.031 A  
HETATM   30  C   UNL     1     -14.355   7.964  71.813  1.00  0.00    -0.589 A  
HETATM   31  C   UNL     1     -13.984   8.876  72.804  1.00  0.00    -0.244 A  
HETATM   32  C   UNL     1     -13.374  10.091  72.460  1.00  0.00    -0.089 A  
ENDBRANCH  19  27
ENDBRANCH   2  15
TORSDOF 4
ENDMDL
MODEL      226
REMARK 921   NORMALIZED FREE ENERGY PREDICTED BY IDOCK:   -0.99 KCAL/MOL
REMARK 922        TOTAL FREE ENERGY PREDICTED BY IDOCK:   -2.10 KCAL/MOL
REMARK 923 INTER-LIGAND FREE ENERGY PREDICTED BY IDOCK:   -5.35 KCAL/MOL
REMARK 924 INTRA-LIGAND FREE ENERGY PREDICTED BY IDOCK:    3.25 KCAL/MOL
REMARK 927      BINDING AFFINITY PREDICTED BY RF-SCORE:    0.00 PKD
ROOT
HETATM    1  C   UNL     1     -10.093   6.728  66.584  1.00  0.00    -0.205 C  
HETATM    2  C   UNL     1     -10.613   7.139  67.960  1.00  0.00    -0.196 C  
ENDROOT
BRANCH   2   3
HETATM    3  N   UNL     1     -10.943   8.555  68.062  1.00  0.00    -0.471 NA 
HETATM    4  H   UNL     1     -11.820   8.853  68.487  1.00  0.00     0.000 HD 
BRANCH   3   5
HETATM    5  C   UNL     1     -10.040   9.494  67.570  1.00  0.00    -0.204 A  
HETATM    6  C   UNL     1      -9.377  11.724  67.059  1.00  0.00    -0.184 A  
HETATM    7  N   UNL     1      -8.168  11.408  66.578  1.00  0.00    -0.167 NA 
HETATM    8  C   UNL     1     -11.160  12.841  67.717  1.00  0.00    -0.253 A  
HETATM    9  H   UNL     1     -12.326  11.213  68.356  1.00  0.00     0.000 HD 
HETATM   10  N   UNL     1     -11.461  11.582  67.957  1.00  0.00    -0.353 NA 
HETATM   11  C   UNL     1      -7.980  10.075  66.625  1.00  0.00    -0.115 A  
HETATM   12  C   UNL     1     -10.349  10.869  67.549  1.00  0.00    -0.202 A  
HETATM   13  N   UNL     1      -9.907  12.974  67.181  1.00  0.00    -0.226 NA 
HETATM   14  N   UNL     1      -8.824   9.122  67.084  1.00  0.00    -0.119 NA 
ENDBRANCH   3   5
ENDBRANCH   2   3
BRANCH   2  15
HETATM   15  C   UNL     1      -9.824   6.723  69.214  1.00  0.00    -0.155 C  
HETATM   16  O   UNL     1      -7.881   4.157  70.846  1.00  0.00    -0.057 OA 
HETATM   17  C   UNL     1      -9.792   7.660  70.182  1.00  0.00    -0.184 C  
HETATM   18  C   UNL     1      -9.214   7.418  71.488  1.00  0.00    -0.149 A  
HETATM   19  N   UNL     1      -9.221   5.466  69.445  1.00  0.00    -0.114 N  
HETATM   20  C   UNL     1      -9.371   8.395  72.484  1.00  0.00    -0.346 A  
HETATM   21  C   UNL     1      -8.508   5.199  70.661  1.00  0.00    -0.116 C  
HETATM   22  C   UNL     1      -8.537   6.224  71.749  1.00  0.00    -0.133 A  
HETATM   23 CL   UNL     1      -7.047   4.663  73.510  1.00  0.00    -0.070 Cl 
HETATM   24  C   UNL     1      -8.847   8.191  73.753  1.00  0.00    -0.265 A  
HETATM   25  C   UNL     1      -8.140   7.022  74.016  1.00  0.00    -0.146 A  
HETATM   26  C   UNL     1      -7.972   6.044  73.024  1.00  0.00    -0.109 A  
BRANCH  19  27
HETATM   27  C   UNL     1      -9.294   4.347  68.542  1.00  0.00    -0.145 A  
HETATM   28  C   UNL     1      -9.316   3.043  69.071  1.00  0.00    -0.226 A  
HETATM   29  C   UNL     1      -9.397   1.924  68.234  1.00  0.00    -0.249 A  
HETATM   30  C   UNL     1      -9.450   2.093  66.852  1.00  0.00     0.129 A  
HETATM   31  C   UNL     1      -9.396   3.381  66.313  1.00  0.00    -0.157 A  
HETATM   32  C   UNL     1      -9.298   4.500  67.153  1.00  0.00    -0.163 A  
ENDBRANCH  19  27
ENDBRANCH   2  15
TORSDOF 4
ENDMDL
MODEL      227
REMARK 921   NORMALIZED FREE ENERGY PREDICTED BY IDOCK:    0.74 KCAL/MOL
REMARK 922        TOTAL FREE ENERGY PREDICTED BY IDOCK:    0.04 KCAL/MOL
REMARK 923 INTER-LIGAND FREE ENERGY PREDICTED BY IDOCK:   -3.22 KCAL/MOL
REMARK 924 INTRA-LIGAND FREE ENERGY PREDICTED BY IDOCK:    3.25 KCAL/MOL
REMARK 927      BINDING AFFINITY PREDICTED BY RF-SCORE:    0.00 PKD
ROOT
HETATM    1  C   UNL     1     -10.123  19.515  69.686  1.00  0.00     0.058 C  
HETATM    2  C   UNL     1      -9.737  18.051  69.893  1.00  0.00     0.979 C  
ENDROOT
BRANCH   2   3
HETATM    3  N   UNL     1      -8.298  17.823  69.914  1.00  0.00     1.376 NA 
HETATM    4  H   UNL     1      -7.743  18.090  70.727  1.00  0.00     0.000 HD 
BRANCH   3   5
HETATM    5  C   UNL     1      -7.693  17.234  68.807  1.00  0.00    -0.261 A  
HETATM    6  C   UNL     1      -6.885  17.277  66.567  1.00  0.00    -0.257 A  
HETATM    7  N   UNL     1      -6.430  16.017  66.554  1.00  0.00     0.032 NA 
HETATM    8  C   UNL     1      -7.392  19.343  65.990  1.00  0.00    -0.290 A  
HETATM    9  H   UNL     1      -8.295  19.953  67.786  1.00  0.00     0.000 HD 
HETATM   10  N   UNL     1      -7.828  19.238  67.228  1.00  0.00    -0.251 NA 
HETATM   11  C   UNL     1      -6.666  15.423  67.740  1.00  0.00    -0.166 A  
HETATM   12  C   UNL     1      -7.514  17.945  67.603  1.00  0.00    -0.203 A  
HETATM   13  N   UNL     1      -6.808  18.184  65.552  1.00  0.00    -0.486 NA 
HETATM   14  N   UNL     1      -7.254  15.946  68.840  1.00  0.00    -0.146 NA 
ENDBRANCH   3   5
ENDBRANCH   2   3
BRANCH   2  15
HETATM   15  C   UNL     1     -10.397  16.971  69.019  1.00  0.00    -0.330 C  
HETATM   16  O   UNL     1     -12.658  14.162  68.882  1.00  0.00    -0.045 OA 
HETATM   17  C   UNL     1     -10.027  17.008  67.724  1.00  0.00    -0.280 C  
HETATM   18  C   UNL     1     -10.433  16.002  66.764  1.00  0.00    -0.308 A  
HETATM   19  N   UNL     1     -11.263  15.948  69.464  1.00  0.00    -0.300 N  
HETATM   20  C   UNL     1      -9.869  16.032  65.479  1.00  0.00    -0.224 A  
HETATM   21  C   UNL     1     -11.818  14.995  68.546  1.00  0.00    -0.291 C  
HETATM   22  C   UNL     1     -11.348  15.011  67.127  1.00  0.00    -0.323 A  
HETATM   23 CL   UNL     1     -12.895  12.812  66.398  1.00  0.00     0.795 Cl 
HETATM   24  C   UNL     1     -10.218  15.074  64.538  1.00  0.00     0.404 A  
HETATM   25  C   UNL     1     -11.156  14.103  64.874  1.00  0.00    -0.389 A  
HETATM   26  C   UNL     1     -11.730  14.069  66.154  1.00  0.00    -0.384 A  
BRANCH  19  27
HETATM   27  C   UNL     1     -11.631  15.730  70.839  1.00  0.00    -0.405 A  
HETATM   28  C   UNL     1     -12.081  14.456  71.232  1.00  0.00    -0.405 A  
HETATM   29  C   UNL     1     -12.440  14.193  72.559  1.00  0.00    -0.192 A  
HETATM   30  C   UNL     1     -12.361  15.204  73.513  1.00  0.00    -0.632 A  
HETATM   31  C   UNL     1     -11.946  16.481  73.130  1.00  0.00    -0.469 A  
HETATM   32  C   UNL     1     -11.604  16.748  71.796  1.00  0.00     0.177 A  
ENDBRANCH  19  27
ENDBRANCH   2  15
TORSDOF 4
ENDMDL
MODEL      228
REMARK 921   NORMALIZED FREE ENERGY PREDICTED BY IDOCK:    1.98 KCAL/MOL
REMARK 922        TOTAL FREE ENERGY PREDICTED BY IDOCK:    1.56 KCAL/MOL
REMARK 923 INTER-LIGAND FREE ENERGY PREDICTED BY IDOCK:    1.72 KCAL/MOL
REMARK 924 INTRA-LIGAND FREE ENERGY PREDICTED BY IDOCK:   -0.16 KCAL/MOL
REMARK 927      BINDING AFFINITY PREDICTED BY RF-SCORE:    0.00 PKD
ROOT
HETATM    1  C   UNL     1     -11.183  11.124  67.385  1.00  0.00    -0.363 C  
HETATM    2  C   UNL     1     -12.344  11.989  67.874  1.00  0.00     0.711 C  
ENDROOT
BRANCH   2   3
HETATM    3  N   UNL     1     -12.775  12.990  66.907  1.00  0.00     0.179 NA 
HETATM    4  H   UNL     1     -13.716  13.381  66.951  1.00  0.00     0.000 HD 
BRANCH   3   5
HETATM    5  C   UNL     1     -11.883  13.403  65.921  1.00  0.00    -0.376 A  
HETATM    6  C   UNL     1     -10.399  14.987  64.941  1.00  0.00    -0.282 A  
HETATM    7  N   UNL     1     -10.039  14.224  63.902  1.00  0.00     1.303 NA 
HETATM    8  C   UNL     1     -10.574  16.651  66.377  1.00  0.00    -0.200 A  
HETATM    9  H   UNL     1     -11.968  15.783  67.688  1.00  0.00     0.000 HD 
HETATM   10  N   UNL     1     -11.389  15.731  66.849  1.00  0.00    -0.050 NA 
HETATM   11  C   UNL     1     -10.676  13.037  63.950  1.00  0.00    -0.284 A  
HETATM   12  C   UNL     1     -11.288  14.680  65.957  1.00  0.00    -0.344 A  
HETATM   13  N   UNL     1      -9.950  16.241  65.229  1.00  0.00    -0.482 NA 
HETATM   14  N   UNL     1     -11.554  12.592  64.877  1.00  0.00    -0.328 NA 
ENDBRANCH   3   5
ENDBRANCH   2   3
BRANCH   2  15
HETATM   15  C   UNL     1     -12.255  12.648  69.262  1.00  0.00    -0.038 C  
HETATM   16  O   UNL     1     -12.370  12.181  72.839  1.00  0.00     1.991 OA 
HETATM   17  C   UNL     1     -12.049  13.979  69.229  1.00  0.00    -0.380 C  
HETATM   18  C   UNL     1     -12.064  14.804  70.419  1.00  0.00    -0.381 A  
HETATM   19  N   UNL     1     -12.436  12.004  70.507  1.00  0.00    -0.254 N  
HETATM   20  C   UNL     1     -12.003  16.198  70.271  1.00  0.00    -0.084 A  
HETATM   21  C   UNL     1     -12.326  12.731  71.739  1.00  0.00     0.379 C  
HETATM   22  C   UNL     1     -12.162  14.216  71.683  1.00  0.00    -0.291 A  
HETATM   23 CL   UNL     1     -12.198  14.508  74.452  1.00  0.00     0.313 Cl 
HETATM   24  C   UNL     1     -12.033  17.023  71.387  1.00  0.00     1.625 A  
HETATM   25  C   UNL     1     -12.095  16.450  72.654  1.00  0.00    -0.554 A  
HETATM   26  C   UNL     1     -12.149  15.056  72.811  1.00  0.00    -0.326 A  
BRANCH  19  27
HETATM   27  C   UNL     1     -12.783  10.616  70.666  1.00  0.00    -0.359 A  
HETATM   28  C   UNL     1     -11.763   9.647  70.625  1.00  0.00    -0.353 A  
HETATM   29  C   UNL     1     -12.050   8.287  70.785  1.00  0.00    -0.065 A  
HETATM   30  C   UNL     1     -13.366   7.873  70.981  1.00  0.00     0.023 A  
HETATM   31  C   UNL     1     -14.392   8.821  70.991  1.00  0.00     0.014 A  
HETATM   32  C   UNL     1     -14.104  10.182  70.813  1.00  0.00     0.973 A  
ENDBRANCH  19  27
ENDBRANCH   2  15
TORSDOF 4
ENDMDL
MODEL      229
REMARK 921   NORMALIZED FREE ENERGY PREDICTED BY IDOCK:    5.52 KCAL/MOL
REMARK 922        TOTAL FREE ENERGY PREDICTED BY IDOCK:    5.94 KCAL/MOL
REMARK 923 INTER-LIGAND FREE ENERGY PREDICTED BY IDOCK:    5.19 KCAL/MOL
REMARK 924 INTRA-LIGAND FREE ENERGY PREDICTED BY IDOCK:    0.76 KCAL/MOL
REMARK 927      BINDING AFFINITY PREDICTED BY RF-SCORE:    0.00 PKD
ROOT
HETATM    1  C   UNL     1      -9.373  19.758  70.234  1.00  0.00     1.044 C  
HETATM    2  C   UNL     1      -8.459  18.580  69.899  1.00  0.00     1.415 C  
ENDROOT
BRANCH   2   3
HETATM    3  N   UNL     1      -7.149  18.978  69.402  1.00  0.00    -0.228 NA 
HETATM    4  H   UNL     1      -6.451  19.368  70.035  1.00  0.00     0.000 HD 
BRANCH   3   5
HETATM    5  C   UNL     1      -6.864  18.818  68.049  1.00  0.00    -0.229 A  
HETATM    6  C   UNL     1      -7.239  19.271  65.741  1.00  0.00    -0.264 A  
HETATM    7  N   UNL     1      -6.251  18.493  65.279  1.00  0.00    -0.307 NA 
HETATM    8  C   UNL     1      -8.936  20.672  65.871  1.00  0.00     0.496 A  
HETATM    9  H   UNL     1      -9.160  20.693  67.960  1.00  0.00     0.000 HD 
HETATM   10  N   UNL     1      -8.679  20.360  67.124  1.00  0.00    -0.337 NA 
HETATM   11  C   UNL     1      -5.612  17.892  66.302  1.00  0.00    -0.187 A  
HETATM   12  C   UNL     1      -7.613  19.481  67.056  1.00  0.00    -0.242 A  
HETATM   13  N   UNL     1      -8.085  20.042  65.001  1.00  0.00     0.261 NA 
HETATM   14  N   UNL     1      -5.853  18.008  67.627  1.00  0.00    -0.149 NA 
ENDBRANCH   3   5
ENDBRANCH   2   3
BRANCH   2  15
HETATM   15  C   UNL     1      -8.999  17.442  69.016  1.00  0.00    -0.062 C  
HETATM   16  O   UNL     1      -8.784  13.951  68.122  1.00  0.00    -0.168 OA 
HETATM   17  C   UNL     1      -9.980  17.816  68.171  1.00  0.00    -0.342 C  
HETATM   18  C   UNL     1     -10.531  16.929  67.168  1.00  0.00    -0.296 A  
HETATM   19  N   UNL     1      -8.516  16.114  68.974  1.00  0.00    -0.244 N  
HETATM   20  C   UNL     1     -11.432  17.453  66.228  1.00  0.00     1.416 A  
HETATM   21  C   UNL     1      -9.107  15.139  68.104  1.00  0.00    -0.176 C  
HETATM   22  C   UNL     1     -10.149  15.585  67.129  1.00  0.00    -0.254 A  
HETATM   23 CL   UNL     1     -10.428  13.059  65.990  1.00  0.00    -0.281 Cl 
HETATM   24  C   UNL     1     -11.967  16.639  65.240  1.00  0.00     1.749 A  
HETATM   25  C   UNL     1     -11.624  15.291  65.211  1.00  0.00    -0.139 A  
HETATM   26  C   UNL     1     -10.729  14.756  66.152  1.00  0.00    -0.314 A  
BRANCH  19  27
HETATM   27  C   UNL     1      -7.395  15.628  69.735  1.00  0.00    -0.065 A  
HETATM   28  C   UNL     1      -6.268  15.136  69.052  1.00  0.00    -0.099 A  
HETATM   29  C   UNL     1      -5.149  14.663  69.748  1.00  0.00    -0.092 A  
HETATM   30  C   UNL     1      -5.145  14.668  71.140  1.00  0.00    -0.132 A  
HETATM   31  C   UNL     1      -6.270  15.123  71.831  1.00  0.00     1.015 A  
HETATM   32  C   UNL     1      -7.397  15.581  71.132  1.00  0.00     2.397 A  
ENDBRANCH  19  27
ENDBRANCH   2  15
TORSDOF 4
ENDMDL
MODEL      230
REMARK 921   NORMALIZED FREE ENERGY PREDICTED BY IDOCK:    9.65 KCAL/MOL
REMARK 922        TOTAL FREE ENERGY PREDICTED BY IDOCK:   11.03 KCAL/MOL
REMARK 923 INTER-LIGAND FREE ENERGY PREDICTED BY IDOCK:    3.31 KCAL/MOL
REMARK 924 INTRA-LIGAND FREE ENERGY PREDICTED BY IDOCK:    7.72 KCAL/MOL
REMARK 927      BINDING AFFINITY PREDICTED BY RF-SCORE:    0.00 PKD
ROOT
HETATM    1  C   UNL     1     -12.703  13.101  66.858  1.00  0.00     0.694 C  
HETATM    2  C   UNL     1     -11.763  13.243  68.053  1.00  0.00    -0.359 C  
ENDROOT
BRANCH   2   3
HETATM    3  N   UNL     1     -11.014  14.493  68.062  1.00  0.00    -0.254 NA 
HETATM    4  H   UNL     1     -11.476  15.372  68.292  1.00  0.00     0.000 HD 
BRANCH   3   5
HETATM    5  C   UNL     1      -9.656  14.467  67.753  1.00  0.00    -0.215 A  
HETATM    6  C   UNL     1      -7.365  14.140  68.316  1.00  0.00    -0.120 A  
HETATM    7  N   UNL     1      -6.879  14.398  67.095  1.00  0.00    -0.099 NA 
HETATM    8  C   UNL     1      -7.541  13.618  70.451  1.00  0.00     2.109 A  
HETATM    9  H   UNL     1      -9.628  13.769  70.635  1.00  0.00     0.000 HD 
HETATM   10  N   UNL     1      -8.782  13.831  70.068  1.00  0.00     1.991 NA 
HETATM   11  C   UNL     1      -7.881  14.699  66.246  1.00  0.00     1.528 A  
HETATM   12  C   UNL     1      -8.687  14.159  68.728  1.00  0.00    -0.065 A  
HETATM   13  N   UNL     1      -6.652  13.787  69.422  1.00  0.00    -0.111 NA 
HETATM   14  N   UNL     1      -9.209  14.745  66.497  1.00  0.00    -0.274 NA 
ENDBRANCH   3   5
ENDBRANCH   2   3
BRANCH   2  15
HETATM   15  C   UNL     1     -10.804  12.089  68.394  1.00  0.00    -0.233 C  
HETATM   16  O   UNL     1      -8.243   9.840  67.206  1.00  0.00    -0.116 OA 
HETATM   17  C   UNL     1     -10.888  11.660  69.668  1.00  0.00    -0.001 C  
HETATM   18  C   UNL     1     -10.167  10.502  70.154  1.00  0.00     0.081 A  
HETATM   19  N   UNL     1      -9.936  11.429  67.494  1.00  0.00    -0.181 N  
HETATM   20  C   UNL     1     -10.441  10.034  71.448  1.00  0.00     0.640 A  
HETATM   21  C   UNL     1      -9.086  10.361  67.936  1.00  0.00    -0.132 C  
HETATM   22  C   UNL     1      -9.238   9.855  69.335  1.00  0.00    -0.225 A  
HETATM   23 CL   UNL     1      -7.316   7.864  69.018  1.00  0.00    -0.086 Cl 
HETATM   24  C   UNL     1      -9.783   8.915  71.943  1.00  0.00    -0.349 A  
HETATM   25  C   UNL     1      -8.829   8.283  71.151  1.00  0.00    -0.182 A  
HETATM   26  C   UNL     1      -8.544   8.749  69.858  1.00  0.00    -0.133 A  
BRANCH  19  27
HETATM   27  C   UNL     1      -9.850  11.712  66.086  1.00  0.00    -0.223 A  
HETATM   28  C   UNL     1      -9.635  10.651  65.187  1.00  0.00    -0.304 A  
HETATM   29  C   UNL     1      -9.553  10.876  63.808  1.00  0.00    -0.331 A  
HETATM   30  C   UNL     1      -9.679  12.169  63.307  1.00  0.00    -0.007 A  
HETATM   31  C   UNL     1      -9.860  13.236  64.190  1.00  0.00     0.493 A  
HETATM   32  C   UNL     1      -9.924  13.011  65.573  1.00  0.00    -0.226 A  
ENDBRANCH  19  27
ENDBRANCH   2  15
TORSDOF 4
ENDMDL
MODEL      231
REMARK 921   NORMALIZED FREE ENERGY PREDICTED BY IDOCK:   10.91 KCAL/MOL
REMARK 922        TOTAL FREE ENERGY PREDICTED BY IDOCK:   12.59 KCAL/MOL
REMARK 923 INTER-LIGAND FREE ENERGY PREDICTED BY IDOCK:   11.34 KCAL/MOL
REMARK 924 INTRA-LIGAND FREE ENERGY PREDICTED BY IDOCK:    1.26 KCAL/MOL
REMARK 927      BINDING AFFINITY PREDICTED BY RF-SCORE:    0.00 PKD
ROOT
HETATM    1  C   UNL     1      -9.042   9.999  72.378  1.00  0.00     5.421 C  
HETATM    2  C   UNL     1      -9.378   9.499  70.974  1.00  0.00    -0.001 C  
ENDROOT
BRANCH   2   3
HETATM    3  N   UNL     1      -9.006   8.109  70.744  1.00  0.00    -0.142 NA 
HETATM    4  H   UNL     1      -8.432   7.852  69.941  1.00  0.00     0.000 HD 
BRANCH   3   5
HETATM    5  C   UNL     1      -9.447   7.136  71.638  1.00  0.00    -0.152 A  
HETATM    6  C   UNL     1      -9.137   5.172  72.948  1.00  0.00    -0.122 A  
HETATM    7  N   UNL     1     -10.362   5.164  73.489  1.00  0.00    -0.196 NA 
HETATM    8  C   UNL     1      -7.055   4.663  72.433  1.00  0.00    -0.074 A  
HETATM    9  H   UNL     1      -6.678   6.231  71.085  1.00  0.00     0.000 HD 
HETATM   10  N   UNL     1      -7.307   5.744  71.725  1.00  0.00    -0.091 NA 
HETATM   11  C   UNL     1     -11.084   6.204  73.027  1.00  0.00    -0.218 A  
HETATM   12  C   UNL     1      -8.612   6.075  72.041  1.00  0.00    -0.136 A  
HETATM   13  N   UNL     1      -8.130   4.286  73.192  1.00  0.00    -0.090 NA 
HETATM   14  N   UNL     1     -10.707   7.167  72.156  1.00  0.00    -0.210 NA 
ENDBRANCH   3   5
ENDBRANCH   2   3
BRANCH   2  15
HETATM   15  C   UNL     1      -8.945  10.335  69.757  1.00  0.00    -0.049 C  
HETATM   16  O   UNL     1      -8.965  10.673  66.164  1.00  0.00    -0.158 OA 
HETATM   17  C   UNL     1      -8.244  11.442  70.070  1.00  0.00     1.761 C  
HETATM   18  C   UNL     1      -7.635  12.293  69.068  1.00  0.00     0.103 A  
HETATM   19  N   UNL     1      -9.156  10.007  68.399  1.00  0.00    -0.119 N  
HETATM   20  C   UNL     1      -6.790  13.330  69.491  1.00  0.00     0.081 A  
HETATM   21  C   UNL     1      -8.703  10.873  67.349  1.00  0.00    -0.130 C  
HETATM   22  C   UNL     1      -7.872  12.063  67.710  1.00  0.00    -0.145 A  
HETATM   23 CL   UNL     1      -7.506  12.841  65.061  1.00  0.00     5.667 Cl 
HETATM   24  C   UNL     1      -6.173  14.155  68.560  1.00  0.00    -0.093 A  
HETATM   25  C   UNL     1      -6.428  13.960  67.206  1.00  0.00     0.312 A  
HETATM   26  C   UNL     1      -7.278  12.930  66.775  1.00  0.00     0.613 A  
BRANCH  19  27
HETATM   27  C   UNL     1      -9.779   8.793  67.938  1.00  0.00    -0.157 A  
HETATM   28  C   UNL     1     -10.853   8.256  68.672  1.00  0.00     0.031 A  
HETATM   29  C   UNL     1     -11.497   7.085  68.259  1.00  0.00     0.355 A  
HETATM   30  C   UNL     1     -11.071   6.427  67.107  1.00  0.00    -0.422 A  
HETATM   31  C   UNL     1      -9.985   6.932  66.388  1.00  0.00    -0.070 A  
HETATM   32  C   UNL     1      -9.330   8.096  66.813  1.00  0.00    -0.233 A  
ENDBRANCH  19  27
ENDBRANCH   2  15
TORSDOF 4
ENDMDL
MODEL      232
REMARK 921   NORMALIZED FREE ENERGY PREDICTED BY IDOCK:   14.71 KCAL/MOL
REMARK 922        TOTAL FREE ENERGY PREDICTED BY IDOCK:   17.27 KCAL/MOL
REMARK 923 INTER-LIGAND FREE ENERGY PREDICTED BY IDOCK:    5.54 KCAL/MOL
REMARK 924 INTRA-LIGAND FREE ENERGY PREDICTED BY IDOCK:   11.73 KCAL/MOL
REMARK 927      BINDING AFFINITY PREDICTED BY RF-SCORE:    0.00 PKD
ROOT
HETATM    1  C   UNL     1     -12.137  14.963  69.913  1.00  0.00    -0.379 C  
HETATM    2  C   UNL     1     -10.835  14.528  69.242  1.00  0.00    -0.252 C  
ENDROOT
BRANCH   2   3
HETATM    3  N   UNL     1     -10.102  13.515  69.990  1.00  0.00     0.901 NA 
HETATM    4  H   UNL     1     -10.517  13.076  70.811  1.00  0.00     0.000 HD 
BRANCH   3   5
HETATM    5  C   UNL     1      -8.826  13.155  69.564  1.00  0.00     1.547 A  
HETATM    6  C   UNL     1      -7.074  13.092  67.952  1.00  0.00    -0.128 A  
HETATM    7  N   UNL     1      -6.198  12.428  68.717  1.00  0.00    -0.068 NA 
HETATM    8  C   UNL     1      -8.022  14.168  66.278  1.00  0.00     1.550 A  
HETATM    9  H   UNL     1      -9.888  14.542  67.168  1.00  0.00     0.000 HD 
HETATM   10  N   UNL     1      -8.948  14.148  67.214  1.00  0.00    -0.203 NA 
HETATM   11  C   UNL     1      -6.741  12.154  69.919  1.00  0.00     0.179 A  
HETATM   12  C   UNL     1      -8.365  13.476  68.272  1.00  0.00    -0.165 A  
HETATM   13  N   UNL     1      -6.871  13.547  66.683  1.00  0.00     0.938 NA 
HETATM   14  N   UNL     1      -7.973  12.473  70.378  1.00  0.00     3.329 NA 
ENDBRANCH   3   5
ENDBRANCH   2   3
BRANCH   2  15
HETATM   15  C   UNL     1      -9.844  15.603  68.763  1.00  0.00    -0.213 C  
HETATM   16  O   UNL     1      -8.740  17.692  66.035  1.00  0.00    -0.499 OA 
HETATM   17  C   UNL     1      -8.961  15.997  69.702  1.00  0.00     0.065 C  
HETATM   18  C   UNL     1      -7.866  16.902  69.417  1.00  0.00     0.138 A  
HETATM   19  N   UNL     1      -9.748  16.130  67.455  1.00  0.00    -0.231 N  
HETATM   20  C   UNL     1      -6.905  17.128  70.414  1.00  0.00     1.443 A  
HETATM   21  C   UNL     1      -8.778  17.135  67.131  1.00  0.00    -0.212 C  
HETATM   22  C   UNL     1      -7.766  17.514  68.165  1.00  0.00    -0.231 A  
HETATM   23 CL   UNL     1      -6.446  19.300  66.483  1.00  0.00    -0.194 Cl 
HETATM   24  C   UNL     1      -5.831  17.974  70.172  1.00  0.00    -0.180 A  
HETATM   25  C   UNL     1      -5.737  18.618  68.943  1.00  0.00    -0.209 A  
HETATM   26  C   UNL     1      -6.699  18.404  67.943  1.00  0.00    -0.216 A  
BRANCH  19  27
HETATM   27  C   UNL     1     -10.550  15.699  66.340  1.00  0.00    -0.308 A  
HETATM   28  C   UNL     1     -10.475  16.410  65.129  1.00  0.00    -0.218 A  
HETATM   29  C   UNL     1     -11.228  16.023  64.014  1.00  0.00     0.405 A  
HETATM   30  C   UNL     1     -12.074  14.920  64.097  1.00  0.00    -0.289 A  
HETATM   31  C   UNL     1     -12.183  14.225  65.304  1.00  0.00    -0.414 A  
HETATM   32  C   UNL     1     -11.441  14.625  66.424  1.00  0.00    -0.348 A  
ENDBRANCH  19  27
ENDBRANCH   2  15
TORSDOF 4
ENDMDL
