MODEL        1
REMARK 921   NORMALIZED FREE ENERGY PREDICTED BY IDOCK:   -5.73 KCAL/MOL
REMARK 922        TOTAL FREE ENERGY PREDICTED BY IDOCK:   -9.53 KCAL/MOL
REMARK 923 INTER-LIGAND FREE ENERGY PREDICTED BY IDOCK:   -8.40 KCAL/MOL
REMARK 924 INTRA-LIGAND FREE ENERGY PREDICTED BY IDOCK:   -1.12 KCAL/MOL
REMARK 927      BINDING AFFINITY PREDICTED BY RF-SCORE:    0.00 PKD
ROOT
HETATM    1  C   UNL     1     -11.514   7.751  72.380  1.00  0.00    -0.418 C  
HETATM    2  C   UNL     1     -11.987   8.795  71.383  1.00  0.00    -0.367 C  
ENDROOT
BRANCH   2   3
HETATM    3  C   UNL     1     -12.994   9.761  72.007  1.00  0.00    -0.515 C  
BRANCH   3   4
HETATM    4  C   UNL     1     -12.910  11.142  71.359  1.00  0.00    -0.439 C  
BRANCH   4   5
HETATM    5  O   UNL     1     -11.670  11.237  70.649  1.00  0.00    -0.318 OA 
BRANCH   5   6
HETATM    6  C   UNL     1     -11.718  11.969  69.490  1.00  0.00    -0.342 A  
HETATM    7  C   UNL     1     -11.935  13.346  69.427  1.00  0.00    -0.369 A  
HETATM    8  C   UNL     1     -11.967  13.992  68.184  1.00  0.00    -0.382 A  
HETATM    9  C   UNL     1     -11.801  13.263  67.003  1.00  0.00    -0.442 A  
HETATM   10  C   UNL     1     -11.483  11.254  68.313  1.00  0.00    -0.378 A  
HETATM   11  C   UNL     1     -11.535  11.893  67.069  1.00  0.00    -0.384 A  
BRANCH   9  12
HETATM   12  C   UNL     1     -11.960  13.977  65.696  1.00  0.00    -0.397 C  
HETATM   13  O   UNL     1     -13.058  13.946  65.136  1.00  0.00    -0.773 OA 
BRANCH  12  14
HETATM   14  C   UNL     1     -10.764  14.665  65.067  1.00  0.00    -0.448 C  
BRANCH  14  15
HETATM   15  C   UNL     1     -10.918  16.184  65.187  1.00  0.00    -0.316 C  
BRANCH  15  16
HETATM   16  N   UNL     1      -9.726  16.918  65.633  1.00  0.00    -0.548 NA 
HETATM   17  C   UNL     1     -10.112  18.134  66.373  1.00  0.00    -0.389 C  
HETATM   18  C   UNL     1     -10.563  17.856  67.810  1.00  0.00    -0.399 C  
HETATM   19  C   UNL     1      -9.442  17.179  68.582  1.00  0.00    -0.275 C  
HETATM   20  C   UNL     1      -9.002  15.909  67.861  1.00  0.00    -0.181 C  
HETATM   21  C   UNL     1      -8.719  16.145  66.372  1.00  0.00    -0.325 C  
ENDBRANCH  15  16
ENDBRANCH  14  15
ENDBRANCH  12  14
ENDBRANCH   9  12
ENDBRANCH   5   6
ENDBRANCH   4   5
ENDBRANCH   3   4
ENDBRANCH   2   3
TORSDOF 8
ENDMDL
MODEL        2
REMARK 921   NORMALIZED FREE ENERGY PREDICTED BY IDOCK:   -5.72 KCAL/MOL
REMARK 922        TOTAL FREE ENERGY PREDICTED BY IDOCK:   -9.51 KCAL/MOL
REMARK 923 INTER-LIGAND FREE ENERGY PREDICTED BY IDOCK:   -8.63 KCAL/MOL
REMARK 924 INTRA-LIGAND FREE ENERGY PREDICTED BY IDOCK:   -0.88 KCAL/MOL
REMARK 927      BINDING AFFINITY PREDICTED BY RF-SCORE:    0.00 PKD
ROOT
HETATM    1  C   UNL     1      -9.450  11.448  65.539  1.00  0.00    -0.251 C  
HETATM    2  C   UNL     1     -10.411  10.773  64.574  1.00  0.00    -0.401 C  
ENDROOT
BRANCH   2   3
HETATM    3  C   UNL     1     -10.779  11.686  63.407  1.00  0.00    -0.460 C  
BRANCH   3   4
HETATM    4  C   UNL     1     -12.269  12.023  63.417  1.00  0.00    -0.519 C  
BRANCH   4   5
HETATM    5  O   UNL     1     -12.414  13.446  63.498  1.00  0.00    -0.738 OA 
BRANCH   5   6
HETATM    6  C   UNL     1     -12.020  14.004  64.686  1.00  0.00    -0.430 A  
HETATM    7  C   UNL     1     -12.477  13.604  65.943  1.00  0.00    -0.502 A  
HETATM    8  C   UNL     1     -12.008  14.249  67.096  1.00  0.00    -0.449 A  
HETATM    9  C   UNL     1     -11.096  15.305  66.994  1.00  0.00    -0.305 A  
HETATM   10  C   UNL     1     -11.058  15.012  64.592  1.00  0.00    -0.335 A  
HETATM   11  C   UNL     1     -10.602  15.672  65.739  1.00  0.00    -0.374 A  
BRANCH   9  12
HETATM   12  C   UNL     1     -10.714  16.039  68.243  1.00  0.00    -0.298 C  
HETATM   13  O   UNL     1     -10.747  17.271  68.236  1.00  0.00    -0.373 OA 
BRANCH  12  14
HETATM   14  C   UNL     1     -10.243  15.261  69.455  1.00  0.00    -0.258 C  
BRANCH  14  15
HETATM   15  C   UNL     1     -11.111  15.615  70.666  1.00  0.00    -0.359 C  
BRANCH  15  16
HETATM   16  N   UNL     1     -12.544  15.314  70.541  1.00  0.00    -0.389 NA 
HETATM   17  C   UNL     1     -12.745  13.919  70.105  1.00  0.00    -0.123 C  
HETATM   18  C   UNL     1     -12.557  12.896  71.228  1.00  0.00    -0.352 C  
HETATM   19  C   UNL     1     -13.542  13.177  72.352  1.00  0.00    -0.667 C  
HETATM   20  C   UNL     1     -13.376  14.611  72.846  1.00  0.00    -0.585 C  
HETATM   21  C   UNL     1     -13.384  15.633  71.703  1.00  0.00    -0.458 C  
ENDBRANCH  15  16
ENDBRANCH  14  15
ENDBRANCH  12  14
ENDBRANCH   9  12
ENDBRANCH   5   6
ENDBRANCH   4   5
ENDBRANCH   3   4
ENDBRANCH   2   3
TORSDOF 8
ENDMDL
MODEL        3
REMARK 921   NORMALIZED FREE ENERGY PREDICTED BY IDOCK:   -5.59 KCAL/MOL
REMARK 922        TOTAL FREE ENERGY PREDICTED BY IDOCK:   -9.32 KCAL/MOL
REMARK 923 INTER-LIGAND FREE ENERGY PREDICTED BY IDOCK:   -8.16 KCAL/MOL
REMARK 924 INTRA-LIGAND FREE ENERGY PREDICTED BY IDOCK:   -1.16 KCAL/MOL
REMARK 927      BINDING AFFINITY PREDICTED BY RF-SCORE:    0.00 PKD
ROOT
HETATM    1  C   UNL     1     -14.010  15.656  72.478  1.00  0.00    -0.615 C  
HETATM    2  C   UNL     1     -14.389  14.280  71.957  1.00  0.00    -0.629 C  
ENDROOT
BRANCH   2   3
HETATM    3  C   UNL     1     -13.425  13.201  72.450  1.00  0.00    -0.643 C  
BRANCH   3   4
HETATM    4  C   UNL     1     -13.215  12.121  71.389  1.00  0.00    -0.074 C  
BRANCH   4   5
HETATM    5  O   UNL     1     -11.913  12.292  70.819  1.00  0.00    -0.266 OA 
BRANCH   5   6
HETATM    6  C   UNL     1     -11.895  12.843  69.563  1.00  0.00    -0.320 A  
HETATM    7  C   UNL     1     -12.028  14.205  69.290  1.00  0.00    -0.382 A  
HETATM    8  C   UNL     1     -11.998  14.659  67.964  1.00  0.00    -0.292 A  
HETATM    9  C   UNL     1     -11.854  13.752  66.909  1.00  0.00    -0.447 A  
HETATM   10  C   UNL     1     -11.682  11.947  68.512  1.00  0.00    -0.388 A  
HETATM   11  C   UNL     1     -11.672  12.394  67.186  1.00  0.00    -0.415 A  
BRANCH   9  12
HETATM   12  C   UNL     1     -11.946  14.270  65.507  1.00  0.00    -0.385 C  
HETATM   13  O   UNL     1     -12.936  13.976  64.833  1.00  0.00    -0.707 OA 
BRANCH  12  14
HETATM   14  C   UNL     1     -10.804  15.085  64.933  1.00  0.00    -0.430 C  
BRANCH  14  15
HETATM   15  C   UNL     1     -10.845  16.506  65.503  1.00  0.00    -0.188 C  
BRANCH  15  16
HETATM   16  N   UNL     1      -9.543  17.115  65.805  1.00  0.00    -0.537 NA 
HETATM   17  C   UNL     1      -9.709  18.280  66.695  1.00  0.00    -0.339 C  
HETATM   18  C   UNL     1      -9.948  17.899  68.159  1.00  0.00    -0.350 C  
HETATM   19  C   UNL     1      -8.776  17.081  68.678  1.00  0.00    -0.261 C  
HETATM   20  C   UNL     1      -8.559  15.857  67.793  1.00  0.00    -0.164 C  
HETATM   21  C   UNL     1      -8.497  16.212  66.303  1.00  0.00    -0.322 C  
ENDBRANCH  15  16
ENDBRANCH  14  15
ENDBRANCH  12  14
ENDBRANCH   9  12
ENDBRANCH   5   6
ENDBRANCH   4   5
ENDBRANCH   3   4
ENDBRANCH   2   3
TORSDOF 8
ENDMDL
MODEL        4
REMARK 921   NORMALIZED FREE ENERGY PREDICTED BY IDOCK:   -5.58 KCAL/MOL
REMARK 922        TOTAL FREE ENERGY PREDICTED BY IDOCK:   -9.30 KCAL/MOL
REMARK 923 INTER-LIGAND FREE ENERGY PREDICTED BY IDOCK:   -8.17 KCAL/MOL
REMARK 924 INTRA-LIGAND FREE ENERGY PREDICTED BY IDOCK:   -1.13 KCAL/MOL
REMARK 927      BINDING AFFINITY PREDICTED BY RF-SCORE:    0.00 PKD
ROOT
HETATM    1  C   UNL     1      -9.727   8.538  70.971  1.00  0.00    -0.243 C  
HETATM    2  C   UNL     1     -10.190   8.553  72.419  1.00  0.00    -0.369 C  
ENDROOT
BRANCH   2   3
HETATM    3  C   UNL     1     -11.614   8.021  72.565  1.00  0.00    -0.464 C  
BRANCH   3   4
HETATM    4  C   UNL     1     -12.548   8.650  71.533  1.00  0.00    -0.322 C  
BRANCH   4   5
HETATM    5  O   UNL     1     -13.123   9.832  72.100  1.00  0.00    -0.424 OA 
BRANCH   5   6
HETATM    6  C   UNL     1     -12.802  11.001  71.459  1.00  0.00    -0.450 A  
HETATM    7  C   UNL     1     -12.104  11.081  70.253  1.00  0.00    -0.448 A  
HETATM    8  C   UNL     1     -11.826  12.333  69.688  1.00  0.00    -0.393 A  
HETATM    9  C   UNL     1     -12.229  13.506  70.333  1.00  0.00    -0.426 A  
HETATM   10  C   UNL     1     -13.263  12.171  72.067  1.00  0.00    -0.496 A  
HETATM   11  C   UNL     1     -12.971  13.424  71.516  1.00  0.00    -0.429 A  
BRANCH   9  12
HETATM   12  C   UNL     1     -11.808  14.820  69.752  1.00  0.00    -0.316 C  
HETATM   13  O   UNL     1     -12.424  15.836  70.082  1.00  0.00    -0.370 OA 
BRANCH  12  14
HETATM   14  C   UNL     1     -10.684  14.865  68.736  1.00  0.00    -0.252 C  
BRANCH  14  15
HETATM   15  C   UNL     1     -11.250  15.204  67.353  1.00  0.00    -0.323 C  
BRANCH  15  16
HETATM   16  N   UNL     1     -10.558  14.596  66.209  1.00  0.00    -0.298 NA 
HETATM   17  C   UNL     1     -10.547  13.126  66.330  1.00  0.00    -0.284 C  
HETATM   18  C   UNL     1     -11.882  12.473  65.958  1.00  0.00    -0.478 C  
HETATM   19  C   UNL     1     -12.243  12.818  64.522  1.00  0.00    -0.500 C  
HETATM   20  C   UNL     1     -12.272  14.332  64.338  1.00  0.00    -0.471 C  
HETATM   21  C   UNL     1     -11.007  15.015  64.874  1.00  0.00    -0.413 C  
ENDBRANCH  15  16
ENDBRANCH  14  15
ENDBRANCH  12  14
ENDBRANCH   9  12
ENDBRANCH   5   6
ENDBRANCH   4   5
ENDBRANCH   3   4
ENDBRANCH   2   3
TORSDOF 8
ENDMDL
MODEL        5
REMARK 921   NORMALIZED FREE ENERGY PREDICTED BY IDOCK:   -5.56 KCAL/MOL
REMARK 922        TOTAL FREE ENERGY PREDICTED BY IDOCK:   -9.29 KCAL/MOL
REMARK 923 INTER-LIGAND FREE ENERGY PREDICTED BY IDOCK:   -7.82 KCAL/MOL
REMARK 924 INTRA-LIGAND FREE ENERGY PREDICTED BY IDOCK:   -1.47 KCAL/MOL
REMARK 927      BINDING AFFINITY PREDICTED BY RF-SCORE:    0.00 PKD
ROOT
HETATM    1  C   UNL     1     -10.512  11.165  64.690  1.00  0.00    -0.400 C  
HETATM    2  C   UNL     1     -10.898  11.755  63.344  1.00  0.00    -0.460 C  
ENDROOT
BRANCH   2   3
HETATM    3  C   UNL     1     -12.292  12.380  63.377  1.00  0.00    -0.603 C  
BRANCH   3   4
HETATM    4  C   UNL     1     -12.767  12.596  64.813  1.00  0.00    -0.379 C  
BRANCH   4   5
HETATM    5  O   UNL     1     -12.799  14.003  65.075  1.00  0.00    -0.695 OA 
BRANCH   5   6
HETATM    6  C   UNL     1     -11.726  14.488  65.779  1.00  0.00    -0.344 A  
HETATM    7  C   UNL     1     -10.785  15.386  65.275  1.00  0.00    -0.439 A  
HETATM    8  C   UNL     1      -9.724  15.815  66.084  1.00  0.00    -0.351 A  
HETATM    9  C   UNL     1      -9.591  15.333  67.390  1.00  0.00    -0.207 A  
HETATM   10  C   UNL     1     -11.630  14.062  67.106  1.00  0.00    -0.397 A  
HETATM   11  C   UNL     1     -10.561  14.472  67.910  1.00  0.00    -0.243 A  
BRANCH   9  12
HETATM   12  C   UNL     1      -8.378  15.728  68.176  1.00  0.00    -0.160 C  
HETATM   13  O   UNL     1      -7.340  15.080  68.023  1.00  0.00    -0.107 OA 
BRANCH  12  14
HETATM   14  C   UNL     1      -8.468  16.865  69.173  1.00  0.00    -0.057 C  
BRANCH  14  15
HETATM   15  C   UNL     1      -7.715  18.085  68.637  1.00  0.00    -0.296 C  
BRANCH  15  16
HETATM   16  N   UNL     1      -8.446  19.360  68.676  1.00  0.00    -0.364 NA 
HETATM   17  C   UNL     1      -8.067  20.210  67.530  1.00  0.00    -0.320 C  
HETATM   18  C   UNL     1      -8.730  19.790  66.215  1.00  0.00    -0.403 C  
HETATM   19  C   UNL     1     -10.242  19.849  66.357  1.00  0.00    -0.617 C  
HETATM   20  C   UNL     1     -10.692  18.982  67.529  1.00  0.00    -0.532 C  
HETATM   21  C   UNL     1      -9.906  19.274  68.813  1.00  0.00    -0.447 C  
ENDBRANCH  15  16
ENDBRANCH  14  15
ENDBRANCH  12  14
ENDBRANCH   9  12
ENDBRANCH   5   6
ENDBRANCH   4   5
ENDBRANCH   3   4
ENDBRANCH   2   3
TORSDOF 8
ENDMDL
MODEL        6
REMARK 921   NORMALIZED FREE ENERGY PREDICTED BY IDOCK:   -5.54 KCAL/MOL
REMARK 922        TOTAL FREE ENERGY PREDICTED BY IDOCK:   -9.26 KCAL/MOL
REMARK 923 INTER-LIGAND FREE ENERGY PREDICTED BY IDOCK:   -8.10 KCAL/MOL
REMARK 924 INTRA-LIGAND FREE ENERGY PREDICTED BY IDOCK:   -1.16 KCAL/MOL
REMARK 927      BINDING AFFINITY PREDICTED BY RF-SCORE:    0.00 PKD
ROOT
HETATM    1  C   UNL     1     -14.146   8.796  71.970  1.00  0.00    -0.508 C  
HETATM    2  C   UNL     1     -12.983   9.758  71.791  1.00  0.00    -0.536 C  
ENDROOT
BRANCH   2   3
HETATM    3  C   UNL     1     -11.707   9.034  71.363  1.00  0.00    -0.392 C  
BRANCH   3   4
HETATM    4  C   UNL     1     -10.859   9.906  70.439  1.00  0.00    -0.319 C  
BRANCH   4   5
HETATM    5  O   UNL     1     -11.421  11.223  70.414  1.00  0.00    -0.271 OA 
BRANCH   5   6
HETATM    6  C   UNL     1     -11.556  11.774  69.166  1.00  0.00    -0.310 A  
HETATM    7  C   UNL     1     -11.359  11.087  67.967  1.00  0.00    -0.374 A  
HETATM    8  C   UNL     1     -11.523  11.753  66.745  1.00  0.00    -0.352 A  
HETATM    9  C   UNL     1     -11.865  13.108  66.717  1.00  0.00    -0.444 A  
HETATM   10  C   UNL     1     -11.966  13.110  69.135  1.00  0.00    -0.329 A  
HETATM   11  C   UNL     1     -12.110  13.783  67.917  1.00  0.00    -0.322 A  
BRANCH   9  12
HETATM   12  C   UNL     1     -11.914  13.805  65.392  1.00  0.00    -0.379 C  
HETATM   13  O   UNL     1     -12.951  13.741  64.729  1.00  0.00    -0.684 OA 
BRANCH  12  14
HETATM   14  C   UNL     1     -10.679  14.515  64.874  1.00  0.00    -0.448 C  
BRANCH  14  15
HETATM   15  C   UNL     1     -10.849  16.029  65.032  1.00  0.00    -0.404 C  
BRANCH  15  16
HETATM   16  N   UNL     1      -9.694  16.751  65.583  1.00  0.00    -0.553 NA 
HETATM   17  C   UNL     1     -10.136  17.932  66.348  1.00  0.00    -0.369 C  
HETATM   18  C   UNL     1     -10.675  17.591  67.740  1.00  0.00    -0.333 C  
HETATM   19  C   UNL     1      -9.598  16.889  68.552  1.00  0.00    -0.262 C  
HETATM   20  C   UNL     1      -9.102  15.653  67.808  1.00  0.00    -0.181 C  
HETATM   21  C   UNL     1      -8.728  15.954  66.351  1.00  0.00    -0.327 C  
ENDBRANCH  15  16
ENDBRANCH  14  15
ENDBRANCH  12  14
ENDBRANCH   9  12
ENDBRANCH   5   6
ENDBRANCH   4   5
ENDBRANCH   3   4
ENDBRANCH   2   3
TORSDOF 8
ENDMDL
MODEL        7
REMARK 921   NORMALIZED FREE ENERGY PREDICTED BY IDOCK:   -5.51 KCAL/MOL
REMARK 922        TOTAL FREE ENERGY PREDICTED BY IDOCK:   -9.21 KCAL/MOL
REMARK 923 INTER-LIGAND FREE ENERGY PREDICTED BY IDOCK:   -8.47 KCAL/MOL
REMARK 924 INTRA-LIGAND FREE ENERGY PREDICTED BY IDOCK:   -0.74 KCAL/MOL
REMARK 927      BINDING AFFINITY PREDICTED BY RF-SCORE:    0.00 PKD
ROOT
HETATM    1  C   UNL     1     -11.525   5.891  72.223  1.00  0.00    -0.351 C  
HETATM    2  C   UNL     1     -12.110   6.746  71.110  1.00  0.00    -0.422 C  
ENDROOT
BRANCH   2   3
HETATM    3  C   UNL     1     -13.097   7.780  71.647  1.00  0.00    -0.378 C  
BRANCH   3   4
HETATM    4  C   UNL     1     -12.370   9.006  72.197  1.00  0.00    -0.372 C  
BRANCH   4   5
HETATM    5  O   UNL     1     -13.281  10.111  72.203  1.00  0.00    -0.444 OA 
BRANCH   5   6
HETATM    6  C   UNL     1     -12.885  11.195  71.463  1.00  0.00    -0.437 A  
HETATM    7  C   UNL     1     -13.143  12.525  71.798  1.00  0.00    -0.450 A  
HETATM    8  C   UNL     1     -12.692  13.556  70.964  1.00  0.00    -0.399 A  
HETATM    9  C   UNL     1     -11.999  13.262  69.785  1.00  0.00    -0.391 A  
HETATM   10  C   UNL     1     -12.133  10.906  70.321  1.00  0.00    -0.440 A  
HETATM   11  C   UNL     1     -11.699  11.933  69.475  1.00  0.00    -0.410 A  
BRANCH   9  12
HETATM   12  C   UNL     1     -11.641  14.391  68.868  1.00  0.00    -0.306 C  
HETATM   13  O   UNL     1     -12.006  15.530  69.164  1.00  0.00    -0.348 OA 
BRANCH  12  14
HETATM   14  C   UNL     1     -10.896  14.102  67.580  1.00  0.00    -0.280 C  
BRANCH  14  15
HETATM   15  C   UNL     1     -11.892  13.986  66.422  1.00  0.00    -0.418 C  
BRANCH  15  16
HETATM   16  N   UNL     1     -12.187  12.622  65.961  1.00  0.00    -0.597 NA 
HETATM   17  C   UNL     1     -12.766  12.647  64.604  1.00  0.00    -0.377 C  
HETATM   18  C   UNL     1     -11.727  12.870  63.501  1.00  0.00    -0.576 C  
HETATM   19  C   UNL     1     -10.686  11.763  63.542  1.00  0.00    -0.501 C  
HETATM   20  C   UNL     1     -10.049  11.692  64.926  1.00  0.00    -0.303 C  
HETATM   21  C   UNL     1     -11.090  11.649  66.051  1.00  0.00    -0.270 C  
ENDBRANCH  15  16
ENDBRANCH  14  15
ENDBRANCH  12  14
ENDBRANCH   9  12
ENDBRANCH   5   6
ENDBRANCH   4   5
ENDBRANCH   3   4
ENDBRANCH   2   3
TORSDOF 8
ENDMDL
MODEL        8
REMARK 921   NORMALIZED FREE ENERGY PREDICTED BY IDOCK:   -5.51 KCAL/MOL
REMARK 922        TOTAL FREE ENERGY PREDICTED BY IDOCK:   -9.20 KCAL/MOL
REMARK 923 INTER-LIGAND FREE ENERGY PREDICTED BY IDOCK:   -8.08 KCAL/MOL
REMARK 924 INTRA-LIGAND FREE ENERGY PREDICTED BY IDOCK:   -1.12 KCAL/MOL
REMARK 927      BINDING AFFINITY PREDICTED BY RF-SCORE:    0.00 PKD
ROOT
HETATM    1  C   UNL     1     -10.506  19.328  66.255  1.00  0.00    -0.567 C  
HETATM    2  C   UNL     1     -10.127  19.950  67.589  1.00  0.00    -0.564 C  
ENDROOT
BRANCH   2   3
HETATM    3  C   UNL     1      -9.935  18.893  68.675  1.00  0.00    -0.470 C  
BRANCH   3   4
HETATM    4  C   UNL     1      -8.746  17.987  68.360  1.00  0.00    -0.293 C  
BRANCH   4   5
HETATM    5  O   UNL     1      -9.117  16.633  68.643  1.00  0.00    -0.228 OA 
BRANCH   5   6
HETATM    6  C   UNL     1      -9.792  15.993  67.636  1.00  0.00    -0.235 A  
HETATM    7  C   UNL     1      -9.376  15.944  66.305  1.00  0.00    -0.357 A  
HETATM    8  C   UNL     1     -10.148  15.261  65.355  1.00  0.00    -0.397 A  
HETATM    9  C   UNL     1     -11.344  14.640  65.730  1.00  0.00    -0.340 A  
HETATM   10  C   UNL     1     -10.951  15.314  68.021  1.00  0.00    -0.299 A  
HETATM   11  C   UNL     1     -11.735  14.647  67.072  1.00  0.00    -0.379 A  
BRANCH   9  12
HETATM   12  C   UNL     1     -12.193  14.024  64.660  1.00  0.00    -0.435 C  
HETATM   13  O   UNL     1     -12.650  14.752  63.777  1.00  0.00    -0.806 OA 
BRANCH  12  14
HETATM   14  C   UNL     1     -12.516  12.545  64.720  1.00  0.00    -0.532 C  
BRANCH  14  15
HETATM   15  C   UNL     1     -11.685  11.791  63.678  1.00  0.00    -0.415 C  
BRANCH  15  16
HETATM   16  N   UNL     1     -10.226  11.882  63.830  1.00  0.00    -0.375 NA 
HETATM   17  C   UNL     1      -9.813  11.405  65.163  1.00  0.00    -0.260 C  
HETATM   18  C   UNL     1      -9.800   9.879  65.289  1.00  0.00    -0.373 C  
HETATM   19  C   UNL     1      -8.844   9.285  64.266  1.00  0.00    -0.185 C  
HETATM   20  C   UNL     1      -9.227   9.744  62.863  1.00  0.00    -0.241 C  
HETATM   21  C   UNL     1      -9.418  11.263  62.771  1.00  0.00    -0.326 C  
ENDBRANCH  15  16
ENDBRANCH  14  15
ENDBRANCH  12  14
ENDBRANCH   9  12
ENDBRANCH   5   6
ENDBRANCH   4   5
ENDBRANCH   3   4
ENDBRANCH   2   3
TORSDOF 8
ENDMDL
MODEL        9
REMARK 921   NORMALIZED FREE ENERGY PREDICTED BY IDOCK:   -5.50 KCAL/MOL
REMARK 922        TOTAL FREE ENERGY PREDICTED BY IDOCK:   -9.19 KCAL/MOL
REMARK 923 INTER-LIGAND FREE ENERGY PREDICTED BY IDOCK:   -8.34 KCAL/MOL
REMARK 924 INTRA-LIGAND FREE ENERGY PREDICTED BY IDOCK:   -0.86 KCAL/MOL
REMARK 927      BINDING AFFINITY PREDICTED BY RF-SCORE:    0.00 PKD
ROOT
HETATM    1  C   UNL     1     -13.755   9.277  72.447  1.00  0.00    -0.517 C  
HETATM    2  C   UNL     1     -12.427   8.596  72.155  1.00  0.00    -0.453 C  
ENDROOT
BRANCH   2   3
HETATM    3  C   UNL     1     -11.464   9.523  71.416  1.00  0.00    -0.462 C  
BRANCH   3   4
HETATM    4  C   UNL     1     -12.199  10.377  70.384  1.00  0.00    -0.303 C  
BRANCH   4   5
HETATM    5  O   UNL     1     -11.547  11.649  70.298  1.00  0.00    -0.280 OA 
BRANCH   5   6
HETATM    6  C   UNL     1     -11.635  12.266  69.077  1.00  0.00    -0.316 A  
HETATM    7  C   UNL     1     -11.491  11.622  67.847  1.00  0.00    -0.381 A  
HETATM    8  C   UNL     1     -11.598  12.354  66.657  1.00  0.00    -0.447 A  
HETATM    9  C   UNL     1     -11.831  13.732  66.692  1.00  0.00    -0.445 A  
HETATM   10  C   UNL     1     -11.937  13.630  69.108  1.00  0.00    -0.394 A  
HETATM   11  C   UNL     1     -12.025  14.368  67.922  1.00  0.00    -0.348 A  
BRANCH   9  12
HETATM   12  C   UNL     1     -11.821  14.490  65.401  1.00  0.00    -0.344 C  
HETATM   13  O   UNL     1     -12.801  14.405  64.659  1.00  0.00    -0.643 OA 
BRANCH  12  14
HETATM   14  C   UNL     1     -10.594  15.290  65.012  1.00  0.00    -0.444 C  
BRANCH  14  15
HETATM   15  C   UNL     1     -10.771  16.750  65.440  1.00  0.00    -0.189 C  
BRANCH  15  16
HETATM   16  N   UNL     1      -9.576  17.410  65.985  1.00  0.00    -0.504 NA 
HETATM   17  C   UNL     1      -9.787  18.867  66.083  1.00  0.00    -0.311 C  
HETATM   18  C   UNL     1     -10.647  19.280  67.281  1.00  0.00    -0.590 C  
HETATM   19  C   UNL     1      -9.989  18.818  68.572  1.00  0.00    -0.450 C  
HETATM   20  C   UNL     1      -9.748  17.312  68.527  1.00  0.00    -0.296 C  
HETATM   21  C   UNL     1      -9.043  16.866  67.241  1.00  0.00    -0.218 C  
ENDBRANCH  15  16
ENDBRANCH  14  15
ENDBRANCH  12  14
ENDBRANCH   9  12
ENDBRANCH   5   6
ENDBRANCH   4   5
ENDBRANCH   3   4
ENDBRANCH   2   3
TORSDOF 8
ENDMDL
MODEL       10
REMARK 921   NORMALIZED FREE ENERGY PREDICTED BY IDOCK:   -5.46 KCAL/MOL
REMARK 922        TOTAL FREE ENERGY PREDICTED BY IDOCK:   -9.13 KCAL/MOL
REMARK 923 INTER-LIGAND FREE ENERGY PREDICTED BY IDOCK:   -8.30 KCAL/MOL
REMARK 924 INTRA-LIGAND FREE ENERGY PREDICTED BY IDOCK:   -0.83 KCAL/MOL
REMARK 927      BINDING AFFINITY PREDICTED BY RF-SCORE:    0.00 PKD
ROOT
HETATM    1  C   UNL     1     -12.535  16.207  74.505  1.00  0.00    -0.626 C  
HETATM    2  C   UNL     1     -12.597  15.395  73.222  1.00  0.00    -0.618 C  
ENDROOT
BRANCH   2   3
HETATM    3  C   UNL     1     -13.927  15.586  72.493  1.00  0.00    -0.646 C  
BRANCH   3   4
HETATM    4  C   UNL     1     -14.369  14.298  71.802  1.00  0.00    -0.456 C  
BRANCH   4   5
HETATM    5  O   UNL     1     -13.547  13.224  72.272  1.00  0.00    -0.536 OA 
BRANCH   5   6
HETATM    6  C   UNL     1     -12.801  12.596  71.308  1.00  0.00    -0.250 A  
HETATM    7  C   UNL     1     -12.078  13.251  70.310  1.00  0.00    -0.405 A  
HETATM    8  C   UNL     1     -11.350  12.507  69.371  1.00  0.00    -0.275 A  
HETATM    9  C   UNL     1     -11.358  11.109  69.416  1.00  0.00    -0.352 A  
HETATM   10  C   UNL     1     -12.752  11.202  71.393  1.00  0.00    -0.524 A  
HETATM   11  C   UNL     1     -12.043  10.455  70.445  1.00  0.00    -0.402 A  
BRANCH   9  12
HETATM   12  C   UNL     1     -10.663  10.356  68.324  1.00  0.00    -0.235 C  
HETATM   13  O   UNL     1     -10.892   9.151  68.200  1.00  0.00    -0.172 OA 
BRANCH  12  14
HETATM   14  C   UNL     1      -9.660  11.072  67.442  1.00  0.00    -0.180 C  
BRANCH  14  15
HETATM   15  C   UNL     1     -10.216  11.195  66.020  1.00  0.00    -0.250 C  
BRANCH  15  16
HETATM   16  N   UNL     1      -9.953  12.469  65.335  1.00  0.00    -0.251 NA 
HETATM   17  C   UNL     1     -10.307  12.372  63.906  1.00  0.00    -0.423 C  
HETATM   18  C   UNL     1     -11.813  12.460  63.643  1.00  0.00    -0.610 C  
HETATM   19  C   UNL     1     -12.351  13.783  64.166  1.00  0.00    -0.382 C  
HETATM   20  C   UNL     1     -12.015  13.937  65.646  1.00  0.00    -0.409 C  
HETATM   21  C   UNL     1     -10.535  13.672  65.944  1.00  0.00    -0.296 C  
ENDBRANCH  15  16
ENDBRANCH  14  15
ENDBRANCH  12  14
ENDBRANCH   9  12
ENDBRANCH   5   6
ENDBRANCH   4   5
ENDBRANCH   3   4
ENDBRANCH   2   3
TORSDOF 8
ENDMDL
MODEL       11
REMARK 921   NORMALIZED FREE ENERGY PREDICTED BY IDOCK:   -5.41 KCAL/MOL
REMARK 922        TOTAL FREE ENERGY PREDICTED BY IDOCK:   -9.06 KCAL/MOL
REMARK 923 INTER-LIGAND FREE ENERGY PREDICTED BY IDOCK:   -8.18 KCAL/MOL
REMARK 924 INTRA-LIGAND FREE ENERGY PREDICTED BY IDOCK:   -0.87 KCAL/MOL
REMARK 927      BINDING AFFINITY PREDICTED BY RF-SCORE:    0.00 PKD
ROOT
HETATM    1  C   UNL     1     -13.199   9.939  71.921  1.00  0.00    -0.558 C  
HETATM    2  C   UNL     1     -11.813   9.430  71.560  1.00  0.00    -0.456 C  
ENDROOT
BRANCH   2   3
HETATM    3  C   UNL     1     -11.343   9.970  70.210  1.00  0.00    -0.376 C  
BRANCH   3   4
HETATM    4  C   UNL     1     -11.925  11.356  69.937  1.00  0.00    -0.359 C  
BRANCH   4   5
HETATM    5  O   UNL     1     -12.283  11.435  68.553  1.00  0.00    -0.557 OA 
BRANCH   5   6
HETATM    6  C   UNL     1     -11.692  12.456  67.855  1.00  0.00    -0.360 A  
HETATM    7  C   UNL     1     -11.040  12.310  66.630  1.00  0.00    -0.344 A  
HETATM    8  C   UNL     1     -10.467  13.425  66.005  1.00  0.00    -0.294 A  
HETATM    9  C   UNL     1     -10.528  14.685  66.610  1.00  0.00    -0.278 A  
HETATM   10  C   UNL     1     -11.812  13.727  68.424  1.00  0.00    -0.411 A  
HETATM   11  C   UNL     1     -11.223  14.840  67.813  1.00  0.00    -0.323 A  
BRANCH   9  12
HETATM   12  C   UNL     1      -9.801  15.823  65.963  1.00  0.00    -0.337 C  
HETATM   13  O   UNL     1     -10.374  16.463  65.079  1.00  0.00    -0.615 OA 
BRANCH  12  14
HETATM   14  C   UNL     1      -8.369  16.121  66.362  1.00  0.00    -0.357 C  
BRANCH  14  15
HETATM   15  C   UNL     1      -8.059  17.600  66.110  1.00  0.00    -0.193 C  
BRANCH  15  16
HETATM   16  N   UNL     1      -7.895  18.435  67.307  1.00  0.00    -0.228 NA 
HETATM   17  C   UNL     1      -8.204  19.845  67.002  1.00  0.00    -0.316 C  
HETATM   18  C   UNL     1      -9.705  20.137  66.920  1.00  0.00    -0.582 C  
HETATM   19  C   UNL     1     -10.372  19.791  68.241  1.00  0.00    -0.536 C  
HETATM   20  C   UNL     1     -10.087  18.338  68.607  1.00  0.00    -0.407 C  
HETATM   21  C   UNL     1      -8.596  17.989  68.519  1.00  0.00    -0.297 C  
ENDBRANCH  15  16
ENDBRANCH  14  15
ENDBRANCH  12  14
ENDBRANCH   9  12
ENDBRANCH   5   6
ENDBRANCH   4   5
ENDBRANCH   3   4
ENDBRANCH   2   3
TORSDOF 8
ENDMDL
MODEL       12
REMARK 921   NORMALIZED FREE ENERGY PREDICTED BY IDOCK:   -5.37 KCAL/MOL
REMARK 922        TOTAL FREE ENERGY PREDICTED BY IDOCK:   -9.01 KCAL/MOL
REMARK 923 INTER-LIGAND FREE ENERGY PREDICTED BY IDOCK:   -8.23 KCAL/MOL
REMARK 924 INTRA-LIGAND FREE ENERGY PREDICTED BY IDOCK:   -0.78 KCAL/MOL
REMARK 927      BINDING AFFINITY PREDICTED BY RF-SCORE:    0.00 PKD
ROOT
HETATM    1  C   UNL     1     -10.686   5.562  69.917  1.00  0.00    -0.358 C  
HETATM    2  C   UNL     1      -9.688   5.337  71.041  1.00  0.00    -0.242 C  
ENDROOT
BRANCH   2   3
HETATM    3  C   UNL     1     -10.337   5.492  72.416  1.00  0.00    -0.251 C  
BRANCH   3   4
HETATM    4  C   UNL     1     -11.631   6.300  72.329  1.00  0.00    -0.309 C  
BRANCH   4   5
HETATM    5  O   UNL     1     -11.381   7.616  72.836  1.00  0.00    -0.369 OA 
BRANCH   5   6
HETATM    6  C   UNL     1     -11.554   8.631  71.931  1.00  0.00    -0.350 A  
HETATM    7  C   UNL     1     -12.762   9.290  71.695  1.00  0.00    -0.442 A  
HETATM    8  C   UNL     1     -12.825  10.315  70.742  1.00  0.00    -0.427 A  
HETATM    9  C   UNL     1     -11.688  10.672  70.010  1.00  0.00    -0.405 A  
HETATM   10  C   UNL     1     -10.404   9.037  71.249  1.00  0.00    -0.383 A  
HETATM   11  C   UNL     1     -10.468  10.046  70.282  1.00  0.00    -0.331 A  
BRANCH   9  12
HETATM   12  C   UNL     1     -11.831  11.691  68.922  1.00  0.00    -0.329 C  
HETATM   13  O   UNL     1     -12.178  11.312  67.801  1.00  0.00    -0.504 OA 
BRANCH  12  14
HETATM   14  C   UNL     1     -11.494  13.141  69.204  1.00  0.00    -0.358 C  
BRANCH  14  15
HETATM   15  C   UNL     1     -12.232  13.609  70.462  1.00  0.00    -0.368 C  
BRANCH  15  16
HETATM   16  N   UNL     1     -12.455  15.057  70.575  1.00  0.00    -0.349 NA 
HETATM   17  C   UNL     1     -13.873  15.343  70.866  1.00  0.00    -0.163 C  
HETATM   18  C   UNL     1     -14.257  15.099  72.328  1.00  0.00    -0.613 C  
HETATM   19  C   UNL     1     -13.410  15.976  73.237  1.00  0.00    -0.625 C  
HETATM   20  C   UNL     1     -11.928  15.720  72.981  1.00  0.00    -0.596 C  
HETATM   21  C   UNL     1     -11.568  15.786  71.492  1.00  0.00    -0.459 C  
ENDBRANCH  15  16
ENDBRANCH  14  15
ENDBRANCH  12  14
ENDBRANCH   9  12
ENDBRANCH   5   6
ENDBRANCH   4   5
ENDBRANCH   3   4
ENDBRANCH   2   3
TORSDOF 8
ENDMDL
MODEL       13
REMARK 921   NORMALIZED FREE ENERGY PREDICTED BY IDOCK:   -5.35 KCAL/MOL
REMARK 922        TOTAL FREE ENERGY PREDICTED BY IDOCK:   -8.97 KCAL/MOL
REMARK 923 INTER-LIGAND FREE ENERGY PREDICTED BY IDOCK:   -7.53 KCAL/MOL
REMARK 924 INTRA-LIGAND FREE ENERGY PREDICTED BY IDOCK:   -1.44 KCAL/MOL
REMARK 927      BINDING AFFINITY PREDICTED BY RF-SCORE:    0.00 PKD
ROOT
HETATM    1  C   UNL     1      -9.977  19.930  66.242  1.00  0.00    -0.596 C  
HETATM    2  C   UNL     1     -10.550  19.605  67.611  1.00  0.00    -0.556 C  
ENDROOT
BRANCH   2   3
HETATM    3  C   UNL     1      -9.516  18.938  68.516  1.00  0.00    -0.416 C  
BRANCH   3   4
HETATM    4  C   UNL     1      -9.274  17.487  68.103  1.00  0.00    -0.277 C  
BRANCH   4   5
HETATM    5  O   UNL     1     -10.449  16.726  68.404  1.00  0.00    -0.299 OA 
BRANCH   5   6
HETATM    6  C   UNL     1     -10.862  15.876  67.410  1.00  0.00    -0.291 A  
HETATM    7  C   UNL     1     -11.705  14.780  67.600  1.00  0.00    -0.364 A  
HETATM    8  C   UNL     1     -12.061  13.974  66.510  1.00  0.00    -0.488 A  
HETATM    9  C   UNL     1     -11.564  14.251  65.233  1.00  0.00    -0.348 A  
HETATM   10  C   UNL     1     -10.422  16.191  66.122  1.00  0.00    -0.334 A  
HETATM   11  C   UNL     1     -10.759  15.377  65.035  1.00  0.00    -0.460 A  
BRANCH   9  12
HETATM   12  C   UNL     1     -11.877  13.295  64.123  1.00  0.00    -0.443 C  
HETATM   13  O   UNL     1     -12.634  13.665  63.223  1.00  0.00    -0.816 OA 
BRANCH  12  14
HETATM   14  C   UNL     1     -11.310  11.890  64.162  1.00  0.00    -0.455 C  
BRANCH  14  15
HETATM   15  C   UNL     1      -9.827  11.941  64.541  1.00  0.00    -0.178 C  
BRANCH  15  16
HETATM   16  N   UNL     1      -9.340  10.838  65.380  1.00  0.00    -0.196 NA 
HETATM   17  C   UNL     1      -8.246  11.297  66.257  1.00  0.00    -0.126 C  
HETATM   18  C   UNL     1      -8.731  12.097  67.469  1.00  0.00    -0.173 C  
HETATM   19  C   UNL     1      -9.672  11.246  68.307  1.00  0.00    -0.199 C  
HETATM   20  C   UNL     1     -10.829  10.744  67.449  1.00  0.00    -0.345 C  
HETATM   21  C   UNL     1     -10.355  10.097  66.142  1.00  0.00    -0.167 C  
ENDBRANCH  15  16
ENDBRANCH  14  15
ENDBRANCH  12  14
ENDBRANCH   9  12
ENDBRANCH   5   6
ENDBRANCH   4   5
ENDBRANCH   3   4
ENDBRANCH   2   3
TORSDOF 8
ENDMDL
MODEL       14
REMARK 921   NORMALIZED FREE ENERGY PREDICTED BY IDOCK:   -5.34 KCAL/MOL
REMARK 922        TOTAL FREE ENERGY PREDICTED BY IDOCK:   -8.96 KCAL/MOL
REMARK 923 INTER-LIGAND FREE ENERGY PREDICTED BY IDOCK:   -8.20 KCAL/MOL
REMARK 924 INTRA-LIGAND FREE ENERGY PREDICTED BY IDOCK:   -0.75 KCAL/MOL
REMARK 927      BINDING AFFINITY PREDICTED BY RF-SCORE:    0.00 PKD
ROOT
HETATM    1  C   UNL     1      -9.469   8.463  72.045  1.00  0.00    -0.339 C  
HETATM    2  C   UNL     1     -10.777   7.751  71.739  1.00  0.00    -0.265 C  
ENDROOT
BRANCH   2   3
HETATM    3  C   UNL     1     -11.943   8.340  72.532  1.00  0.00    -0.420 C  
BRANCH   3   4
HETATM    4  C   UNL     1     -12.935   9.049  71.612  1.00  0.00    -0.361 C  
BRANCH   4   5
HETATM    5  O   UNL     1     -13.264  10.317  72.189  1.00  0.00    -0.452 OA 
BRANCH   5   6
HETATM    6  C   UNL     1     -12.887  11.408  71.449  1.00  0.00    -0.397 A  
HETATM    7  C   UNL     1     -13.171  12.733  71.783  1.00  0.00    -0.471 A  
HETATM    8  C   UNL     1     -12.737  13.773  70.950  1.00  0.00    -0.394 A  
HETATM    9  C   UNL     1     -12.035  13.492  69.774  1.00  0.00    -0.405 A  
HETATM   10  C   UNL     1     -12.126  11.134  70.310  1.00  0.00    -0.462 A  
HETATM   11  C   UNL     1     -11.708  12.168  69.465  1.00  0.00    -0.402 A  
BRANCH   9  12
HETATM   12  C   UNL     1     -11.695  14.627  68.857  1.00  0.00    -0.309 C  
HETATM   13  O   UNL     1     -12.050  15.765  69.171  1.00  0.00    -0.353 OA 
BRANCH  12  14
HETATM   14  C   UNL     1     -10.983  14.346  67.549  1.00  0.00    -0.299 C  
BRANCH  14  15
HETATM   15  C   UNL     1     -12.012  14.101  66.442  1.00  0.00    -0.436 C  
BRANCH  15  16
HETATM   16  N   UNL     1     -11.517  14.226  65.065  1.00  0.00    -0.347 NA 
HETATM   17  C   UNL     1     -10.172  13.631  64.941  1.00  0.00    -0.339 C  
HETATM   18  C   UNL     1     -10.186  12.101  64.872  1.00  0.00    -0.309 C  
HETATM   19  C   UNL     1     -11.007  11.646  63.675  1.00  0.00    -0.507 C  
HETATM   20  C   UNL     1     -12.413  12.231  63.752  1.00  0.00    -0.619 C  
HETATM   21  C   UNL     1     -12.409  13.744  64.001  1.00  0.00    -0.317 C  
ENDBRANCH  15  16
ENDBRANCH  14  15
ENDBRANCH  12  14
ENDBRANCH   9  12
ENDBRANCH   5   6
ENDBRANCH   4   5
ENDBRANCH   3   4
ENDBRANCH   2   3
TORSDOF 8
ENDMDL
MODEL       15
REMARK 921   NORMALIZED FREE ENERGY PREDICTED BY IDOCK:   -5.33 KCAL/MOL
REMARK 922        TOTAL FREE ENERGY PREDICTED BY IDOCK:   -8.95 KCAL/MOL
REMARK 923 INTER-LIGAND FREE ENERGY PREDICTED BY IDOCK:   -8.29 KCAL/MOL
REMARK 924 INTRA-LIGAND FREE ENERGY PREDICTED BY IDOCK:   -0.66 KCAL/MOL
REMARK 927      BINDING AFFINITY PREDICTED BY RF-SCORE:    0.00 PKD
ROOT
HETATM    1  C   UNL     1     -11.527   6.033  71.994  1.00  0.00    -0.343 C  
HETATM    2  C   UNL     1     -12.264   6.941  71.022  1.00  0.00    -0.427 C  
ENDROOT
BRANCH   2   3
HETATM    3  C   UNL     1     -13.574   7.460  71.612  1.00  0.00    -0.449 C  
BRANCH   3   4
HETATM    4  C   UNL     1     -13.570   8.984  71.713  1.00  0.00    -0.413 C  
BRANCH   4   5
HETATM    5  O   UNL     1     -12.336   9.472  71.177  1.00  0.00    -0.308 OA 
BRANCH   5   6
HETATM    6  C   UNL     1     -12.312  10.815  70.900  1.00  0.00    -0.396 A  
HETATM    7  C   UNL     1     -11.683  11.388  69.794  1.00  0.00    -0.418 A  
HETATM    8  C   UNL     1     -11.720  12.777  69.610  1.00  0.00    -0.372 A  
HETATM    9  C   UNL     1     -12.370  13.597  70.538  1.00  0.00    -0.425 A  
HETATM   10  C   UNL     1     -13.019  11.629  71.789  1.00  0.00    -0.483 A  
HETATM   11  C   UNL     1     -13.042  13.018  71.619  1.00  0.00    -0.440 A  
BRANCH   9  12
HETATM   12  C   UNL     1     -12.282  15.081  70.362  1.00  0.00    -0.341 C  
HETATM   13  O   UNL     1     -12.669  15.808  71.280  1.00  0.00    -0.455 OA 
BRANCH  12  14
HETATM   14  C   UNL     1     -11.782  15.652  69.051  1.00  0.00    -0.408 C  
BRANCH  14  15
HETATM   15  C   UNL     1     -10.780  16.778  69.325  1.00  0.00    -0.324 C  
BRANCH  15  16
HETATM   16  N   UNL     1      -9.816  17.056  68.252  1.00  0.00    -0.266 NA 
HETATM   17  C   UNL     1     -10.496  17.641  67.081  1.00  0.00    -0.319 C  
HETATM   18  C   UNL     1     -10.839  19.124  67.252  1.00  0.00    -0.529 C  
HETATM   19  C   UNL     1      -9.568  19.922  67.497  1.00  0.00    -0.493 C  
HETATM   20  C   UNL     1      -8.821  19.361  68.703  1.00  0.00    -0.417 C  
HETATM   21  C   UNL     1      -8.631  17.841  68.624  1.00  0.00    -0.262 C  
ENDBRANCH  15  16
ENDBRANCH  14  15
ENDBRANCH  12  14
ENDBRANCH   9  12
ENDBRANCH   5   6
ENDBRANCH   4   5
ENDBRANCH   3   4
ENDBRANCH   2   3
TORSDOF 8
ENDMDL
MODEL       16
REMARK 921   NORMALIZED FREE ENERGY PREDICTED BY IDOCK:   -5.27 KCAL/MOL
REMARK 922        TOTAL FREE ENERGY PREDICTED BY IDOCK:   -8.85 KCAL/MOL
REMARK 923 INTER-LIGAND FREE ENERGY PREDICTED BY IDOCK:   -8.01 KCAL/MOL
REMARK 924 INTRA-LIGAND FREE ENERGY PREDICTED BY IDOCK:   -0.84 KCAL/MOL
REMARK 927      BINDING AFFINITY PREDICTED BY RF-SCORE:    0.00 PKD
ROOT
HETATM    1  C   UNL     1     -12.369  15.507  74.321  1.00  0.00    -0.815 C  
HETATM    2  C   UNL     1     -13.314  15.906  73.200  1.00  0.00    -0.681 C  
ENDROOT
BRANCH   2   3
HETATM    3  C   UNL     1     -13.815  14.691  72.420  1.00  0.00    -0.580 C  
BRANCH   3   4
HETATM    4  C   UNL     1     -13.736  14.930  70.913  1.00  0.00    -0.210 C  
BRANCH   4   5
HETATM    5  O   UNL     1     -12.702  14.100  70.374  1.00  0.00    -0.342 OA 
BRANCH   5   6
HETATM    6  C   UNL     1     -11.923  14.691  69.413  1.00  0.00    -0.313 A  
HETATM    7  C   UNL     1     -11.098  15.796  69.625  1.00  0.00    -0.307 A  
HETATM    8  C   UNL     1     -10.345  16.321  68.566  1.00  0.00    -0.261 A  
HETATM    9  C   UNL     1     -10.429  15.755  67.290  1.00  0.00    -0.308 A  
HETATM   10  C   UNL     1     -11.952  14.085  68.154  1.00  0.00    -0.382 A  
HETATM   11  C   UNL     1     -11.217  14.619  67.089  1.00  0.00    -0.349 A  
BRANCH   9  12
HETATM   12  C   UNL     1      -9.698  16.422  66.165  1.00  0.00    -0.327 C  
HETATM   13  O   UNL     1     -10.329  16.731  65.152  1.00  0.00    -0.639 OA 
BRANCH  12  14
HETATM   14  C   UNL     1      -8.203  16.646  66.272  1.00  0.00    -0.365 C  
BRANCH  14  15
HETATM   15  C   UNL     1      -7.896  18.144  66.179  1.00  0.00    -0.204 C  
BRANCH  15  16
HETATM   16  N   UNL     1      -8.210  18.940  67.373  1.00  0.00    -0.268 NA 
HETATM   17  C   UNL     1      -7.357  18.533  68.506  1.00  0.00    -0.295 C  
HETATM   18  C   UNL     1      -5.932  19.087  68.427  1.00  0.00    -0.228 C  
HETATM   19  C   UNL     1      -5.969  20.606  68.396  1.00  0.00    -0.368 C  
HETATM   20  C   UNL     1      -6.838  21.085  67.237  1.00  0.00    -0.434 C  
HETATM   21  C   UNL     1      -8.209  20.399  67.206  1.00  0.00    -0.336 C  
ENDBRANCH  15  16
ENDBRANCH  14  15
ENDBRANCH  12  14
ENDBRANCH   9  12
ENDBRANCH   5   6
ENDBRANCH   4   5
ENDBRANCH   3   4
ENDBRANCH   2   3
TORSDOF 8
ENDMDL
MODEL       17
REMARK 921   NORMALIZED FREE ENERGY PREDICTED BY IDOCK:   -5.27 KCAL/MOL
REMARK 922        TOTAL FREE ENERGY PREDICTED BY IDOCK:   -8.85 KCAL/MOL
REMARK 923 INTER-LIGAND FREE ENERGY PREDICTED BY IDOCK:   -8.22 KCAL/MOL
REMARK 924 INTRA-LIGAND FREE ENERGY PREDICTED BY IDOCK:   -0.63 KCAL/MOL
REMARK 927      BINDING AFFINITY PREDICTED BY RF-SCORE:    0.00 PKD
ROOT
HETATM    1  C   UNL     1     -12.323   6.811  71.751  1.00  0.00    -0.400 C  
HETATM    2  C   UNL     1     -13.656   7.483  71.467  1.00  0.00    -0.439 C  
ENDROOT
BRANCH   2   3
HETATM    3  C   UNL     1     -13.770   8.838  72.164  1.00  0.00    -0.498 C  
BRANCH   3   4
HETATM    4  C   UNL     1     -12.669   9.791  71.703  1.00  0.00    -0.422 C  
BRANCH   4   5
HETATM    5  O   UNL     1     -13.073  11.132  72.003  1.00  0.00    -0.492 OA 
BRANCH   5   6
HETATM    6  C   UNL     1     -12.644  12.082  71.113  1.00  0.00    -0.271 A  
HETATM    7  C   UNL     1     -12.763  13.460  71.300  1.00  0.00    -0.424 A  
HETATM    8  C   UNL     1     -12.291  14.342  70.320  1.00  0.00    -0.410 A  
HETATM    9  C   UNL     1     -11.715  13.852  69.144  1.00  0.00    -0.382 A  
HETATM   10  C   UNL     1     -12.006  11.595  69.969  1.00  0.00    -0.429 A  
HETATM   11  C   UNL     1     -11.551  12.473  68.979  1.00  0.00    -0.365 A  
BRANCH   9  12
HETATM   12  C   UNL     1     -11.333  14.829  68.075  1.00  0.00    -0.316 C  
HETATM   13  O   UNL     1     -11.829  14.702  66.954  1.00  0.00    -0.381 OA 
BRANCH  12  14
HETATM   14  C   UNL     1     -10.309  15.906  68.376  1.00  0.00    -0.240 C  
BRANCH  14  15
HETATM   15  C   UNL     1     -10.232  16.888  67.204  1.00  0.00    -0.297 C  
BRANCH  15  16
HETATM   16  N   UNL     1     -10.690  18.257  67.481  1.00  0.00    -0.406 NA 
HETATM   17  C   UNL     1     -10.039  18.786  68.694  1.00  0.00    -0.380 C  
HETATM   18  C   UNL     1      -8.595  19.242  68.463  1.00  0.00    -0.400 C  
HETATM   19  C   UNL     1      -8.562  20.332  67.405  1.00  0.00    -0.420 C  
HETATM   20  C   UNL     1      -9.222  19.838  66.121  1.00  0.00    -0.418 C  
HETATM   21  C   UNL     1     -10.600  19.214  66.370  1.00  0.00    -0.435 C  
ENDBRANCH  15  16
ENDBRANCH  14  15
ENDBRANCH  12  14
ENDBRANCH   9  12
ENDBRANCH   5   6
ENDBRANCH   4   5
ENDBRANCH   3   4
ENDBRANCH   2   3
TORSDOF 8
ENDMDL
MODEL       18
REMARK 921   NORMALIZED FREE ENERGY PREDICTED BY IDOCK:   -5.25 KCAL/MOL
REMARK 922        TOTAL FREE ENERGY PREDICTED BY IDOCK:   -8.83 KCAL/MOL
REMARK 923 INTER-LIGAND FREE ENERGY PREDICTED BY IDOCK:   -8.07 KCAL/MOL
REMARK 924 INTRA-LIGAND FREE ENERGY PREDICTED BY IDOCK:   -0.77 KCAL/MOL
REMARK 927      BINDING AFFINITY PREDICTED BY RF-SCORE:    0.00 PKD
ROOT
HETATM    1  C   UNL     1     -12.095   7.016  71.056  1.00  0.00    -0.413 C  
HETATM    2  C   UNL     1     -13.584   7.103  71.348  1.00  0.00    -0.368 C  
ENDROOT
BRANCH   2   3
HETATM    3  C   UNL     1     -13.975   8.471  71.903  1.00  0.00    -0.498 C  
BRANCH   3   4
HETATM    4  C   UNL     1     -12.757   9.383  72.037  1.00  0.00    -0.403 C  
BRANCH   4   5
HETATM    5  O   UNL     1     -13.207  10.741  72.090  1.00  0.00    -0.473 OA 
BRANCH   5   6
HETATM    6  C   UNL     1     -12.702  11.560  71.114  1.00  0.00    -0.356 A  
HETATM    7  C   UNL     1     -12.157  11.118  69.908  1.00  0.00    -0.418 A  
HETATM    8  C   UNL     1     -11.666  12.047  68.980  1.00  0.00    -0.382 A  
HETATM    9  C   UNL     1     -11.702  13.416  69.263  1.00  0.00    -0.383 A  
HETATM   10  C   UNL     1     -12.800  12.931  71.364  1.00  0.00    -0.377 A  
HETATM   11  C   UNL     1     -12.293  13.861  70.449  1.00  0.00    -0.433 A  
BRANCH   9  12
HETATM   12  C   UNL     1     -11.060  14.361  68.294  1.00  0.00    -0.259 C  
HETATM   13  O   UNL     1     -10.133  13.949  67.595  1.00  0.00    -0.236 OA 
BRANCH  12  14
HETATM   14  C   UNL     1     -11.520  15.804  68.239  1.00  0.00    -0.338 C  
BRANCH  14  15
HETATM   15  C   UNL     1     -10.428  16.717  68.805  1.00  0.00    -0.338 C  
BRANCH  15  16
HETATM   16  N   UNL     1      -9.484  17.273  67.826  1.00  0.00    -0.252 NA 
HETATM   17  C   UNL     1     -10.206  17.981  66.752  1.00  0.00    -0.364 C  
HETATM   18  C   UNL     1     -10.703  19.370  67.165  1.00  0.00    -0.593 C  
HETATM   19  C   UNL     1      -9.526  20.236  67.582  1.00  0.00    -0.507 C  
HETATM   20  C   UNL     1      -8.740  19.552  68.697  1.00  0.00    -0.377 C  
HETATM   21  C   UNL     1      -8.392  18.096  68.363  1.00  0.00    -0.299 C  
ENDBRANCH  15  16
ENDBRANCH  14  15
ENDBRANCH  12  14
ENDBRANCH   9  12
ENDBRANCH   5   6
ENDBRANCH   4   5
ENDBRANCH   3   4
ENDBRANCH   2   3
TORSDOF 8
ENDMDL
MODEL       19
REMARK 921   NORMALIZED FREE ENERGY PREDICTED BY IDOCK:   -5.25 KCAL/MOL
REMARK 922        TOTAL FREE ENERGY PREDICTED BY IDOCK:   -8.82 KCAL/MOL
REMARK 923 INTER-LIGAND FREE ENERGY PREDICTED BY IDOCK:   -8.24 KCAL/MOL
REMARK 924 INTRA-LIGAND FREE ENERGY PREDICTED BY IDOCK:   -0.58 KCAL/MOL
REMARK 927      BINDING AFFINITY PREDICTED BY RF-SCORE:    0.00 PKD
ROOT
HETATM    1  C   UNL     1     -10.981   9.599  70.963  1.00  0.00    -0.431 C  
HETATM    2  C   UNL     1     -12.196  10.504  70.842  1.00  0.00    -0.490 C  
ENDROOT
BRANCH   2   3
HETATM    3  C   UNL     1     -12.282  11.156  69.463  1.00  0.00    -0.347 C  
BRANCH   3   4
HETATM    4  C   UNL     1     -11.062  10.811  68.611  1.00  0.00    -0.259 C  
BRANCH   4   5
HETATM    5  O   UNL     1     -11.416  10.950  67.230  1.00  0.00    -0.458 OA 
BRANCH   5   6
HETATM    6  C   UNL     1     -11.196  12.193  66.695  1.00  0.00    -0.324 A  
HETATM    7  C   UNL     1     -10.000  12.904  66.800  1.00  0.00    -0.243 A  
HETATM    8  C   UNL     1      -9.887  14.173  66.214  1.00  0.00    -0.321 A  
HETATM    9  C   UNL     1     -10.972  14.740  65.539  1.00  0.00    -0.350 A  
HETATM   10  C   UNL     1     -12.256  12.732  65.961  1.00  0.00    -0.380 A  
HETATM   11  C   UNL     1     -12.154  14.007  65.392  1.00  0.00    -0.411 A  
BRANCH   9  12
HETATM   12  C   UNL     1     -10.843  16.143  65.032  1.00  0.00    -0.363 C  
HETATM   13  O   UNL     1     -11.476  16.468  64.026  1.00  0.00    -1.137 OA 
BRANCH  12  14
HETATM   14  C   UNL     1      -9.899  17.106  65.725  1.00  0.00    -0.091 C  
BRANCH  14  15
HETATM   15  C   UNL     1     -10.540  17.619  67.017  1.00  0.00    -0.254 C  
BRANCH  15  16
HETATM   16  N   UNL     1     -10.483  19.072  67.231  1.00  0.00    -0.425 NA 
HETATM   17  C   UNL     1     -10.017  19.377  68.597  1.00  0.00    -0.444 C  
HETATM   18  C   UNL     1      -8.504  19.221  68.775  1.00  0.00    -0.382 C  
HETATM   19  C   UNL     1      -7.773  20.148  67.818  1.00  0.00    -0.321 C  
HETATM   20  C   UNL     1      -8.215  19.874  66.383  1.00  0.00    -0.365 C  
HETATM   21  C   UNL     1      -9.741  19.851  66.231  1.00  0.00    -0.445 C  
ENDBRANCH  15  16
ENDBRANCH  14  15
ENDBRANCH  12  14
ENDBRANCH   9  12
ENDBRANCH   5   6
ENDBRANCH   4   5
ENDBRANCH   3   4
ENDBRANCH   2   3
TORSDOF 8
ENDMDL
MODEL       20
REMARK 921   NORMALIZED FREE ENERGY PREDICTED BY IDOCK:   -5.24 KCAL/MOL
REMARK 922        TOTAL FREE ENERGY PREDICTED BY IDOCK:   -8.82 KCAL/MOL
REMARK 923 INTER-LIGAND FREE ENERGY PREDICTED BY IDOCK:   -7.67 KCAL/MOL
REMARK 924 INTRA-LIGAND FREE ENERGY PREDICTED BY IDOCK:   -1.15 KCAL/MOL
REMARK 927      BINDING AFFINITY PREDICTED BY RF-SCORE:    0.00 PKD
ROOT
HETATM    1  C   UNL     1     -12.589  16.000  73.636  1.00  0.00    -0.706 C  
HETATM    2  C   UNL     1     -11.903  15.237  72.514  1.00  0.00    -0.532 C  
ENDROOT
BRANCH   2   3
HETATM    3  C   UNL     1     -11.886  16.037  71.213  1.00  0.00    -0.502 C  
BRANCH   3   4
HETATM    4  C   UNL     1     -10.883  15.454  70.219  1.00  0.00    -0.311 C  
BRANCH   4   5
HETATM    5  O   UNL     1     -10.907  16.250  69.029  1.00  0.00    -0.273 OA 
BRANCH   5   6
HETATM    6  C   UNL     1     -11.136  15.555  67.869  1.00  0.00    -0.321 A  
HETATM    7  C   UNL     1     -12.104  14.562  67.715  1.00  0.00    -0.269 A  
HETATM    8  C   UNL     1     -12.251  13.913  66.481  1.00  0.00    -0.482 A  
HETATM    9  C   UNL     1     -11.420  14.242  65.406  1.00  0.00    -0.332 A  
HETATM   10  C   UNL     1     -10.354  15.930  66.773  1.00  0.00    -0.298 A  
HETATM   11  C   UNL     1     -10.484  15.271  65.546  1.00  0.00    -0.396 A  
BRANCH   9  12
HETATM   12  C   UNL     1     -11.535  13.442  64.145  1.00  0.00    -0.383 C  
HETATM   13  O   UNL     1     -12.526  13.606  63.430  1.00  0.00    -0.784 OA 
BRANCH  12  14
HETATM   14  C   UNL     1     -10.471  12.416  63.809  1.00  0.00    -0.475 C  
BRANCH  14  15
HETATM   15  C   UNL     1     -10.773  11.101  64.533  1.00  0.00    -0.297 C  
BRANCH  15  16
HETATM   16  N   UNL     1      -9.617  10.409  65.118  1.00  0.00    -0.246 NA 
HETATM   17  C   UNL     1      -8.818  11.338  65.941  1.00  0.00    -0.169 C  
HETATM   18  C   UNL     1      -9.433  11.619  67.315  1.00  0.00    -0.173 C  
HETATM   19  C   UNL     1      -9.579  10.320  68.091  1.00  0.00    -0.151 C  
HETATM   20  C   UNL     1     -10.402   9.319  67.286  1.00  0.00    -0.332 C  
HETATM   21  C   UNL     1      -9.898   9.164  65.846  1.00  0.00    -0.235 C  
ENDBRANCH  15  16
ENDBRANCH  14  15
ENDBRANCH  12  14
ENDBRANCH   9  12
ENDBRANCH   5   6
ENDBRANCH   4   5
ENDBRANCH   3   4
ENDBRANCH   2   3
TORSDOF 8
ENDMDL
MODEL       21
REMARK 921   NORMALIZED FREE ENERGY PREDICTED BY IDOCK:   -5.23 KCAL/MOL
REMARK 922        TOTAL FREE ENERGY PREDICTED BY IDOCK:   -8.79 KCAL/MOL
REMARK 923 INTER-LIGAND FREE ENERGY PREDICTED BY IDOCK:   -8.06 KCAL/MOL
REMARK 924 INTRA-LIGAND FREE ENERGY PREDICTED BY IDOCK:   -0.73 KCAL/MOL
REMARK 927      BINDING AFFINITY PREDICTED BY RF-SCORE:    0.00 PKD
ROOT
HETATM    1  C   UNL     1     -13.373  15.880  73.088  1.00  0.00    -0.681 C  
HETATM    2  C   UNL     1     -14.278  15.240  72.049  1.00  0.00    -0.679 C  
ENDROOT
BRANCH   2   3
HETATM    3  C   UNL     1     -14.069  13.729  71.968  1.00  0.00    -0.522 C  
BRANCH   3   4
HETATM    4  C   UNL     1     -12.593  13.384  71.779  1.00  0.00    -0.134 C  
BRANCH   4   5
HETATM    5  O   UNL     1     -12.474  12.483  70.673  1.00  0.00    -0.319 OA 
BRANCH   5   6
HETATM    6  C   UNL     1     -11.947  13.029  69.531  1.00  0.00    -0.289 A  
HETATM    7  C   UNL     1     -11.572  14.366  69.389  1.00  0.00    -0.349 A  
HETATM    8  C   UNL     1     -11.045  14.819  68.172  1.00  0.00    -0.288 A  
HETATM    9  C   UNL     1     -10.907  13.943  67.091  1.00  0.00    -0.288 A  
HETATM   10  C   UNL     1     -11.744  12.141  68.472  1.00  0.00    -0.382 A  
HETATM   11  C   UNL     1     -11.236  12.594  67.249  1.00  0.00    -0.346 A  
BRANCH   9  12
HETATM   12  C   UNL     1     -10.449  14.498  65.777  1.00  0.00    -0.323 C  
HETATM   13  O   UNL     1     -10.115  13.712  64.888  1.00  0.00    -0.343 OA 
BRANCH  12  14
HETATM   14  C   UNL     1     -10.352  15.999  65.591  1.00  0.00    -0.414 C  
BRANCH  14  15
HETATM   15  C   UNL     1      -8.991  16.495  66.087  1.00  0.00    -0.309 C  
BRANCH  15  16
HETATM   16  N   UNL     1      -8.785  17.949  66.055  1.00  0.00    -0.508 NA 
HETATM   17  C   UNL     1     -10.072  18.658  66.195  1.00  0.00    -0.369 C  
HETATM   18  C   UNL     1     -10.595  18.694  67.634  1.00  0.00    -0.458 C  
HETATM   19  C   UNL     1      -9.584  19.385  68.535  1.00  0.00    -0.472 C  
HETATM   20  C   UNL     1      -8.229  18.690  68.432  1.00  0.00    -0.361 C  
HETATM   21  C   UNL     1      -7.779  18.489  66.980  1.00  0.00    -0.225 C  
ENDBRANCH  15  16
ENDBRANCH  14  15
ENDBRANCH  12  14
ENDBRANCH   9  12
ENDBRANCH   5   6
ENDBRANCH   4   5
ENDBRANCH   3   4
ENDBRANCH   2   3
TORSDOF 8
ENDMDL
MODEL       22
REMARK 921   NORMALIZED FREE ENERGY PREDICTED BY IDOCK:   -5.19 KCAL/MOL
REMARK 922        TOTAL FREE ENERGY PREDICTED BY IDOCK:   -8.75 KCAL/MOL
REMARK 923 INTER-LIGAND FREE ENERGY PREDICTED BY IDOCK:   -7.90 KCAL/MOL
REMARK 924 INTRA-LIGAND FREE ENERGY PREDICTED BY IDOCK:   -0.85 KCAL/MOL
REMARK 927      BINDING AFFINITY PREDICTED BY RF-SCORE:    0.00 PKD
ROOT
HETATM    1  C   UNL     1     -11.079  11.990  63.649  1.00  0.00    -0.525 C  
HETATM    2  C   UNL     1     -12.259  12.948  63.626  1.00  0.00    -0.581 C  
ENDROOT
BRANCH   2   3
HETATM    3  C   UNL     1     -11.930  14.271  64.316  1.00  0.00    -0.449 C  
BRANCH   3   4
HETATM    4  C   UNL     1     -10.767  14.110  65.293  1.00  0.00    -0.364 C  
BRANCH   4   5
HETATM    5  O   UNL     1     -11.121  14.739  66.530  1.00  0.00    -0.324 OA 
BRANCH   5   6
HETATM    6  C   UNL     1     -11.439  13.879  67.549  1.00  0.00    -0.340 A  
HETATM    7  C   UNL     1     -11.435  12.487  67.447  1.00  0.00    -0.404 A  
HETATM    8  C   UNL     1     -11.782  11.703  68.556  1.00  0.00    -0.378 A  
HETATM    9  C   UNL     1     -12.149  12.307  69.762  1.00  0.00    -0.298 A  
HETATM   10  C   UNL     1     -11.740  14.479  68.775  1.00  0.00    -0.362 A  
HETATM   11  C   UNL     1     -12.106  13.700  69.879  1.00  0.00    -0.406 A  
BRANCH   9  12
HETATM   12  C   UNL     1     -12.624  11.433  70.882  1.00  0.00    -0.356 C  
HETATM   13  O   UNL     1     -12.955  11.962  71.945  1.00  0.00    -0.409 OA 
BRANCH  12  14
HETATM   14  C   UNL     1     -12.630   9.927  70.705  1.00  0.00    -0.324 C  
BRANCH  14  15
HETATM   15  C   UNL     1     -11.506   9.304  71.539  1.00  0.00    -0.384 C  
BRANCH  15  16
HETATM   16  N   UNL     1     -11.833   8.042  72.216  1.00  0.00    -0.348 NA 
HETATM   17  C   UNL     1     -12.312   7.040  71.245  1.00  0.00    -0.383 C  
HETATM   18  C   UNL     1     -11.188   6.393  70.431  1.00  0.00    -0.435 C  
HETATM   19  C   UNL     1     -10.207   5.702  71.364  1.00  0.00    -0.270 C  
HETATM   20  C   UNL     1      -9.674   6.695  72.393  1.00  0.00    -0.162 C  
HETATM   21  C   UNL     1     -10.793   7.479  73.089  1.00  0.00    -0.395 C  
ENDBRANCH  15  16
ENDBRANCH  14  15
ENDBRANCH  12  14
ENDBRANCH   9  12
ENDBRANCH   5   6
ENDBRANCH   4   5
ENDBRANCH   3   4
ENDBRANCH   2   3
TORSDOF 8
ENDMDL
MODEL       23
REMARK 921   NORMALIZED FREE ENERGY PREDICTED BY IDOCK:   -5.18 KCAL/MOL
REMARK 922        TOTAL FREE ENERGY PREDICTED BY IDOCK:   -8.73 KCAL/MOL
REMARK 923 INTER-LIGAND FREE ENERGY PREDICTED BY IDOCK:   -7.89 KCAL/MOL
REMARK 924 INTRA-LIGAND FREE ENERGY PREDICTED BY IDOCK:   -0.83 KCAL/MOL
REMARK 927      BINDING AFFINITY PREDICTED BY RF-SCORE:    0.00 PKD
ROOT
HETATM    1  C   UNL     1     -14.275  14.806  71.666  1.00  0.00    -0.618 C  
HETATM    2  C   UNL     1     -13.047  14.912  72.556  1.00  0.00    -0.480 C  
ENDROOT
BRANCH   2   3
HETATM    3  C   UNL     1     -12.057  15.953  72.036  1.00  0.00    -0.591 C  
BRANCH   3   4
HETATM    4  C   UNL     1     -11.190  15.380  70.916  1.00  0.00    -0.358 C  
BRANCH   4   5
HETATM    5  O   UNL     1     -11.101  16.351  69.867  1.00  0.00    -0.349 OA 
BRANCH   5   6
HETATM    6  C   UNL     1     -11.176  15.842  68.596  1.00  0.00    -0.360 A  
HETATM    7  C   UNL     1     -10.490  16.353  67.493  1.00  0.00    -0.304 A  
HETATM    8  C   UNL     1     -10.644  15.754  66.236  1.00  0.00    -0.313 A  
HETATM    9  C   UNL     1     -11.495  14.657  66.074  1.00  0.00    -0.332 A  
HETATM   10  C   UNL     1     -11.972  14.704  68.446  1.00  0.00    -0.289 A  
HETATM   11  C   UNL     1     -12.144  14.116  67.188  1.00  0.00    -0.432 A  
BRANCH   9  12
HETATM   12  C   UNL     1     -11.718  14.125  64.691  1.00  0.00    -0.417 C  
HETATM   13  O   UNL     1     -12.705  14.512  64.062  1.00  0.00    -0.759 OA 
BRANCH  12  14
HETATM   14  C   UNL     1     -10.768  13.089  64.125  1.00  0.00    -0.429 C  
BRANCH  14  15
HETATM   15  C   UNL     1     -10.917  11.774  64.896  1.00  0.00    -0.300 C  
BRANCH  15  16
HETATM   16  N   UNL     1      -9.747  11.349  65.676  1.00  0.00    -0.224 NA 
HETATM   17  C   UNL     1      -9.978  11.564  67.117  1.00  0.00    -0.199 C  
HETATM   18  C   UNL     1     -10.876  10.500  67.756  1.00  0.00    -0.347 C  
HETATM   19  C   UNL     1     -10.249   9.126  67.586  1.00  0.00    -0.293 C  
HETATM   20  C   UNL     1      -9.989   8.848  66.108  1.00  0.00    -0.290 C  
HETATM   21  C   UNL     1      -9.242   9.994  65.416  1.00  0.00    -0.210 C  
ENDBRANCH  15  16
ENDBRANCH  14  15
ENDBRANCH  12  14
ENDBRANCH   9  12
ENDBRANCH   5   6
ENDBRANCH   4   5
ENDBRANCH   3   4
ENDBRANCH   2   3
TORSDOF 8
ENDMDL
MODEL       24
REMARK 921   NORMALIZED FREE ENERGY PREDICTED BY IDOCK:   -5.16 KCAL/MOL
REMARK 922        TOTAL FREE ENERGY PREDICTED BY IDOCK:   -8.69 KCAL/MOL
REMARK 923 INTER-LIGAND FREE ENERGY PREDICTED BY IDOCK:   -7.91 KCAL/MOL
REMARK 924 INTRA-LIGAND FREE ENERGY PREDICTED BY IDOCK:   -0.78 KCAL/MOL
REMARK 927      BINDING AFFINITY PREDICTED BY RF-SCORE:    0.00 PKD
ROOT
HETATM    1  C   UNL     1     -13.607  15.742  72.999  1.00  0.00    -0.638 C  
HETATM    2  C   UNL     1     -12.157  16.186  72.893  1.00  0.00    -0.643 C  
ENDROOT
BRANCH   2   3
HETATM    3  C   UNL     1     -11.609  16.000  71.480  1.00  0.00    -0.529 C  
BRANCH   3   4
HETATM    4  C   UNL     1     -12.630  15.311  70.576  1.00  0.00    -0.399 C  
BRANCH   4   5
HETATM    5  O   UNL     1     -12.000  14.188  69.950  1.00  0.00    -0.296 OA 
BRANCH   5   6
HETATM    6  C   UNL     1     -12.341  12.966  70.469  1.00  0.00    -0.283 A  
HETATM    7  C   UNL     1     -13.109  12.775  71.618  1.00  0.00    -0.428 A  
HETATM    8  C   UNL     1     -13.395  11.477  72.061  1.00  0.00    -0.397 A  
HETATM    9  C   UNL     1     -12.900  10.368  71.368  1.00  0.00    -0.556 A  
HETATM   10  C   UNL     1     -11.906  11.856  69.740  1.00  0.00    -0.411 A  
HETATM   11  C   UNL     1     -12.173  10.558  70.190  1.00  0.00    -0.358 A  
BRANCH   9  12
HETATM   12  C   UNL     1     -13.133   9.005  71.944  1.00  0.00    -0.400 C  
HETATM   13  O   UNL     1     -14.293   8.606  72.066  1.00  0.00    -0.434 OA 
BRANCH  12  14
HETATM   14  C   UNL     1     -11.953   8.179  72.416  1.00  0.00    -0.431 C  
BRANCH  14  15
HETATM   15  C   UNL     1     -11.793   6.947  71.520  1.00  0.00    -0.324 C  
BRANCH  15  16
HETATM   16  N   UNL     1     -11.164   7.180  70.212  1.00  0.00    -0.276 NA 
HETATM   17  C   UNL     1      -9.823   7.773  70.379  1.00  0.00    -0.183 C  
HETATM   18  C   UNL     1      -8.754   6.756  70.789  1.00  0.00    -0.146 C  
HETATM   19  C   UNL     1      -8.651   5.663  69.738  1.00  0.00    -0.121 C  
HETATM   20  C   UNL     1     -10.014   5.010  69.525  1.00  0.00    -0.302 C  
HETATM   21  C   UNL     1     -11.128   6.037  69.290  1.00  0.00    -0.354 C  
ENDBRANCH  15  16
ENDBRANCH  14  15
ENDBRANCH  12  14
ENDBRANCH   9  12
ENDBRANCH   5   6
ENDBRANCH   4   5
ENDBRANCH   3   4
ENDBRANCH   2   3
TORSDOF 8
ENDMDL
MODEL       25
REMARK 921   NORMALIZED FREE ENERGY PREDICTED BY IDOCK:   -5.13 KCAL/MOL
REMARK 922        TOTAL FREE ENERGY PREDICTED BY IDOCK:   -8.65 KCAL/MOL
REMARK 923 INTER-LIGAND FREE ENERGY PREDICTED BY IDOCK:   -7.65 KCAL/MOL
REMARK 924 INTRA-LIGAND FREE ENERGY PREDICTED BY IDOCK:   -1.00 KCAL/MOL
REMARK 927      BINDING AFFINITY PREDICTED BY RF-SCORE:    0.00 PKD
ROOT
HETATM    1  C   UNL     1     -11.014   5.885  69.721  1.00  0.00    -0.452 C  
HETATM    2  C   UNL     1     -10.386   5.292  70.971  1.00  0.00    -0.298 C  
ENDROOT
BRANCH   2   3
HETATM    3  C   UNL     1     -11.209   5.599  72.221  1.00  0.00    -0.317 C  
BRANCH   3   4
HETATM    4  C   UNL     1     -10.459   6.542  73.159  1.00  0.00    -0.249 C  
BRANCH   4   5
HETATM    5  O   UNL     1     -11.284   7.686  73.409  1.00  0.00    -0.314 OA 
BRANCH   5   6
HETATM    6  C   UNL     1     -11.384   8.570  72.366  1.00  0.00    -0.342 A  
HETATM    7  C   UNL     1     -10.323   8.961  71.549  1.00  0.00    -0.394 A  
HETATM    8  C   UNL     1     -10.540   9.876  70.510  1.00  0.00    -0.359 A  
HETATM    9  C   UNL     1     -11.813  10.414  70.295  1.00  0.00    -0.399 A  
HETATM   10  C   UNL     1     -12.669   9.056  72.106  1.00  0.00    -0.470 A  
HETATM   11  C   UNL     1     -12.885   9.985  71.082  1.00  0.00    -0.480 A  
BRANCH   9  12
HETATM   12  C   UNL     1     -11.972  11.475  69.249  1.00  0.00    -0.330 C  
HETATM   13  O   UNL     1     -12.178  11.128  68.085  1.00  0.00    -0.612 OA 
BRANCH  12  14
HETATM   14  C   UNL     1     -11.817  12.933  69.632  1.00  0.00    -0.387 C  
BRANCH  14  15
HETATM   15  C   UNL     1     -10.980  13.659  68.575  1.00  0.00    -0.267 C  
BRANCH  15  16
HETATM   16  N   UNL     1     -11.687  14.672  67.779  1.00  0.00    -0.360 NA 
HETATM   17  C   UNL     1     -11.514  16.012  68.373  1.00  0.00    -0.331 C  
HETATM   18  C   UNL     1     -10.147  16.636  68.081  1.00  0.00    -0.267 C  
HETATM   19  C   UNL     1      -9.948  16.765  66.579  1.00  0.00    -0.308 C  
HETATM   20  C   UNL     1     -10.113  15.403  65.910  1.00  0.00    -0.370 C  
HETATM   21  C   UNL     1     -11.401  14.690  66.338  1.00  0.00    -0.348 C  
ENDBRANCH  15  16
ENDBRANCH  14  15
ENDBRANCH  12  14
ENDBRANCH   9  12
ENDBRANCH   5   6
ENDBRANCH   4   5
ENDBRANCH   3   4
ENDBRANCH   2   3
TORSDOF 8
ENDMDL
MODEL       26
REMARK 921   NORMALIZED FREE ENERGY PREDICTED BY IDOCK:   -5.12 KCAL/MOL
REMARK 922        TOTAL FREE ENERGY PREDICTED BY IDOCK:   -8.64 KCAL/MOL
REMARK 923 INTER-LIGAND FREE ENERGY PREDICTED BY IDOCK:   -7.95 KCAL/MOL
REMARK 924 INTRA-LIGAND FREE ENERGY PREDICTED BY IDOCK:   -0.68 KCAL/MOL
REMARK 927      BINDING AFFINITY PREDICTED BY RF-SCORE:    0.00 PKD
ROOT
HETATM    1  C   UNL     1      -8.752  19.852  67.634  1.00  0.00    -0.395 C  
HETATM    2  C   UNL     1     -10.040  20.164  66.889  1.00  0.00    -0.592 C  
ENDROOT
BRANCH   2   3
HETATM    3  C   UNL     1     -10.573  18.943  66.141  1.00  0.00    -0.476 C  
BRANCH   3   4
HETATM    4  C   UNL     1     -10.083  17.645  66.780  1.00  0.00    -0.334 C  
BRANCH   4   5
HETATM    5  O   UNL     1     -10.498  16.548  65.959  1.00  0.00    -0.328 OA 
BRANCH   5   6
HETATM    6  C   UNL     1     -10.765  15.385  66.634  1.00  0.00    -0.309 A  
HETATM    7  C   UNL     1     -10.417  14.109  66.189  1.00  0.00    -0.297 A  
HETATM    8  C   UNL     1     -10.744  12.986  66.960  1.00  0.00    -0.270 A  
HETATM    9  C   UNL     1     -11.434  13.133  68.168  1.00  0.00    -0.349 A  
HETATM   10  C   UNL     1     -11.393  15.535  67.873  1.00  0.00    -0.309 A  
HETATM   11  C   UNL     1     -11.739  14.414  68.637  1.00  0.00    -0.367 A  
BRANCH   9  12
HETATM   12  C   UNL     1     -11.864  11.898  68.898  1.00  0.00    -0.307 C  
HETATM   13  O   UNL     1     -12.072  10.871  68.249  1.00  0.00    -0.562 OA 
BRANCH  12  14
HETATM   14  C   UNL     1     -12.088  11.954  70.396  1.00  0.00    -0.421 C  
BRANCH  14  15
HETATM   15  C   UNL     1     -13.002  10.803  70.826  1.00  0.00    -0.262 C  
BRANCH  15  16
HETATM   16  N   UNL     1     -12.500   9.956  71.916  1.00  0.00    -0.378 NA 
HETATM   17  C   UNL     1     -13.577   9.096  72.444  1.00  0.00    -0.483 C  
HETATM   18  C   UNL     1     -13.885   7.888  71.554  1.00  0.00    -0.415 C  
HETATM   19  C   UNL     1     -12.639   7.030  71.400  1.00  0.00    -0.428 C  
HETATM   20  C   UNL     1     -11.489   7.870  70.854  1.00  0.00    -0.294 C  
HETATM   21  C   UNL     1     -11.289   9.174  71.634  1.00  0.00    -0.376 C  
ENDBRANCH  15  16
ENDBRANCH  14  15
ENDBRANCH  12  14
ENDBRANCH   9  12
ENDBRANCH   5   6
ENDBRANCH   4   5
ENDBRANCH   3   4
ENDBRANCH   2   3
TORSDOF 8
ENDMDL
MODEL       27
REMARK 921   NORMALIZED FREE ENERGY PREDICTED BY IDOCK:   -5.10 KCAL/MOL
REMARK 922        TOTAL FREE ENERGY PREDICTED BY IDOCK:   -8.61 KCAL/MOL
REMARK 923 INTER-LIGAND FREE ENERGY PREDICTED BY IDOCK:   -7.93 KCAL/MOL
REMARK 924 INTRA-LIGAND FREE ENERGY PREDICTED BY IDOCK:   -0.67 KCAL/MOL
REMARK 927      BINDING AFFINITY PREDICTED BY RF-SCORE:    0.00 PKD
ROOT
HETATM    1  C   UNL     1     -11.259   7.683  72.905  1.00  0.00    -0.426 C  
HETATM    2  C   UNL     1     -12.075   8.042  71.675  1.00  0.00    -0.339 C  
ENDROOT
BRANCH   2   3
HETATM    3  C   UNL     1     -12.382   9.538  71.614  1.00  0.00    -0.480 C  
BRANCH   3   4
HETATM    4  C   UNL     1     -11.575  10.224  70.513  1.00  0.00    -0.338 C  
BRANCH   4   5
HETATM    5  O   UNL     1     -11.839  11.630  70.564  1.00  0.00    -0.342 OA 
BRANCH   5   6
HETATM    6  C   UNL     1     -11.844  12.266  69.350  1.00  0.00    -0.310 A  
HETATM    7  C   UNL     1     -11.725  11.625  68.116  1.00  0.00    -0.365 A  
HETATM    8  C   UNL     1     -11.740  12.377  66.933  1.00  0.00    -0.432 A  
HETATM    9  C   UNL     1     -11.856  13.770  66.981  1.00  0.00    -0.445 A  
HETATM   10  C   UNL     1     -12.029  13.651  69.392  1.00  0.00    -0.394 A  
HETATM   11  C   UNL     1     -12.024  14.406  68.214  1.00  0.00    -0.323 A  
BRANCH   9  12
HETATM   12  C   UNL     1     -11.749  14.539  65.700  1.00  0.00    -0.335 C  
HETATM   13  O   UNL     1     -12.727  14.575  64.950  1.00  0.00    -0.571 OA 
BRANCH  12  14
HETATM   14  C   UNL     1     -10.436  15.199  65.330  1.00  0.00    -0.434 C  
BRANCH  14  15
HETATM   15  C   UNL     1     -10.491  16.690  65.674  1.00  0.00    -0.297 C  
BRANCH  15  16
HETATM   16  N   UNL     1     -10.051  17.055  67.028  1.00  0.00    -0.287 NA 
HETATM   17  C   UNL     1      -8.648  17.510  67.012  1.00  0.00    -0.235 C  
HETATM   18  C   UNL     1      -8.478  18.942  66.496  1.00  0.00    -0.310 C  
HETATM   19  C   UNL     1      -9.268  19.903  67.369  1.00  0.00    -0.455 C  
HETATM   20  C   UNL     1     -10.733  19.480  67.420  1.00  0.00    -0.589 C  
HETATM   21  C   UNL     1     -10.906  17.996  67.763  1.00  0.00    -0.228 C  
ENDBRANCH  15  16
ENDBRANCH  14  15
ENDBRANCH  12  14
ENDBRANCH   9  12
ENDBRANCH   5   6
ENDBRANCH   4   5
ENDBRANCH   3   4
ENDBRANCH   2   3
TORSDOF 8
ENDMDL
MODEL       28
REMARK 921   NORMALIZED FREE ENERGY PREDICTED BY IDOCK:   -5.09 KCAL/MOL
REMARK 922        TOTAL FREE ENERGY PREDICTED BY IDOCK:   -8.60 KCAL/MOL
REMARK 923 INTER-LIGAND FREE ENERGY PREDICTED BY IDOCK:   -7.73 KCAL/MOL
REMARK 924 INTRA-LIGAND FREE ENERGY PREDICTED BY IDOCK:   -0.87 KCAL/MOL
REMARK 927      BINDING AFFINITY PREDICTED BY RF-SCORE:    0.00 PKD
ROOT
HETATM    1  C   UNL     1     -12.454  16.303  74.523  1.00  0.00    -0.565 C  
HETATM    2  C   UNL     1     -12.526  15.498  73.235  1.00  0.00    -0.600 C  
ENDROOT
BRANCH   2   3
HETATM    3  C   UNL     1     -13.911  15.575  72.595  1.00  0.00    -0.654 C  
BRANCH   3   4
HETATM    4  C   UNL     1     -14.371  14.203  72.106  1.00  0.00    -0.518 C  
BRANCH   4   5
HETATM    5  O   UNL     1     -13.369  13.238  72.448  1.00  0.00    -0.525 OA 
BRANCH   5   6
HETATM    6  C   UNL     1     -12.805  12.583  71.385  1.00  0.00    -0.260 A  
HETATM    7  C   UNL     1     -12.138  13.207  70.329  1.00  0.00    -0.399 A  
HETATM    8  C   UNL     1     -11.600  12.437  69.289  1.00  0.00    -0.379 A  
HETATM    9  C   UNL     1     -11.741  11.045  69.292  1.00  0.00    -0.397 A  
HETATM   10  C   UNL     1     -12.885  11.188  71.420  1.00  0.00    -0.544 A  
HETATM   11  C   UNL     1     -12.366  10.418  70.374  1.00  0.00    -0.370 A  
BRANCH   9  12
HETATM   12  C   UNL     1     -11.254  10.276  68.103  1.00  0.00    -0.229 C  
HETATM   13  O   UNL     1     -11.332  10.799  66.990  1.00  0.00    -0.341 OA 
BRANCH  12  14
HETATM   14  C   UNL     1     -10.735   8.864  68.286  1.00  0.00    -0.135 C  
BRANCH  14  15
HETATM   15  C   UNL     1      -9.723   8.828  69.434  1.00  0.00    -0.172 C  
BRANCH  15  16
HETATM   16  N   UNL     1      -9.605   7.550  70.149  1.00  0.00    -0.168 NA 
HETATM   17  C   UNL     1      -9.141   7.769  71.532  1.00  0.00    -0.133 C  
HETATM   18  C   UNL     1     -10.240   8.273  72.472  1.00  0.00    -0.386 C  
HETATM   19  C   UNL     1     -11.379   7.268  72.519  1.00  0.00    -0.338 C  
HETATM   20  C   UNL     1     -11.903   7.003  71.110  1.00  0.00    -0.380 C  
HETATM   21  C   UNL     1     -10.782   6.672  70.118  1.00  0.00    -0.239 C  
ENDBRANCH  15  16
ENDBRANCH  14  15
ENDBRANCH  12  14
ENDBRANCH   9  12
ENDBRANCH   5   6
ENDBRANCH   4   5
ENDBRANCH   3   4
ENDBRANCH   2   3
TORSDOF 8
ENDMDL
MODEL       29
REMARK 921   NORMALIZED FREE ENERGY PREDICTED BY IDOCK:   -5.09 KCAL/MOL
REMARK 922        TOTAL FREE ENERGY PREDICTED BY IDOCK:   -8.59 KCAL/MOL
REMARK 923 INTER-LIGAND FREE ENERGY PREDICTED BY IDOCK:   -7.88 KCAL/MOL
REMARK 924 INTRA-LIGAND FREE ENERGY PREDICTED BY IDOCK:   -0.71 KCAL/MOL
REMARK 927      BINDING AFFINITY PREDICTED BY RF-SCORE:    0.00 PKD
ROOT
HETATM    1  C   UNL     1     -11.197  11.784  63.744  1.00  0.00    -0.518 C  
HETATM    2  C   UNL     1     -12.123  12.938  63.398  1.00  0.00    -0.610 C  
ENDROOT
BRANCH   2   3
HETATM    3  C   UNL     1     -11.921  14.128  64.334  1.00  0.00    -0.478 C  
BRANCH   3   4
HETATM    4  C   UNL     1     -12.784  13.997  65.588  1.00  0.00    -0.481 C  
BRANCH   4   5
HETATM    5  O   UNL     1     -11.976  14.302  66.730  1.00  0.00    -0.414 OA 
BRANCH   5   6
HETATM    6  C   UNL     1     -11.922  13.318  67.683  1.00  0.00    -0.322 A  
HETATM    7  C   UNL     1     -11.767  11.957  67.414  1.00  0.00    -0.326 A  
HETATM    8  C   UNL     1     -11.727  11.035  68.469  1.00  0.00    -0.348 A  
HETATM    9  C   UNL     1     -11.860  11.468  69.793  1.00  0.00    -0.429 A  
HETATM   10  C   UNL     1     -11.985  13.754  69.009  1.00  0.00    -0.399 A  
HETATM   11  C   UNL     1     -11.966  12.835  70.064  1.00  0.00    -0.371 A  
BRANCH   9  12
HETATM   12  C   UNL     1     -11.929  10.437  70.877  1.00  0.00    -0.377 C  
HETATM   13  O   UNL     1     -12.965  10.346  71.539  1.00  0.00    -0.389 OA 
BRANCH  12  14
HETATM   14  C   UNL     1     -10.716   9.578  71.172  1.00  0.00    -0.408 C  
BRANCH  14  15
HETATM   15  C   UNL     1     -10.676   8.390  70.205  1.00  0.00    -0.234 C  
BRANCH  15  16
HETATM   16  N   UNL     1     -11.567   7.268  70.528  1.00  0.00    -0.282 NA 
HETATM   17  C   UNL     1     -11.256   6.099  69.683  1.00  0.00    -0.418 C  
HETATM   18  C   UNL     1     -10.012   5.331  70.138  1.00  0.00    -0.313 C  
HETATM   19  C   UNL     1     -10.202   4.837  71.563  1.00  0.00    -0.246 C  
HETATM   20  C   UNL     1     -10.525   6.009  72.486  1.00  0.00    -0.233 C  
HETATM   21  C   UNL     1     -11.657   6.889  71.945  1.00  0.00    -0.286 C  
ENDBRANCH  15  16
ENDBRANCH  14  15
ENDBRANCH  12  14
ENDBRANCH   9  12
ENDBRANCH   5   6
ENDBRANCH   4   5
ENDBRANCH   3   4
ENDBRANCH   2   3
TORSDOF 8
ENDMDL
MODEL       30
REMARK 921   NORMALIZED FREE ENERGY PREDICTED BY IDOCK:   -5.08 KCAL/MOL
REMARK 922        TOTAL FREE ENERGY PREDICTED BY IDOCK:   -8.58 KCAL/MOL
REMARK 923 INTER-LIGAND FREE ENERGY PREDICTED BY IDOCK:   -7.45 KCAL/MOL
REMARK 924 INTRA-LIGAND FREE ENERGY PREDICTED BY IDOCK:   -1.13 KCAL/MOL
REMARK 927      BINDING AFFINITY PREDICTED BY RF-SCORE:    0.00 PKD
ROOT
HETATM    1  C   UNL     1     -10.531  11.645  63.923  1.00  0.00    -0.433 C  
HETATM    2  C   UNL     1     -11.671  12.564  63.516  1.00  0.00    -0.595 C  
ENDROOT
BRANCH   2   3
HETATM    3  C   UNL     1     -11.637  13.885  64.282  1.00  0.00    -0.377 C  
BRANCH   3   4
HETATM    4  C   UNL     1     -12.439  13.792  65.580  1.00  0.00    -0.512 C  
BRANCH   4   5
HETATM    5  O   UNL     1     -11.562  14.070  66.677  1.00  0.00    -0.347 OA 
BRANCH   5   6
HETATM    6  C   UNL     1     -11.696  13.235  67.755  1.00  0.00    -0.358 A  
HETATM    7  C   UNL     1     -12.009  13.650  69.051  1.00  0.00    -0.392 A  
HETATM    8  C   UNL     1     -12.119  12.707  70.081  1.00  0.00    -0.368 A  
HETATM    9  C   UNL     1     -11.900  11.350  69.824  1.00  0.00    -0.435 A  
HETATM   10  C   UNL     1     -11.546  11.871  67.487  1.00  0.00    -0.374 A  
HETATM   11  C   UNL     1     -11.635  10.928  68.518  1.00  0.00    -0.360 A  
BRANCH   9  12
HETATM   12  C   UNL     1     -11.912  10.394  70.978  1.00  0.00    -0.382 C  
HETATM   13  O   UNL     1     -12.804  10.501  71.822  1.00  0.00    -0.429 OA 
BRANCH  12  14
HETATM   14  C   UNL     1     -10.806   9.367  71.112  1.00  0.00    -0.427 C  
BRANCH  14  15
HETATM   15  C   UNL     1     -11.327   7.989  70.693  1.00  0.00    -0.252 C  
BRANCH  15  16
HETATM   16  N   UNL     1     -10.312   7.030  70.234  1.00  0.00    -0.200 NA 
HETATM   17  C   UNL     1     -10.908   6.043  69.315  1.00  0.00    -0.358 C  
HETATM   18  C   UNL     1     -11.135   6.585  67.901  1.00  0.00    -0.352 C  
HETATM   19  C   UNL     1      -9.811   7.036  67.303  1.00  0.00    -0.214 C  
HETATM   20  C   UNL     1      -9.148   8.064  68.214  1.00  0.00    -0.135 C  
HETATM   21  C   UNL     1      -9.079   7.600  69.674  1.00  0.00    -0.147 C  
ENDBRANCH  15  16
ENDBRANCH  14  15
ENDBRANCH  12  14
ENDBRANCH   9  12
ENDBRANCH   5   6
ENDBRANCH   4   5
ENDBRANCH   3   4
ENDBRANCH   2   3
TORSDOF 8
ENDMDL
MODEL       31
REMARK 921   NORMALIZED FREE ENERGY PREDICTED BY IDOCK:   -5.06 KCAL/MOL
REMARK 922        TOTAL FREE ENERGY PREDICTED BY IDOCK:   -8.54 KCAL/MOL
REMARK 923 INTER-LIGAND FREE ENERGY PREDICTED BY IDOCK:   -7.77 KCAL/MOL
REMARK 924 INTRA-LIGAND FREE ENERGY PREDICTED BY IDOCK:   -0.77 KCAL/MOL
REMARK 927      BINDING AFFINITY PREDICTED BY RF-SCORE:    0.00 PKD
ROOT
HETATM    1  C   UNL     1     -13.119   8.672  72.162  1.00  0.00    -0.423 C  
HETATM    2  C   UNL     1     -11.686   8.275  72.480  1.00  0.00    -0.451 C  
ENDROOT
BRANCH   2   3
HETATM    3  C   UNL     1     -10.684   9.002  71.586  1.00  0.00    -0.441 C  
BRANCH   3   4
HETATM    4  C   UNL     1     -11.374  10.060  70.727  1.00  0.00    -0.360 C  
BRANCH   4   5
HETATM    5  O   UNL     1     -11.111   9.771  69.350  1.00  0.00    -0.227 OA 
BRANCH   5   6
HETATM    6  C   UNL     1     -11.318  10.815  68.486  1.00  0.00    -0.295 A  
HETATM    7  C   UNL     1     -11.864  12.048  68.845  1.00  0.00    -0.356 A  
HETATM    8  C   UNL     1     -12.034  13.047  67.876  1.00  0.00    -0.338 A  
HETATM    9  C   UNL     1     -11.675  12.810  66.546  1.00  0.00    -0.463 A  
HETATM   10  C   UNL     1     -10.896  10.606  67.171  1.00  0.00    -0.328 A  
HETATM   11  C   UNL     1     -11.082  11.593  66.197  1.00  0.00    -0.335 A  
BRANCH   9  12
HETATM   12  C   UNL     1     -11.982  13.863  65.526  1.00  0.00    -0.383 C  
HETATM   13  O   UNL     1     -13.161  14.076  65.235  1.00  0.00    -0.782 OA 
BRANCH  12  14
HETATM   14  C   UNL     1     -10.847  14.594  64.838  1.00  0.00    -0.436 C  
BRANCH  14  15
HETATM   15  C   UNL     1     -10.591  15.931  65.540  1.00  0.00    -0.401 C  
BRANCH  15  16
HETATM   16  N   UNL     1      -9.557  15.921  66.584  1.00  0.00    -0.232 NA 
HETATM   17  C   UNL     1      -8.454  16.834  66.231  1.00  0.00    -0.307 C  
HETATM   18  C   UNL     1      -8.782  18.310  66.473  1.00  0.00    -0.290 C  
HETATM   19  C   UNL     1      -9.115  18.531  67.939  1.00  0.00    -0.306 C  
HETATM   20  C   UNL     1     -10.257  17.611  68.362  1.00  0.00    -0.381 C  
HETATM   21  C   UNL     1     -10.015  16.150  67.961  1.00  0.00    -0.238 C  
ENDBRANCH  15  16
ENDBRANCH  14  15
ENDBRANCH  12  14
ENDBRANCH   9  12
ENDBRANCH   5   6
ENDBRANCH   4   5
ENDBRANCH   3   4
ENDBRANCH   2   3
TORSDOF 8
ENDMDL
MODEL       32
REMARK 921   NORMALIZED FREE ENERGY PREDICTED BY IDOCK:   -5.06 KCAL/MOL
REMARK 922        TOTAL FREE ENERGY PREDICTED BY IDOCK:   -8.54 KCAL/MOL
REMARK 923 INTER-LIGAND FREE ENERGY PREDICTED BY IDOCK:   -7.69 KCAL/MOL
REMARK 924 INTRA-LIGAND FREE ENERGY PREDICTED BY IDOCK:   -0.85 KCAL/MOL
REMARK 927      BINDING AFFINITY PREDICTED BY RF-SCORE:    0.00 PKD
ROOT
HETATM    1  C   UNL     1     -12.148  16.082  72.472  1.00  0.00    -0.635 C  
HETATM    2  C   UNL     1     -13.564  15.671  72.841  1.00  0.00    -0.658 C  
ENDROOT
BRANCH   2   3
HETATM    3  C   UNL     1     -14.161  14.708  71.817  1.00  0.00    -0.592 C  
BRANCH   3   4
HETATM    4  C   UNL     1     -13.776  13.262  72.127  1.00  0.00    -0.526 C  
BRANCH   4   5
HETATM    5  O   UNL     1     -12.878  12.802  71.111  1.00  0.00    -0.323 OA 
BRANCH   5   6
HETATM    6  C   UNL     1     -12.597  11.461  71.148  1.00  0.00    -0.386 A  
HETATM    7  C   UNL     1     -11.611  10.833  70.385  1.00  0.00    -0.431 A  
HETATM    8  C   UNL     1     -11.411   9.451  70.501  1.00  0.00    -0.328 A  
HETATM    9  C   UNL     1     -12.205   8.691  71.365  1.00  0.00    -0.348 A  
HETATM   10  C   UNL     1     -13.343  10.710  72.061  1.00  0.00    -0.409 A  
HETATM   11  C   UNL     1     -13.159   9.327  72.164  1.00  0.00    -0.520 A  
BRANCH   9  12
HETATM   12  C   UNL     1     -12.034   7.203  71.367  1.00  0.00    -0.328 C  
HETATM   13  O   UNL     1     -12.871   6.513  71.953  1.00  0.00    -0.301 OA 
BRANCH  12  14
HETATM   14  C   UNL     1     -10.815   6.588  70.708  1.00  0.00    -0.311 C  
BRANCH  14  15
HETATM   15  C   UNL     1     -11.114   6.299  69.234  1.00  0.00    -0.393 C  
BRANCH  15  16
HETATM   16  N   UNL     1      -9.953   6.284  68.334  1.00  0.00    -0.133 NA 
HETATM   17  C   UNL     1     -10.287   6.923  67.046  1.00  0.00    -0.278 C  
HETATM   18  C   UNL     1     -10.304   8.453  67.111  1.00  0.00    -0.381 C  
HETATM   19  C   UNL     1      -8.941   8.967  67.544  1.00  0.00    -0.142 C  
HETATM   20  C   UNL     1      -8.544   8.339  68.877  1.00  0.00    -0.132 C  
HETATM   21  C   UNL     1      -8.695   6.813  68.878  1.00  0.00    -0.129 C  
ENDBRANCH  15  16
ENDBRANCH  14  15
ENDBRANCH  12  14
ENDBRANCH   9  12
ENDBRANCH   5   6
ENDBRANCH   4   5
ENDBRANCH   3   4
ENDBRANCH   2   3
TORSDOF 8
ENDMDL
MODEL       33
REMARK 921   NORMALIZED FREE ENERGY PREDICTED BY IDOCK:   -5.04 KCAL/MOL
REMARK 922        TOTAL FREE ENERGY PREDICTED BY IDOCK:   -8.52 KCAL/MOL
REMARK 923 INTER-LIGAND FREE ENERGY PREDICTED BY IDOCK:   -7.85 KCAL/MOL
REMARK 924 INTRA-LIGAND FREE ENERGY PREDICTED BY IDOCK:   -0.67 KCAL/MOL
REMARK 927      BINDING AFFINITY PREDICTED BY RF-SCORE:    0.00 PKD
ROOT
HETATM    1  C   UNL     1     -13.172   9.573  71.570  1.00  0.00    -0.468 C  
HETATM    2  C   UNL     1     -11.652   9.579  71.576  1.00  0.00    -0.465 C  
ENDROOT
BRANCH   2   3
HETATM    3  C   UNL     1     -11.082  10.295  70.353  1.00  0.00    -0.391 C  
BRANCH   3   4
HETATM    4  C   UNL     1     -12.034  11.379  69.852  1.00  0.00    -0.359 C  
BRANCH   4   5
HETATM    5  O   UNL     1     -12.176  11.242  68.434  1.00  0.00    -0.604 OA 
BRANCH   5   6
HETATM    6  C   UNL     1     -11.657  12.273  67.695  1.00  0.00    -0.354 A  
HETATM    7  C   UNL     1     -10.887  12.118  66.542  1.00  0.00    -0.307 A  
HETATM    8  C   UNL     1     -10.404  13.246  65.865  1.00  0.00    -0.293 A  
HETATM    9  C   UNL     1     -10.676  14.530  66.347  1.00  0.00    -0.309 A  
HETATM   10  C   UNL     1     -11.985  13.558  68.136  1.00  0.00    -0.376 A  
HETATM   11  C   UNL     1     -11.489  14.687  67.473  1.00  0.00    -0.378 A  
BRANCH   9  12
HETATM   12  C   UNL     1     -10.042  15.699  65.658  1.00  0.00    -0.365 C  
HETATM   13  O   UNL     1     -10.669  16.265  64.760  1.00  0.00    -0.680 OA 
BRANCH  12  14
HETATM   14  C   UNL     1      -8.636  16.119  66.035  1.00  0.00    -0.231 C  
BRANCH  14  15
HETATM   15  C   UNL     1      -8.669  17.492  66.711  1.00  0.00    -0.257 C  
BRANCH  15  16
HETATM   16  N   UNL     1      -8.315  18.637  65.861  1.00  0.00    -0.473 NA 
HETATM   17  C   UNL     1      -9.021  19.853  66.308  1.00  0.00    -0.353 C  
HETATM   18  C   UNL     1      -8.401  20.496  67.551  1.00  0.00    -0.310 C  
HETATM   19  C   UNL     1      -6.956  20.875  67.271  1.00  0.00    -0.436 C  
HETATM   20  C   UNL     1      -6.174  19.650  66.806  1.00  0.00    -0.186 C  
HETATM   21  C   UNL     1      -6.881  18.895  65.674  1.00  0.00    -0.257 C  
ENDBRANCH  15  16
ENDBRANCH  14  15
ENDBRANCH  12  14
ENDBRANCH   9  12
ENDBRANCH   5   6
ENDBRANCH   4   5
ENDBRANCH   3   4
ENDBRANCH   2   3
TORSDOF 8
ENDMDL
MODEL       34
REMARK 921   NORMALIZED FREE ENERGY PREDICTED BY IDOCK:   -5.04 KCAL/MOL
REMARK 922        TOTAL FREE ENERGY PREDICTED BY IDOCK:   -8.51 KCAL/MOL
REMARK 923 INTER-LIGAND FREE ENERGY PREDICTED BY IDOCK:   -7.82 KCAL/MOL
REMARK 924 INTRA-LIGAND FREE ENERGY PREDICTED BY IDOCK:   -0.69 KCAL/MOL
REMARK 927      BINDING AFFINITY PREDICTED BY RF-SCORE:    0.00 PKD
ROOT
HETATM    1  C   UNL     1     -10.141  20.510  67.519  1.00  0.00    -0.437 C  
HETATM    2  C   UNL     1     -10.137  19.021  67.212  1.00  0.00    -0.436 C  
ENDROOT
BRANCH   2   3
HETATM    3  C   UNL     1      -8.947  18.312  67.856  1.00  0.00    -0.285 C  
BRANCH   3   4
HETATM    4  C   UNL     1      -9.373  16.996  68.505  1.00  0.00    -0.265 C  
BRANCH   4   5
HETATM    5  O   UNL     1     -10.514  17.244  69.332  1.00  0.00    -0.313 OA 
BRANCH   5   6
HETATM    6  C   UNL     1     -11.107  16.125  69.857  1.00  0.00    -0.357 A  
HETATM    7  C   UNL     1     -11.453  15.962  71.199  1.00  0.00    -0.471 A  
HETATM    8  C   UNL     1     -12.054  14.771  71.628  1.00  0.00    -0.414 A  
HETATM    9  C   UNL     1     -12.294  13.734  70.721  1.00  0.00    -0.451 A  
HETATM   10  C   UNL     1     -11.411  15.114  68.940  1.00  0.00    -0.314 A  
HETATM   11  C   UNL     1     -11.992  13.915  69.368  1.00  0.00    -0.402 A  
BRANCH   9  12
HETATM   12  C   UNL     1     -12.829  12.437  71.247  1.00  0.00    -0.240 C  
HETATM   13  O   UNL     1     -13.578  12.461  72.225  1.00  0.00    -0.504 OA 
BRANCH  12  14
HETATM   14  C   UNL     1     -12.395  11.133  70.607  1.00  0.00    -0.482 C  
BRANCH  14  15
HETATM   15  C   UNL     1     -12.559   9.986  71.608  1.00  0.00    -0.427 C  
BRANCH  15  16
HETATM   16  N   UNL     1     -11.357   9.182  71.866  1.00  0.00    -0.375 NA 
HETATM   17  C   UNL     1     -11.712   7.923  72.549  1.00  0.00    -0.367 C  
HETATM   18  C   UNL     1     -12.303   6.866  71.612  1.00  0.00    -0.413 C  
HETATM   19  C   UNL     1     -11.304   6.533  70.515  1.00  0.00    -0.426 C  
HETATM   20  C   UNL     1     -10.902   7.802  69.770  1.00  0.00    -0.211 C  
HETATM   21  C   UNL     1     -10.477   8.931  70.717  1.00  0.00    -0.227 C  
ENDBRANCH  15  16
ENDBRANCH  14  15
ENDBRANCH  12  14
ENDBRANCH   9  12
ENDBRANCH   5   6
ENDBRANCH   4   5
ENDBRANCH   3   4
ENDBRANCH   2   3
TORSDOF 8
ENDMDL
MODEL       35
REMARK 921   NORMALIZED FREE ENERGY PREDICTED BY IDOCK:   -5.01 KCAL/MOL
REMARK 922        TOTAL FREE ENERGY PREDICTED BY IDOCK:   -8.48 KCAL/MOL
REMARK 923 INTER-LIGAND FREE ENERGY PREDICTED BY IDOCK:   -7.61 KCAL/MOL
REMARK 924 INTRA-LIGAND FREE ENERGY PREDICTED BY IDOCK:   -0.86 KCAL/MOL
REMARK 927      BINDING AFFINITY PREDICTED BY RF-SCORE:    0.00 PKD
ROOT
HETATM    1  C   UNL     1     -10.001  19.894  68.404  1.00  0.00    -0.531 C  
HETATM    2  C   UNL     1      -9.122  19.878  67.163  1.00  0.00    -0.443 C  
ENDROOT
BRANCH   2   3
HETATM    3  C   UNL     1      -9.951  19.843  65.881  1.00  0.00    -0.489 C  
BRANCH   3   4
HETATM    4  C   UNL     1     -10.775  18.560  65.790  1.00  0.00    -0.156 C  
BRANCH   4   5
HETATM    5  O   UNL     1      -9.879  17.453  65.639  1.00  0.00    -0.544 OA 
BRANCH   5   6
HETATM    6  C   UNL     1     -10.288  16.288  66.236  1.00  0.00    -0.326 A  
HETATM    7  C   UNL     1     -11.100  15.327  65.632  1.00  0.00    -0.308 A  
HETATM    8  C   UNL     1     -11.460  14.171  66.338  1.00  0.00    -0.362 A  
HETATM    9  C   UNL     1     -11.024  13.981  67.653  1.00  0.00    -0.281 A  
HETATM   10  C   UNL     1      -9.798  16.064  67.525  1.00  0.00    -0.235 A  
HETATM   11  C   UNL     1     -10.171  14.920  68.240  1.00  0.00    -0.225 A  
BRANCH   9  12
HETATM   12  C   UNL     1     -11.529  12.789  68.406  1.00  0.00    -0.311 C  
HETATM   13  O   UNL     1     -12.240  11.975  67.814  1.00  0.00    -0.474 OA 
BRANCH  12  14
HETATM   14  C   UNL     1     -11.209  12.644  69.880  1.00  0.00     0.099 C  
BRANCH  14  15
HETATM   15  C   UNL     1     -12.298  13.322  70.716  1.00  0.00    -0.344 C  
BRANCH  15  16
HETATM   16  N   UNL     1     -12.187  14.780  70.857  1.00  0.00    -0.295 NA 
HETATM   17  C   UNL     1     -13.520  15.389  71.026  1.00  0.00    -0.444 C  
HETATM   18  C   UNL     1     -14.090  15.226  72.438  1.00  0.00    -0.622 C  
HETATM   19  C   UNL     1     -13.155  15.869  73.450  1.00  0.00    -0.694 C  
HETATM   20  C   UNL     1     -11.756  15.274  73.322  1.00  0.00    -0.364 C  
HETATM   21  C   UNL     1     -11.248  15.270  71.875  1.00  0.00    -0.267 C  
ENDBRANCH  15  16
ENDBRANCH  14  15
ENDBRANCH  12  14
ENDBRANCH   9  12
ENDBRANCH   5   6
ENDBRANCH   4   5
ENDBRANCH   3   4
ENDBRANCH   2   3
TORSDOF 8
ENDMDL
MODEL       36
REMARK 921   NORMALIZED FREE ENERGY PREDICTED BY IDOCK:   -5.01 KCAL/MOL
REMARK 922        TOTAL FREE ENERGY PREDICTED BY IDOCK:   -8.47 KCAL/MOL
REMARK 923 INTER-LIGAND FREE ENERGY PREDICTED BY IDOCK:   -7.33 KCAL/MOL
REMARK 924 INTRA-LIGAND FREE ENERGY PREDICTED BY IDOCK:   -1.13 KCAL/MOL
REMARK 927      BINDING AFFINITY PREDICTED BY RF-SCORE:    0.00 PKD
ROOT
HETATM    1  C   UNL     1     -12.345  11.967  63.469  1.00  0.00    -0.661 C  
HETATM    2  C   UNL     1     -12.124  13.471  63.508  1.00  0.00    -0.425 C  
ENDROOT
BRANCH   2   3
HETATM    3  C   UNL     1     -12.504  14.065  64.863  1.00  0.00    -0.419 C  
BRANCH   3   4
HETATM    4  C   UNL     1     -11.335  14.834  65.477  1.00  0.00    -0.343 C  
BRANCH   4   5
HETATM    5  O   UNL     1     -11.205  14.445  66.849  1.00  0.00    -0.314 OA 
BRANCH   5   6
HETATM    6  C   UNL     1     -10.929  13.118  67.054  1.00  0.00    -0.269 A  
HETATM    7  C   UNL     1      -9.876  12.422  66.457  1.00  0.00    -0.244 A  
HETATM    8  C   UNL     1      -9.688  11.062  66.737  1.00  0.00    -0.222 A  
HETATM    9  C   UNL     1     -10.561  10.390  67.598  1.00  0.00    -0.304 A  
HETATM   10  C   UNL     1     -11.758  12.461  67.967  1.00  0.00    -0.414 A  
HETATM   11  C   UNL     1     -11.585  11.098  68.233  1.00  0.00    -0.359 A  
BRANCH   9  12
HETATM   12  C   UNL     1     -10.390   8.912  67.775  1.00  0.00    -0.242 C  
HETATM   13  O   UNL     1     -10.622   8.173  66.816  1.00  0.00    -0.313 OA 
BRANCH  12  14
HETATM   14  C   UNL     1     -10.000   8.360  69.131  1.00  0.00    -0.197 C  
BRANCH  14  15
HETATM   15  C   UNL     1     -11.158   7.542  69.710  1.00  0.00    -0.129 C  
BRANCH  15  16
HETATM   16  N   UNL     1     -11.313   7.592  71.170  1.00  0.00    -0.262 NA 
HETATM   17  C   UNL     1     -11.163   8.975  71.661  1.00  0.00    -0.361 C  
HETATM   18  C   UNL     1     -12.404   9.842  71.430  1.00  0.00    -0.498 C  
HETATM   19  C   UNL     1     -13.603   9.227  72.134  1.00  0.00    -0.536 C  
HETATM   20  C   UNL     1     -13.808   7.791  71.662  1.00  0.00    -0.465 C  
HETATM   21  C   UNL     1     -12.519   6.961  71.723  1.00  0.00    -0.356 C  
ENDBRANCH  15  16
ENDBRANCH  14  15
ENDBRANCH  12  14
ENDBRANCH   9  12
ENDBRANCH   5   6
ENDBRANCH   4   5
ENDBRANCH   3   4
ENDBRANCH   2   3
TORSDOF 8
ENDMDL
MODEL       37
REMARK 921   NORMALIZED FREE ENERGY PREDICTED BY IDOCK:   -4.97 KCAL/MOL
REMARK 922        TOTAL FREE ENERGY PREDICTED BY IDOCK:   -8.42 KCAL/MOL
REMARK 923 INTER-LIGAND FREE ENERGY PREDICTED BY IDOCK:   -7.78 KCAL/MOL
REMARK 924 INTRA-LIGAND FREE ENERGY PREDICTED BY IDOCK:   -0.65 KCAL/MOL
REMARK 927      BINDING AFFINITY PREDICTED BY RF-SCORE:    0.00 PKD
ROOT
HETATM    1  C   UNL     1     -10.846  14.771  66.878  1.00  0.00    -0.316 C  
HETATM    2  C   UNL     1     -10.161  15.768  67.798  1.00  0.00    -0.238 C  
ENDROOT
BRANCH   2   3
HETATM    3  C   UNL     1     -11.165  16.517  68.672  1.00  0.00    -0.297 C  
BRANCH   3   4
HETATM    4  C   UNL     1     -11.156  15.986  70.104  1.00  0.00    -0.371 C  
BRANCH   4   5
HETATM    5  O   UNL     1     -12.483  15.569  70.444  1.00  0.00    -0.400 OA 
BRANCH   5   6
HETATM    6  C   UNL     1     -12.604  14.253  70.810  1.00  0.00    -0.356 A  
HETATM    7  C   UNL     1     -13.354  13.795  71.894  1.00  0.00    -0.499 A  
HETATM    8  C   UNL     1     -13.405  12.424  72.179  1.00  0.00    -0.508 A  
HETATM    9  C   UNL     1     -12.693  11.511  71.394  1.00  0.00    -0.469 A  
HETATM   10  C   UNL     1     -11.950  13.333  69.986  1.00  0.00    -0.399 A  
HETATM   11  C   UNL     1     -11.982  11.965  70.280  1.00  0.00    -0.416 A  
BRANCH   9  12
HETATM   12  C   UNL     1     -12.683  10.071  71.808  1.00  0.00    -0.428 C  
HETATM   13  O   UNL     1     -13.643   9.634  72.446  1.00  0.00    -0.433 OA 
BRANCH  12  14
HETATM   14  C   UNL     1     -11.479   9.208  71.488  1.00  0.00    -0.437 C  
BRANCH  14  15
HETATM   15  C   UNL     1     -11.418   8.024  72.457  1.00  0.00    -0.409 C  
BRANCH  15  16
HETATM   16  N   UNL     1     -11.992   6.763  71.968  1.00  0.00    -0.319 NA 
HETATM   17  C   UNL     1     -11.870   6.671  70.501  1.00  0.00    -0.370 C  
HETATM   18  C   UNL     1     -10.463   6.295  70.028  1.00  0.00    -0.274 C  
HETATM   19  C   UNL     1     -10.064   4.949  70.612  1.00  0.00    -0.306 C  
HETATM   20  C   UNL     1     -10.170   4.986  72.133  1.00  0.00    -0.259 C  
HETATM   21  C   UNL     1     -11.518   5.533  72.617  1.00  0.00    -0.272 C  
ENDBRANCH  15  16
ENDBRANCH  14  15
ENDBRANCH  12  14
ENDBRANCH   9  12
ENDBRANCH   5   6
ENDBRANCH   4   5
ENDBRANCH   3   4
ENDBRANCH   2   3
TORSDOF 8
ENDMDL
MODEL       38
REMARK 921   NORMALIZED FREE ENERGY PREDICTED BY IDOCK:   -4.97 KCAL/MOL
REMARK 922        TOTAL FREE ENERGY PREDICTED BY IDOCK:   -8.42 KCAL/MOL
REMARK 923 INTER-LIGAND FREE ENERGY PREDICTED BY IDOCK:   -7.58 KCAL/MOL
REMARK 924 INTRA-LIGAND FREE ENERGY PREDICTED BY IDOCK:   -0.84 KCAL/MOL
REMARK 927      BINDING AFFINITY PREDICTED BY RF-SCORE:    0.00 PKD
ROOT
HETATM    1  C   UNL     1     -11.234   6.105  69.612  1.00  0.00    -0.488 C  
HETATM    2  C   UNL     1     -10.342   5.250  70.497  1.00  0.00    -0.336 C  
ENDROOT
BRANCH   2   3
HETATM    3  C   UNL     1     -10.772   5.308  71.962  1.00  0.00    -0.261 C  
BRANCH   3   4
HETATM    4  C   UNL     1      -9.966   6.351  72.735  1.00  0.00    -0.172 C  
BRANCH   4   5
HETATM    5  O   UNL     1     -10.842   7.420  73.107  1.00  0.00    -0.343 OA 
BRANCH   5   6
HETATM    6  C   UNL     1     -10.980   8.412  72.172  1.00  0.00    -0.341 A  
HETATM    7  C   UNL     1      -9.958   8.866  71.337  1.00  0.00    -0.378 A  
HETATM    8  C   UNL     1     -10.211   9.892  70.415  1.00  0.00    -0.299 A  
HETATM    9  C   UNL     1     -11.478  10.477  70.338  1.00  0.00    -0.427 A  
HETATM   10  C   UNL     1     -12.263   8.951  72.045  1.00  0.00    -0.447 A  
HETATM   11  C   UNL     1     -12.514   9.988  71.140  1.00  0.00    -0.480 A  
BRANCH   9  12
HETATM   12  C   UNL     1     -11.669  11.647  69.423  1.00  0.00    -0.340 C  
HETATM   13  O   UNL     1     -11.871  12.757  69.918  1.00  0.00    -0.324 OA 
BRANCH  12  14
HETATM   14  C   UNL     1     -11.670  11.431  67.922  1.00  0.00    -0.300 C  
BRANCH  14  15
HETATM   15  C   UNL     1     -10.998  12.620  67.229  1.00  0.00    -0.256 C  
BRANCH  15  16
HETATM   16  N   UNL     1     -11.869  13.765  66.928  1.00  0.00    -0.389 NA 
HETATM   17  C   UNL     1     -11.157  15.035  67.163  1.00  0.00    -0.332 C  
HETATM   18  C   UNL     1     -10.175  15.399  66.045  1.00  0.00    -0.343 C  
HETATM   19  C   UNL     1     -10.919  15.521  64.724  1.00  0.00    -0.416 C  
HETATM   20  C   UNL     1     -11.675  14.230  64.428  1.00  0.00    -0.405 C  
HETATM   21  C   UNL     1     -12.526  13.760  65.614  1.00  0.00    -0.503 C  
ENDBRANCH  15  16
ENDBRANCH  14  15
ENDBRANCH  12  14
ENDBRANCH   9  12
ENDBRANCH   5   6
ENDBRANCH   4   5
ENDBRANCH   3   4
ENDBRANCH   2   3
TORSDOF 8
ENDMDL
MODEL       39
REMARK 921   NORMALIZED FREE ENERGY PREDICTED BY IDOCK:   -4.97 KCAL/MOL
REMARK 922        TOTAL FREE ENERGY PREDICTED BY IDOCK:   -8.42 KCAL/MOL
REMARK 923 INTER-LIGAND FREE ENERGY PREDICTED BY IDOCK:   -7.51 KCAL/MOL
REMARK 924 INTRA-LIGAND FREE ENERGY PREDICTED BY IDOCK:   -0.90 KCAL/MOL
REMARK 927      BINDING AFFINITY PREDICTED BY RF-SCORE:    0.00 PKD
ROOT
HETATM    1  C   UNL     1     -10.373  19.702  65.892  1.00  0.00    -0.584 C  
HETATM    2  C   UNL     1      -9.939  20.388  67.178  1.00  0.00    -0.568 C  
ENDROOT
BRANCH   2   3
HETATM    3  C   UNL     1      -8.894  19.569  67.933  1.00  0.00    -0.372 C  
BRANCH   3   4
HETATM    4  C   UNL     1      -8.870  18.120  67.448  1.00  0.00    -0.256 C  
BRANCH   4   5
HETATM    5  O   UNL     1      -9.554  17.308  68.408  1.00  0.00    -0.264 OA 
BRANCH   5   6
HETATM    6  C   UNL     1     -10.114  16.161  67.907  1.00  0.00    -0.244 A  
HETATM    7  C   UNL     1     -11.340  15.631  68.311  1.00  0.00    -0.357 A  
HETATM    8  C   UNL     1     -11.815  14.447  67.730  1.00  0.00    -0.402 A  
HETATM    9  C   UNL     1     -11.061  13.782  66.759  1.00  0.00    -0.316 A  
HETATM   10  C   UNL     1      -9.394  15.532  66.887  1.00  0.00    -0.252 A  
HETATM   11  C   UNL     1      -9.856  14.339  66.319  1.00  0.00    -0.323 A  
BRANCH   9  12
HETATM   12  C   UNL     1     -11.554  12.461  66.254  1.00  0.00    -0.393 C  
HETATM   13  O   UNL     1     -12.562  12.440  65.544  1.00  0.00    -0.616 OA 
BRANCH  12  14
HETATM   14  C   UNL     1     -10.845  11.188  66.670  1.00  0.00    -0.308 C  
BRANCH  14  15
HETATM   15  C   UNL     1     -11.506  10.615  67.927  1.00  0.00    -0.181 C  
BRANCH  15  16
HETATM   16  N   UNL     1     -10.886  10.990  69.206  1.00  0.00    -0.230 NA 
HETATM   17  C   UNL     1     -11.896  11.542  70.130  1.00  0.00    -0.356 C  
HETATM   18  C   UNL     1     -12.771  10.472  70.788  1.00  0.00    -0.471 C  
HETATM   19  C   UNL     1     -11.901   9.505  71.575  1.00  0.00    -0.478 C  
HETATM   20  C   UNL     1     -10.836   8.899  70.666  1.00  0.00    -0.286 C  
HETATM   21  C   UNL     1     -10.072   9.960  69.865  1.00  0.00    -0.257 C  
ENDBRANCH  15  16
ENDBRANCH  14  15
ENDBRANCH  12  14
ENDBRANCH   9  12
ENDBRANCH   5   6
ENDBRANCH   4   5
ENDBRANCH   3   4
ENDBRANCH   2   3
TORSDOF 8
ENDMDL
MODEL       40
REMARK 921   NORMALIZED FREE ENERGY PREDICTED BY IDOCK:   -4.96 KCAL/MOL
REMARK 922        TOTAL FREE ENERGY PREDICTED BY IDOCK:   -8.40 KCAL/MOL
REMARK 923 INTER-LIGAND FREE ENERGY PREDICTED BY IDOCK:   -6.84 KCAL/MOL
REMARK 924 INTRA-LIGAND FREE ENERGY PREDICTED BY IDOCK:   -1.56 KCAL/MOL
REMARK 927      BINDING AFFINITY PREDICTED BY RF-SCORE:    0.00 PKD
ROOT
HETATM    1  C   UNL     1     -13.768  13.683  72.403  1.00  0.00    -0.697 C  
HETATM    2  C   UNL     1     -13.652  15.174  72.676  1.00  0.00    -0.594 C  
ENDROOT
BRANCH   2   3
HETATM    3  C   UNL     1     -12.676  15.853  71.717  1.00  0.00    -0.466 C  
BRANCH   3   4
HETATM    4  C   UNL     1     -12.926  15.417  70.274  1.00  0.00    -0.167 C  
BRANCH   4   5
HETATM    5  O   UNL     1     -11.737  15.656  69.514  1.00  0.00    -0.328 OA 
BRANCH   5   6
HETATM    6  C   UNL     1     -11.163  14.539  68.963  1.00  0.00    -0.268 A  
HETATM    7  C   UNL     1      -9.829  14.444  68.565  1.00  0.00    -0.233 A  
HETATM    8  C   UNL     1      -9.348  13.250  68.010  1.00  0.00    -0.218 A  
HETATM    9  C   UNL     1     -10.202  12.156  67.836  1.00  0.00    -0.203 A  
HETATM   10  C   UNL     1     -11.996  13.423  68.852  1.00  0.00    -0.362 A  
HETATM   11  C   UNL     1     -11.525  12.236  68.280  1.00  0.00    -0.367 A  
BRANCH   9  12
HETATM   12  C   UNL     1      -9.673  10.944  67.132  1.00  0.00    -0.174 C  
HETATM   13  O   UNL     1      -9.471   9.922  67.790  1.00  0.00    -0.140 OA 
BRANCH  12  14
HETATM   14  C   UNL     1      -9.347  11.019  65.654  1.00  0.00    -0.239 C  
BRANCH  14  15
HETATM   15  C   UNL     1     -10.611  10.755  64.831  1.00  0.00    -0.188 C  
BRANCH  15  16
HETATM   16  N   UNL     1     -10.911  11.737  63.780  1.00  0.00    -0.394 NA 
HETATM   17  C   UNL     1     -12.365  11.970  63.688  1.00  0.00    -0.539 C  
HETATM   18  C   UNL     1     -12.908  12.882  64.792  1.00  0.00    -0.359 C  
HETATM   19  C   UNL     1     -12.217  14.234  64.732  1.00  0.00    -0.456 C  
HETATM   20  C   UNL     1     -10.705  14.054  64.826  1.00  0.00    -0.442 C  
HETATM   21  C   UNL     1     -10.174  13.006  63.840  1.00  0.00    -0.008 C  
ENDBRANCH  15  16
ENDBRANCH  14  15
ENDBRANCH  12  14
ENDBRANCH   9  12
ENDBRANCH   5   6
ENDBRANCH   4   5
ENDBRANCH   3   4
ENDBRANCH   2   3
TORSDOF 8
ENDMDL
MODEL       41
REMARK 921   NORMALIZED FREE ENERGY PREDICTED BY IDOCK:   -4.93 KCAL/MOL
REMARK 922        TOTAL FREE ENERGY PREDICTED BY IDOCK:   -8.36 KCAL/MOL
REMARK 923 INTER-LIGAND FREE ENERGY PREDICTED BY IDOCK:   -7.37 KCAL/MOL
REMARK 924 INTRA-LIGAND FREE ENERGY PREDICTED BY IDOCK:   -1.00 KCAL/MOL
REMARK 927      BINDING AFFINITY PREDICTED BY RF-SCORE:    0.00 PKD
ROOT
HETATM    1  C   UNL     1     -10.554  14.041  65.161  1.00  0.00    -0.400 C  
HETATM    2  C   UNL     1     -11.509  13.615  66.264  1.00  0.00    -0.352 C  
ENDROOT
BRANCH   2   3
HETATM    3  C   UNL     1     -11.540  14.624  67.410  1.00  0.00    -0.408 C  
BRANCH   3   4
HETATM    4  C   UNL     1     -10.945  14.030  68.686  1.00  0.00    -0.263 C  
BRANCH   4   5
HETATM    5  O   UNL     1     -11.900  14.174  69.743  1.00  0.00    -0.282 OA 
BRANCH   5   6
HETATM    6  C   UNL     1     -12.273  13.005  70.354  1.00  0.00    -0.310 A  
HETATM    7  C   UNL     1     -13.085  12.922  71.486  1.00  0.00    -0.390 A  
HETATM    8  C   UNL     1     -13.402  11.670  72.030  1.00  0.00    -0.405 A  
HETATM    9  C   UNL     1     -12.896  10.500  71.455  1.00  0.00    -0.551 A  
HETATM   10  C   UNL     1     -11.826  11.832  69.741  1.00  0.00    -0.420 A  
HETATM   11  C   UNL     1     -12.124  10.581  70.292  1.00  0.00    -0.402 A  
BRANCH   9  12
HETATM   12  C   UNL     1     -13.165   9.195  72.139  1.00  0.00    -0.458 C  
HETATM   13  O   UNL     1     -14.297   8.983  72.580  1.00  0.00    -0.603 OA 
BRANCH  12  14
HETATM   14  C   UNL     1     -12.038   8.199  72.323  1.00  0.00    -0.419 C  
BRANCH  14  15
HETATM   15  C   UNL     1     -12.215   7.031  71.349  1.00  0.00    -0.366 C  
BRANCH  15  16
HETATM   16  N   UNL     1     -10.990   6.304  70.988  1.00  0.00    -0.269 NA 
HETATM   17  C   UNL     1     -11.021   5.908  69.567  1.00  0.00    -0.368 C  
HETATM   18  C   UNL     1     -10.704   7.058  68.606  1.00  0.00    -0.225 C  
HETATM   19  C   UNL     1      -9.320   7.612  68.904  1.00  0.00    -0.145 C  
HETATM   20  C   UNL     1      -9.231   8.041  70.365  1.00  0.00    -0.155 C  
HETATM   21  C   UNL     1      -9.718   6.953  71.329  1.00  0.00    -0.172 C  
ENDBRANCH  15  16
ENDBRANCH  14  15
ENDBRANCH  12  14
ENDBRANCH   9  12
ENDBRANCH   5   6
ENDBRANCH   4   5
ENDBRANCH   3   4
ENDBRANCH   2   3
TORSDOF 8
ENDMDL
MODEL       42
REMARK 921   NORMALIZED FREE ENERGY PREDICTED BY IDOCK:   -4.89 KCAL/MOL
REMARK 922        TOTAL FREE ENERGY PREDICTED BY IDOCK:   -8.30 KCAL/MOL
REMARK 923 INTER-LIGAND FREE ENERGY PREDICTED BY IDOCK:   -7.42 KCAL/MOL
REMARK 924 INTRA-LIGAND FREE ENERGY PREDICTED BY IDOCK:   -0.87 KCAL/MOL
REMARK 927      BINDING AFFINITY PREDICTED BY RF-SCORE:    0.00 PKD
ROOT
HETATM    1  C   UNL     1      -7.273  19.556  68.525  1.00  0.00    -0.361 C  
HETATM    2  C   UNL     1      -8.674  19.020  68.769  1.00  0.00    -0.351 C  
ENDROOT
BRANCH   2   3
HETATM    3  C   UNL     1      -9.712  19.727  67.899  1.00  0.00    -0.503 C  
BRANCH   3   4
HETATM    4  C   UNL     1     -10.779  18.751  67.408  1.00  0.00    -0.424 C  
BRANCH   4   5
HETATM    5  O   UNL     1     -10.457  17.443  67.893  1.00  0.00    -0.353 OA 
BRANCH   5   6
HETATM    6  C   UNL     1     -10.776  16.413  67.045  1.00  0.00    -0.217 A  
HETATM    7  C   UNL     1     -10.515  16.401  65.674  1.00  0.00    -0.364 A  
HETATM    8  C   UNL     1     -10.888  15.293  64.901  1.00  0.00    -0.444 A  
HETATM    9  C   UNL     1     -11.537  14.204  65.491  1.00  0.00    -0.337 A  
HETATM   10  C   UNL     1     -11.362  15.295  67.645  1.00  0.00    -0.315 A  
HETATM   11  C   UNL     1     -11.754  14.196  66.872  1.00  0.00    -0.437 A  
BRANCH   9  12
HETATM   12  C   UNL     1     -12.021  13.097  64.606  1.00  0.00    -0.388 C  
HETATM   13  O   UNL     1     -13.183  12.707  64.731  1.00  0.00    -0.846 OA 
BRANCH  12  14
HETATM   14  C   UNL     1     -11.063  12.447  63.628  1.00  0.00    -0.535 C  
BRANCH  14  15
HETATM   15  C   UNL     1     -10.748  11.019  64.083  1.00  0.00    -0.274 C  
BRANCH  15  16
HETATM   16  N   UNL     1      -9.395  10.795  64.610  1.00  0.00    -0.219 NA 
HETATM   17  C   UNL     1      -9.185  11.574  65.846  1.00  0.00    -0.210 C  
HETATM   18  C   UNL     1      -9.844  10.951  67.079  1.00  0.00    -0.214 C  
HETATM   19  C   UNL     1      -9.290   9.555  67.311  1.00  0.00    -0.161 C  
HETATM   20  C   UNL     1      -9.483   8.700  66.062  1.00  0.00    -0.278 C  
HETATM   21  C   UNL     1      -8.985   9.396  64.790  1.00  0.00    -0.194 C  
ENDBRANCH  15  16
ENDBRANCH  14  15
ENDBRANCH  12  14
ENDBRANCH   9  12
ENDBRANCH   5   6
ENDBRANCH   4   5
ENDBRANCH   3   4
ENDBRANCH   2   3
TORSDOF 8
ENDMDL
MODEL       43
REMARK 921   NORMALIZED FREE ENERGY PREDICTED BY IDOCK:   -4.87 KCAL/MOL
REMARK 922        TOTAL FREE ENERGY PREDICTED BY IDOCK:   -8.27 KCAL/MOL
REMARK 923 INTER-LIGAND FREE ENERGY PREDICTED BY IDOCK:   -7.54 KCAL/MOL
REMARK 924 INTRA-LIGAND FREE ENERGY PREDICTED BY IDOCK:   -0.73 KCAL/MOL
REMARK 927      BINDING AFFINITY PREDICTED BY RF-SCORE:    0.00 PKD
ROOT
HETATM    1  C   UNL     1      -9.946  19.543  68.077  1.00  0.00    -0.513 C  
HETATM    2  C   UNL     1     -10.006  20.320  66.772  1.00  0.00    -0.587 C  
ENDROOT
BRANCH   2   3
HETATM    3  C   UNL     1     -10.641  19.500  65.651  1.00  0.00    -0.434 C  
BRANCH   3   4
HETATM    4  C   UNL     1     -10.468  18.002  65.896  1.00  0.00    -0.264 C  
BRANCH   4   5
HETATM    5  O   UNL     1     -10.972  17.293  64.758  1.00  0.00    -0.950 OA 
BRANCH   5   6
HETATM    6  C   UNL     1     -10.999  15.929  64.888  1.00  0.00    -0.411 A  
HETATM    7  C   UNL     1     -12.053  15.111  64.479  1.00  0.00    -0.310 A  
HETATM    8  C   UNL     1     -11.975  13.724  64.663  1.00  0.00    -0.445 A  
HETATM    9  C   UNL     1     -10.852  13.153  65.270  1.00  0.00    -0.314 A  
HETATM   10  C   UNL     1      -9.849  15.349  65.431  1.00  0.00    -0.314 A  
HETATM   11  C   UNL     1      -9.776  13.967  65.635  1.00  0.00    -0.157 A  
BRANCH   9  12
HETATM   12  C   UNL     1     -10.865  11.682  65.552  1.00  0.00    -0.279 C  
HETATM   13  O   UNL     1     -10.695  10.900  64.614  1.00  0.00    -0.308 OA 
BRANCH  12  14
HETATM   14  C   UNL     1     -11.142  11.190  66.958  1.00  0.00    -0.339 C  
BRANCH  14  15
HETATM   15  C   UNL     1     -11.855  12.285  67.758  1.00  0.00    -0.273 C  
BRANCH  15  16
HETATM   16  N   UNL     1     -11.195  12.705  69.002  1.00  0.00    -0.268 NA 
HETATM   17  C   UNL     1     -10.759  14.111  68.909  1.00  0.00    -0.256 C  
HETATM   18  C   UNL     1     -11.899  15.117  69.092  1.00  0.00    -0.340 C  
HETATM   19  C   UNL     1     -12.547  14.921  70.453  1.00  0.00    -0.394 C  
HETATM   20  C   UNL     1     -13.022  13.480  70.605  1.00  0.00    -0.096 C  
HETATM   21  C   UNL     1     -11.933  12.460  70.249  1.00  0.00    -0.289 C  
ENDBRANCH  15  16
ENDBRANCH  14  15
ENDBRANCH  12  14
ENDBRANCH   9  12
ENDBRANCH   5   6
ENDBRANCH   4   5
ENDBRANCH   3   4
ENDBRANCH   2   3
TORSDOF 8
ENDMDL
MODEL       44
REMARK 921   NORMALIZED FREE ENERGY PREDICTED BY IDOCK:   -4.87 KCAL/MOL
REMARK 922        TOTAL FREE ENERGY PREDICTED BY IDOCK:   -8.27 KCAL/MOL
REMARK 923 INTER-LIGAND FREE ENERGY PREDICTED BY IDOCK:   -7.37 KCAL/MOL
REMARK 924 INTRA-LIGAND FREE ENERGY PREDICTED BY IDOCK:   -0.90 KCAL/MOL
REMARK 927      BINDING AFFINITY PREDICTED BY RF-SCORE:    0.00 PKD
ROOT
HETATM    1  C   UNL     1      -9.969  19.495  68.885  1.00  0.00    -0.529 C  
HETATM    2  C   UNL     1      -9.043  19.824  67.726  1.00  0.00    -0.412 C  
ENDROOT
BRANCH   2   3
HETATM    3  C   UNL     1      -9.820  20.122  66.445  1.00  0.00    -0.560 C  
BRANCH   3   4
HETATM    4  C   UNL     1     -10.595  18.893  65.971  1.00  0.00    -0.403 C  
BRANCH   4   5
HETATM    5  O   UNL     1      -9.665  17.831  65.734  1.00  0.00    -0.534 OA 
BRANCH   5   6
HETATM    6  C   UNL     1     -10.130  16.575  66.025  1.00  0.00    -0.348 A  
HETATM    7  C   UNL     1     -10.759  15.728  65.112  1.00  0.00    -0.455 A  
HETATM    8  C   UNL     1     -11.198  14.461  65.520  1.00  0.00    -0.330 A  
HETATM    9  C   UNL     1     -11.025  14.045  66.844  1.00  0.00    -0.301 A  
HETATM   10  C   UNL     1      -9.897  16.130  67.329  1.00  0.00    -0.241 A  
HETATM   11  C   UNL     1     -10.351  14.874  67.745  1.00  0.00    -0.244 A  
BRANCH   9  12
HETATM   12  C   UNL     1     -11.615  12.733  67.261  1.00  0.00    -0.360 C  
HETATM   13  O   UNL     1     -12.176  12.041  66.410  1.00  0.00    -0.551 OA 
BRANCH  12  14
HETATM   14  C   UNL     1     -11.560  12.317  68.718  1.00  0.00    -0.380 C  
BRANCH  14  15
HETATM   15  C   UNL     1     -10.357  11.398  68.949  1.00  0.00    -0.184 C  
BRANCH  15  16
HETATM   16  N   UNL     1     -10.657   9.965  69.073  1.00  0.00    -0.212 NA 
HETATM   17  C   UNL     1      -9.435   9.205  69.398  1.00  0.00    -0.161 C  
HETATM   18  C   UNL     1      -9.021   9.316  70.869  1.00  0.00    -0.273 C  
HETATM   19  C   UNL     1     -10.139   8.801  71.760  1.00  0.00    -0.403 C  
HETATM   20  C   UNL     1     -11.433   9.556  71.468  1.00  0.00    -0.466 C  
HETATM   21  C   UNL     1     -11.762   9.602  69.971  1.00  0.00    -0.023 C  
ENDBRANCH  15  16
ENDBRANCH  14  15
ENDBRANCH  12  14
ENDBRANCH   9  12
ENDBRANCH   5   6
ENDBRANCH   4   5
ENDBRANCH   3   4
ENDBRANCH   2   3
TORSDOF 8
ENDMDL
MODEL       45
REMARK 921   NORMALIZED FREE ENERGY PREDICTED BY IDOCK:   -4.83 KCAL/MOL
REMARK 922        TOTAL FREE ENERGY PREDICTED BY IDOCK:   -8.22 KCAL/MOL
REMARK 923 INTER-LIGAND FREE ENERGY PREDICTED BY IDOCK:   -7.49 KCAL/MOL
REMARK 924 INTRA-LIGAND FREE ENERGY PREDICTED BY IDOCK:   -0.73 KCAL/MOL
REMARK 927      BINDING AFFINITY PREDICTED BY RF-SCORE:    0.00 PKD
ROOT
HETATM    1  C   UNL     1     -12.188  10.124  71.127  1.00  0.00    -0.490 C  
HETATM    2  C   UNL     1     -10.802   9.812  70.587  1.00  0.00    -0.396 C  
ENDROOT
BRANCH   2   3
HETATM    3  C   UNL     1     -10.526  10.543  69.274  1.00  0.00    -0.258 C  
BRANCH   3   4
HETATM    4  C   UNL     1     -11.822  11.045  68.638  1.00  0.00    -0.247 C  
BRANCH   4   5
HETATM    5  O   UNL     1     -11.671  11.016  67.214  1.00  0.00    -0.504 OA 
BRANCH   5   6
HETATM    6  C   UNL     1     -11.552  12.244  66.617  1.00  0.00    -0.375 A  
HETATM    7  C   UNL     1     -11.100  12.453  65.313  1.00  0.00    -0.342 A  
HETATM    8  C   UNL     1     -11.015  13.756  64.803  1.00  0.00    -0.396 A  
HETATM    9  C   UNL     1     -11.363  14.852  65.599  1.00  0.00    -0.325 A  
HETATM   10  C   UNL     1     -11.964  13.335  67.386  1.00  0.00    -0.383 A  
HETATM   11  C   UNL     1     -11.862  14.638  66.887  1.00  0.00    -0.345 A  
BRANCH   9  12
HETATM   12  C   UNL     1     -11.145  16.229  65.051  1.00  0.00    -0.254 C  
HETATM   13  O   UNL     1     -11.610  16.504  63.943  1.00  0.00    -1.175 OA 
BRANCH  12  14
HETATM   14  C   UNL     1     -10.315  17.224  65.837  1.00  0.00    -0.287 C  
BRANCH  14  15
HETATM   15  C   UNL     1      -8.902  16.671  66.044  1.00  0.00    -0.207 C  
BRANCH  15  16
HETATM   16  N   UNL     1      -8.071  17.380  67.026  1.00  0.00    -0.207 NA 
HETATM   17  C   UNL     1      -6.639  17.219  66.708  1.00  0.00    -0.212 C  
HETATM   18  C   UNL     1      -6.165  18.113  65.559  1.00  0.00    -0.254 C  
HETATM   19  C   UNL     1      -6.401  19.573  65.910  1.00  0.00    -0.225 C  
HETATM   20  C   UNL     1      -7.872  19.800  66.247  1.00  0.00    -0.340 C  
HETATM   21  C   UNL     1      -8.404  18.789  67.271  1.00  0.00    -0.268 C  
ENDBRANCH  15  16
ENDBRANCH  14  15
ENDBRANCH  12  14
ENDBRANCH   9  12
ENDBRANCH   5   6
ENDBRANCH   4   5
ENDBRANCH   3   4
ENDBRANCH   2   3
TORSDOF 8
ENDMDL
MODEL       46
REMARK 921   NORMALIZED FREE ENERGY PREDICTED BY IDOCK:   -4.83 KCAL/MOL
REMARK 922        TOTAL FREE ENERGY PREDICTED BY IDOCK:   -8.21 KCAL/MOL
REMARK 923 INTER-LIGAND FREE ENERGY PREDICTED BY IDOCK:   -7.37 KCAL/MOL
REMARK 924 INTRA-LIGAND FREE ENERGY PREDICTED BY IDOCK:   -0.84 KCAL/MOL
REMARK 927      BINDING AFFINITY PREDICTED BY RF-SCORE:    0.00 PKD
ROOT
HETATM    1  C   UNL     1     -10.124   8.372  68.750  1.00  0.00    -0.209 C  
HETATM    2  C   UNL     1      -9.966   8.329  70.261  1.00  0.00    -0.188 C  
ENDROOT
BRANCH   2   3
HETATM    3  C   UNL     1     -11.227   7.810  70.950  1.00  0.00    -0.284 C  
BRANCH   3   4
HETATM    4  C   UNL     1     -11.798   8.849  71.913  1.00  0.00    -0.370 C  
BRANCH   4   5
HETATM    5  O   UNL     1     -12.909   9.494  71.281  1.00  0.00    -0.328 OA 
BRANCH   5   6
HETATM    6  C   UNL     1     -12.784  10.851  71.128  1.00  0.00    -0.429 A  
HETATM    7  C   UNL     1     -13.221  11.800  72.053  1.00  0.00    -0.460 A  
HETATM    8  C   UNL     1     -13.044  13.166  71.791  1.00  0.00    -0.478 A  
HETATM    9  C   UNL     1     -12.446  13.586  70.599  1.00  0.00    -0.405 A  
HETATM   10  C   UNL     1     -12.125  11.271  69.969  1.00  0.00    -0.425 A  
HETATM   11  C   UNL     1     -11.964  12.634  69.696  1.00  0.00    -0.352 A  
BRANCH   9  12
HETATM   12  C   UNL     1     -12.384  15.054  70.311  1.00  0.00    -0.342 C  
HETATM   13  O   UNL     1     -12.817  15.840  71.157  1.00  0.00    -0.486 OA 
BRANCH  12  14
HETATM   14  C   UNL     1     -11.850  15.534  68.976  1.00  0.00    -0.373 C  
BRANCH  14  15
HETATM   15  C   UNL     1     -10.690  16.507  69.202  1.00  0.00    -0.335 C  
BRANCH  15  16
HETATM   16  N   UNL     1     -10.492  17.525  68.161  1.00  0.00    -0.375 NA 
HETATM   17  C   UNL     1      -9.352  18.399  68.500  1.00  0.00    -0.335 C  
HETATM   18  C   UNL     1      -7.989  17.756  68.227  1.00  0.00    -0.282 C  
HETATM   19  C   UNL     1      -7.875  17.392  66.756  1.00  0.00    -0.273 C  
HETATM   20  C   UNL     1      -9.031  16.484  66.349  1.00  0.00    -0.340 C  
HETATM   21  C   UNL     1     -10.394  17.038  66.779  1.00  0.00    -0.302 C  
ENDBRANCH  15  16
ENDBRANCH  14  15
ENDBRANCH  12  14
ENDBRANCH   9  12
ENDBRANCH   5   6
ENDBRANCH   4   5
ENDBRANCH   3   4
ENDBRANCH   2   3
TORSDOF 8
ENDMDL
MODEL       47
REMARK 921   NORMALIZED FREE ENERGY PREDICTED BY IDOCK:   -4.79 KCAL/MOL
REMARK 922        TOTAL FREE ENERGY PREDICTED BY IDOCK:   -8.15 KCAL/MOL
REMARK 923 INTER-LIGAND FREE ENERGY PREDICTED BY IDOCK:   -7.19 KCAL/MOL
REMARK 924 INTRA-LIGAND FREE ENERGY PREDICTED BY IDOCK:   -0.96 KCAL/MOL
REMARK 927      BINDING AFFINITY PREDICTED BY RF-SCORE:    0.00 PKD
ROOT
HETATM    1  C   UNL     1     -12.881  15.735  73.912  1.00  0.00    -0.676 C  
HETATM    2  C   UNL     1     -12.174  16.576  72.861  1.00  0.00    -0.409 C  
ENDROOT
BRANCH   2   3
HETATM    3  C   UNL     1     -11.323  15.718  71.926  1.00  0.00    -0.369 C  
BRANCH   3   4
HETATM    4  C   UNL     1     -11.982  15.572  70.556  1.00  0.00    -0.371 C  
BRANCH   4   5
HETATM    5  O   UNL     1     -13.074  14.653  70.672  1.00  0.00    -0.355 OA 
BRANCH   5   6
HETATM    6  C   UNL     1     -12.721  13.328  70.689  1.00  0.00    -0.156 A  
HETATM    7  C   UNL     1     -11.830  12.730  69.797  1.00  0.00    -0.380 A  
HETATM    8  C   UNL     1     -11.543  11.363  69.906  1.00  0.00    -0.402 A  
HETATM    9  C   UNL     1     -12.157  10.587  70.894  1.00  0.00    -0.487 A  
HETATM   10  C   UNL     1     -13.280  12.566  71.718  1.00  0.00    -0.444 A  
HETATM   11  C   UNL     1     -13.011  11.196  71.818  1.00  0.00    -0.526 A  
BRANCH   9  12
HETATM   12  C   UNL     1     -11.910   9.110  70.897  1.00  0.00    -0.270 C  
HETATM   13  O   UNL     1     -11.096   8.647  70.095  1.00  0.00    -0.248 OA 
BRANCH  12  14
HETATM   14  C   UNL     1     -12.699   8.220  71.836  1.00  0.00    -0.373 C  
BRANCH  14  15
HETATM   15  C   UNL     1     -12.306   6.757  71.614  1.00  0.00    -0.362 C  
BRANCH  15  16
HETATM   16  N   UNL     1     -11.474   6.149  72.662  1.00  0.00    -0.265 NA 
HETATM   17  C   UNL     1     -10.650   5.060  72.103  1.00  0.00    -0.193 C  
HETATM   18  C   UNL     1      -9.429   5.556  71.323  1.00  0.00    -0.185 C  
HETATM   19  C   UNL     1      -8.541   6.391  72.231  1.00  0.00    -0.117 C  
HETATM   20  C   UNL     1      -9.342   7.539  72.838  1.00  0.00    -0.232 C  
HETATM   21  C   UNL     1     -10.659   7.069  73.467  1.00  0.00    -0.368 C  
ENDBRANCH  15  16
ENDBRANCH  14  15
ENDBRANCH  12  14
ENDBRANCH   9  12
ENDBRANCH   5   6
ENDBRANCH   4   5
ENDBRANCH   3   4
ENDBRANCH   2   3
TORSDOF 8
ENDMDL
MODEL       48
REMARK 921   NORMALIZED FREE ENERGY PREDICTED BY IDOCK:   -4.79 KCAL/MOL
REMARK 922        TOTAL FREE ENERGY PREDICTED BY IDOCK:   -8.15 KCAL/MOL
REMARK 923 INTER-LIGAND FREE ENERGY PREDICTED BY IDOCK:   -7.50 KCAL/MOL
REMARK 924 INTRA-LIGAND FREE ENERGY PREDICTED BY IDOCK:   -0.65 KCAL/MOL
REMARK 927      BINDING AFFINITY PREDICTED BY RF-SCORE:    0.00 PKD
ROOT
HETATM    1  C   UNL     1     -10.166  19.787  67.995  1.00  0.00    -0.581 C  
HETATM    2  C   UNL     1     -10.131  20.168  66.524  1.00  0.00    -0.577 C  
ENDROOT
BRANCH   2   3
HETATM    3  C   UNL     1     -10.643  19.038  65.632  1.00  0.00    -0.273 C  
BRANCH   3   4
HETATM    4  C   UNL     1     -10.387  17.672  66.268  1.00  0.00    -0.342 C  
BRANCH   4   5
HETATM    5  O   UNL     1     -10.478  16.671  65.249  1.00  0.00    -0.612 OA 
BRANCH   5   6
HETATM    6  C   UNL     1     -10.708  15.398  65.703  1.00  0.00    -0.369 A  
HETATM    7  C   UNL     1     -11.864  14.659  65.447  1.00  0.00    -0.304 A  
HETATM    8  C   UNL     1     -11.994  13.363  65.965  1.00  0.00    -0.460 A  
HETATM    9  C   UNL     1     -10.980  12.810  66.753  1.00  0.00    -0.301 A  
HETATM   10  C   UNL     1      -9.667  14.818  66.433  1.00  0.00    -0.311 A  
HETATM   11  C   UNL     1      -9.802  13.532  66.968  1.00  0.00    -0.251 A  
BRANCH   9  12
HETATM   12  C   UNL     1     -11.215  11.471  67.380  1.00  0.00    -0.304 C  
HETATM   13  O   UNL     1     -12.245  11.298  68.034  1.00  0.00    -0.621 OA 
BRANCH  12  14
HETATM   14  C   UNL     1     -10.163  10.387  67.249  1.00  0.00    -0.258 C  
BRANCH  14  15
HETATM   15  C   UNL     1     -10.657   9.102  67.920  1.00  0.00    -0.214 C  
BRANCH  15  16
HETATM   16  N   UNL     1      -9.861   8.624  69.059  1.00  0.00    -0.177 NA 
HETATM   17  C   UNL     1      -9.840   9.631  70.137  1.00  0.00    -0.262 C  
HETATM   18  C   UNL     1     -11.129   9.666  70.963  1.00  0.00    -0.438 C  
HETATM   19  C   UNL     1     -11.370   8.307  71.601  1.00  0.00    -0.329 C  
HETATM   20  C   UNL     1     -11.403   7.223  70.529  1.00  0.00    -0.308 C  
HETATM   21  C   UNL     1     -10.199   7.294  69.582  1.00  0.00    -0.211 C  
ENDBRANCH  15  16
ENDBRANCH  14  15
ENDBRANCH  12  14
ENDBRANCH   9  12
ENDBRANCH   5   6
ENDBRANCH   4   5
ENDBRANCH   3   4
ENDBRANCH   2   3
TORSDOF 8
ENDMDL
MODEL       49
REMARK 921   NORMALIZED FREE ENERGY PREDICTED BY IDOCK:   -4.78 KCAL/MOL
REMARK 922        TOTAL FREE ENERGY PREDICTED BY IDOCK:   -8.14 KCAL/MOL
REMARK 923 INTER-LIGAND FREE ENERGY PREDICTED BY IDOCK:   -7.09 KCAL/MOL
REMARK 924 INTRA-LIGAND FREE ENERGY PREDICTED BY IDOCK:   -1.05 KCAL/MOL
REMARK 927      BINDING AFFINITY PREDICTED BY RF-SCORE:    0.00 PKD
ROOT
HETATM    1  C   UNL     1      -6.266  20.653  64.464  1.00  0.00    -0.342 C  
HETATM    2  C   UNL     1      -5.878  21.035  65.883  1.00  0.00    -0.290 C  
ENDROOT
BRANCH   2   3
HETATM    3  C   UNL     1      -5.260  19.860  66.638  1.00  0.00    -0.165 C  
BRANCH   3   4
HETATM    4  C   UNL     1      -6.110  19.471  67.847  1.00  0.00    -0.209 C  
BRANCH   4   5
HETATM    5  O   UNL     1      -7.468  19.843  67.586  1.00  0.00    -0.267 OA 
BRANCH   5   6
HETATM    6  C   UNL     1      -8.242  18.862  67.022  1.00  0.00    -0.270 A  
HETATM    7  C   UNL     1      -7.801  17.571  66.726  1.00  0.00    -0.264 A  
HETATM    8  C   UNL     1      -8.679  16.647  66.145  1.00  0.00    -0.322 A  
HETATM    9  C   UNL     1      -9.994  17.015  65.841  1.00  0.00    -0.239 A  
HETATM   10  C   UNL     1      -9.575  19.206  66.781  1.00  0.00    -0.383 A  
HETATM   11  C   UNL     1     -10.449  18.292  66.182  1.00  0.00    -0.403 A  
BRANCH   9  12
HETATM   12  C   UNL     1     -10.859  16.033  65.115  1.00  0.00    -0.395 C  
HETATM   13  O   UNL     1     -11.416  16.393  64.075  1.00  0.00    -1.048 OA 
BRANCH  12  14
HETATM   14  C   UNL     1     -11.077  14.651  65.698  1.00  0.00    -0.338 C  
BRANCH  14  15
HETATM   15  C   UNL     1     -11.767  14.768  67.061  1.00  0.00    -0.315 C  
BRANCH  15  16
HETATM   16  N   UNL     1     -11.149  14.015  68.161  1.00  0.00    -0.251 NA 
HETATM   17  C   UNL     1     -10.038  14.783  68.755  1.00  0.00    -0.237 C  
HETATM   18  C   UNL     1     -10.503  15.903  69.691  1.00  0.00    -0.295 C  
HETATM   19  C   UNL     1     -11.324  15.317  70.828  1.00  0.00    -0.365 C  
HETATM   20  C   UNL     1     -12.493  14.511  70.270  1.00  0.00    -0.405 C  
HETATM   21  C   UNL     1     -12.056  13.506  69.198  1.00  0.00    -0.288 C  
ENDBRANCH  15  16
ENDBRANCH  14  15
ENDBRANCH  12  14
ENDBRANCH   9  12
ENDBRANCH   5   6
ENDBRANCH   4   5
ENDBRANCH   3   4
ENDBRANCH   2   3
TORSDOF 8
ENDMDL
MODEL       50
REMARK 921   NORMALIZED FREE ENERGY PREDICTED BY IDOCK:   -4.77 KCAL/MOL
REMARK 922        TOTAL FREE ENERGY PREDICTED BY IDOCK:   -8.12 KCAL/MOL
REMARK 923 INTER-LIGAND FREE ENERGY PREDICTED BY IDOCK:   -7.31 KCAL/MOL
REMARK 924 INTRA-LIGAND FREE ENERGY PREDICTED BY IDOCK:   -0.81 KCAL/MOL
REMARK 927      BINDING AFFINITY PREDICTED BY RF-SCORE:    0.00 PKD
ROOT
HETATM    1  C   UNL     1     -11.950  11.848  63.485  1.00  0.00    -0.567 C  
HETATM    2  C   UNL     1     -12.159  13.335  63.723  1.00  0.00    -0.546 C  
ENDROOT
BRANCH   2   3
HETATM    3  C   UNL     1     -12.553  13.629  65.169  1.00  0.00    -0.474 C  
BRANCH   3   4
HETATM    4  C   UNL     1     -11.897  12.641  66.133  1.00  0.00    -0.418 C  
BRANCH   4   5
HETATM    5  O   UNL     1     -10.581  13.112  66.442  1.00  0.00    -0.280 OA 
BRANCH   5   6
HETATM    6  C   UNL     1     -10.506  14.433  66.801  1.00  0.00    -0.273 A  
HETATM    7  C   UNL     1     -11.078  14.980  67.951  1.00  0.00    -0.310 A  
HETATM    8  C   UNL     1     -10.940  16.348  68.219  1.00  0.00    -0.355 A  
HETATM    9  C   UNL     1     -10.246  17.177  67.331  1.00  0.00    -0.321 A  
HETATM   10  C   UNL     1      -9.754  15.250  65.951  1.00  0.00    -0.390 A  
HETATM   11  C   UNL     1      -9.631  16.620  66.205  1.00  0.00    -0.325 A  
BRANCH   9  12
HETATM   12  C   UNL     1     -10.225  18.650  67.598  1.00  0.00    -0.384 C  
HETATM   13  O   UNL     1     -11.172  19.334  67.205  1.00  0.00    -0.340 OA 
BRANCH  12  14
HETATM   14  C   UNL     1      -9.026  19.270  68.287  1.00  0.00    -0.381 C  
BRANCH  14  15
HETATM   15  C   UNL     1      -8.348  20.270  67.346  1.00  0.00    -0.340 C  
BRANCH  15  16
HETATM   16  N   UNL     1      -6.882  20.199  67.278  1.00  0.00    -0.224 NA 
HETATM   17  C   UNL     1      -6.439  18.804  67.087  1.00  0.00    -0.191 C  
HETATM   18  C   UNL     1      -6.599  18.305  65.648  1.00  0.00    -0.298 C  
HETATM   19  C   UNL     1      -5.792  19.183  64.705  1.00  0.00    -0.319 C  
HETATM   20  C   UNL     1      -6.211  20.642  64.858  1.00  0.00    -0.319 C  
HETATM   21  C   UNL     1      -6.226  21.099  66.321  1.00  0.00    -0.258 C  
ENDBRANCH  15  16
ENDBRANCH  14  15
ENDBRANCH  12  14
ENDBRANCH   9  12
ENDBRANCH   5   6
ENDBRANCH   4   5
ENDBRANCH   3   4
ENDBRANCH   2   3
TORSDOF 8
ENDMDL
MODEL       51
REMARK 921   NORMALIZED FREE ENERGY PREDICTED BY IDOCK:   -4.76 KCAL/MOL
REMARK 922        TOTAL FREE ENERGY PREDICTED BY IDOCK:   -8.11 KCAL/MOL
REMARK 923 INTER-LIGAND FREE ENERGY PREDICTED BY IDOCK:   -7.30 KCAL/MOL
REMARK 924 INTRA-LIGAND FREE ENERGY PREDICTED BY IDOCK:   -0.81 KCAL/MOL
REMARK 927      BINDING AFFINITY PREDICTED BY RF-SCORE:    0.00 PKD
ROOT
HETATM    1  C   UNL     1     -10.193  15.595  65.366  1.00  0.00    -0.401 C  
HETATM    2  C   UNL     1     -10.595  16.690  66.340  1.00  0.00    -0.200 C  
ENDROOT
BRANCH   2   3
HETATM    3  C   UNL     1      -9.561  16.870  67.450  1.00  0.00    -0.241 C  
BRANCH   3   4
HETATM    4  C   UNL     1     -10.201  16.730  68.830  1.00  0.00    -0.304 C  
BRANCH   4   5
HETATM    5  O   UNL     1     -11.525  16.210  68.667  1.00  0.00    -0.373 OA 
BRANCH   5   6
HETATM    6  C   UNL     1     -11.749  14.993  69.258  1.00  0.00    -0.323 A  
HETATM    7  C   UNL     1     -11.376  13.763  68.714  1.00  0.00    -0.318 A  
HETATM    8  C   UNL     1     -11.658  12.577  69.405  1.00  0.00    -0.368 A  
HETATM    9  C   UNL     1     -12.328  12.616  70.632  1.00  0.00    -0.375 A  
HETATM   10  C   UNL     1     -12.357  15.033  70.516  1.00  0.00    -0.411 A  
HETATM   11  C   UNL     1     -12.658  13.850  71.200  1.00  0.00    -0.446 A  
BRANCH   9  12
HETATM   12  C   UNL     1     -12.711  11.319  71.276  1.00  0.00    -0.405 C  
HETATM   13  O   UNL     1     -13.423  11.348  72.283  1.00  0.00    -0.351 OA 
BRANCH  12  14
HETATM   14  C   UNL     1     -12.173  10.017  70.718  1.00  0.00    -0.408 C  
BRANCH  14  15
HETATM   15  C   UNL     1     -11.310   9.319  71.773  1.00  0.00    -0.367 C  
BRANCH  15  16
HETATM   16  N   UNL     1     -11.853   8.071  72.325  1.00  0.00    -0.348 NA 
HETATM   17  C   UNL     1     -12.469   7.257  71.259  1.00  0.00    -0.366 C  
HETATM   18  C   UNL     1     -11.448   6.512  70.394  1.00  0.00    -0.465 C  
HETATM   19  C   UNL     1     -10.614   5.584  71.263  1.00  0.00    -0.304 C  
HETATM   20  C   UNL     1      -9.949   6.375  72.385  1.00  0.00    -0.183 C  
HETATM   21  C   UNL     1     -10.940   7.265  73.146  1.00  0.00    -0.340 C  
ENDBRANCH  15  16
ENDBRANCH  14  15
ENDBRANCH  12  14
ENDBRANCH   9  12
ENDBRANCH   5   6
ENDBRANCH   4   5
ENDBRANCH   3   4
ENDBRANCH   2   3
TORSDOF 8
ENDMDL
MODEL       52
REMARK 921   NORMALIZED FREE ENERGY PREDICTED BY IDOCK:   -4.75 KCAL/MOL
REMARK 922        TOTAL FREE ENERGY PREDICTED BY IDOCK:   -8.09 KCAL/MOL
REMARK 923 INTER-LIGAND FREE ENERGY PREDICTED BY IDOCK:   -7.23 KCAL/MOL
REMARK 924 INTRA-LIGAND FREE ENERGY PREDICTED BY IDOCK:   -0.86 KCAL/MOL
REMARK 927      BINDING AFFINITY PREDICTED BY RF-SCORE:    0.00 PKD
ROOT
HETATM    1  C   UNL     1      -9.956  18.253  67.117  1.00  0.00    -0.345 C  
HETATM    2  C   UNL     1     -10.574  17.437  68.241  1.00  0.00    -0.366 C  
ENDROOT
BRANCH   2   3
HETATM    3  C   UNL     1     -10.701  15.961  67.868  1.00  0.00    -0.312 C  
BRANCH   3   4
HETATM    4  C   UNL     1     -10.696  15.074  69.111  1.00  0.00    -0.249 C  
BRANCH   4   5
HETATM    5  O   UNL     1     -12.051  14.832  69.504  1.00  0.00    -0.307 OA 
BRANCH   5   6
HETATM    6  C   UNL     1     -12.279  13.612  70.086  1.00  0.00    -0.342 A  
HETATM    7  C   UNL     1     -12.897  13.424  71.324  1.00  0.00    -0.407 A  
HETATM    8  C   UNL     1     -13.077  12.128  71.826  1.00  0.00    -0.457 A  
HETATM    9  C   UNL     1     -12.626  11.020  71.103  1.00  0.00    -0.522 A  
HETATM   10  C   UNL     1     -11.892  12.500  69.334  1.00  0.00    -0.368 A  
HETATM   11  C   UNL     1     -12.052  11.205  69.842  1.00  0.00    -0.418 A  
BRANCH   9  12
HETATM   12  C   UNL     1     -12.734   9.665  71.732  1.00  0.00    -0.420 C  
HETATM   13  O   UNL     1     -13.835   9.293  72.145  1.00  0.00    -0.427 OA 
BRANCH  12  14
HETATM   14  C   UNL     1     -11.491   8.815  71.901  1.00  0.00    -0.428 C  
BRANCH  14  15
HETATM   15  C   UNL     1     -11.569   7.595  70.977  1.00  0.00    -0.282 C  
BRANCH  15  16
HETATM   16  N   UNL     1     -10.328   7.239  70.277  1.00  0.00    -0.207 NA 
HETATM   17  C   UNL     1     -10.544   6.072  69.399  1.00  0.00    -0.298 C  
HETATM   18  C   UNL     1     -11.264   6.417  68.093  1.00  0.00    -0.270 C  
HETATM   19  C   UNL     1     -10.457   7.441  67.312  1.00  0.00    -0.385 C  
HETATM   20  C   UNL     1     -10.204   8.675  68.173  1.00  0.00    -0.250 C  
HETATM   21  C   UNL     1      -9.647   8.324  69.558  1.00  0.00    -0.171 C  
ENDBRANCH  15  16
ENDBRANCH  14  15
ENDBRANCH  12  14
ENDBRANCH   9  12
ENDBRANCH   5   6
ENDBRANCH   4   5
ENDBRANCH   3   4
ENDBRANCH   2   3
TORSDOF 8
ENDMDL
MODEL       53
REMARK 921   NORMALIZED FREE ENERGY PREDICTED BY IDOCK:   -4.72 KCAL/MOL
REMARK 922        TOTAL FREE ENERGY PREDICTED BY IDOCK:   -8.05 KCAL/MOL
REMARK 923 INTER-LIGAND FREE ENERGY PREDICTED BY IDOCK:   -6.89 KCAL/MOL
REMARK 924 INTRA-LIGAND FREE ENERGY PREDICTED BY IDOCK:   -1.16 KCAL/MOL
REMARK 927      BINDING AFFINITY PREDICTED BY RF-SCORE:    0.00 PKD
ROOT
HETATM    1  C   UNL     1     -11.577  12.296  63.519  1.00  0.00    -0.570 C  
HETATM    2  C   UNL     1     -10.121  11.860  63.513  1.00  0.00    -0.464 C  
ENDROOT
BRANCH   2   3
HETATM    3  C   UNL     1      -9.946  10.459  64.095  1.00  0.00    -0.337 C  
BRANCH   3   4
HETATM    4  C   UNL     1      -9.308  10.512  65.482  1.00  0.00    -0.202 C  
BRANCH   4   5
HETATM    5  O   UNL     1     -10.348  10.636  66.458  1.00  0.00    -0.232 OA 
BRANCH   5   6
HETATM    6  C   UNL     1     -10.430  11.860  67.069  1.00  0.00    -0.224 A  
HETATM    7  C   UNL     1      -9.353  12.726  67.263  1.00  0.00    -0.200 A  
HETATM    8  C   UNL     1      -9.552  13.956  67.904  1.00  0.00    -0.227 A  
HETATM    9  C   UNL     1     -10.821  14.315  68.370  1.00  0.00    -0.263 A  
HETATM   10  C   UNL     1     -11.710  12.251  67.473  1.00  0.00    -0.402 A  
HETATM   11  C   UNL     1     -11.908  13.469  68.132  1.00  0.00    -0.400 A  
BRANCH   9  12
HETATM   12  C   UNL     1     -10.960  15.585  69.152  1.00  0.00    -0.259 C  
HETATM   13  O   UNL     1     -11.964  15.739  69.852  1.00  0.00    -0.355 OA 
BRANCH  12  14
HETATM   14  C   UNL     1      -9.906  16.665  69.022  1.00  0.00    -0.267 C  
BRANCH  14  15
HETATM   15  C   UNL     1     -10.493  17.877  68.292  1.00  0.00    -0.354 C  
BRANCH  15  16
HETATM   16  N   UNL     1     -10.123  18.018  66.877  1.00  0.00    -0.330 NA 
HETATM   17  C   UNL     1     -10.453  19.369  66.387  1.00  0.00    -0.488 C  
HETATM   18  C   UNL     1      -9.450  20.440  66.827  1.00  0.00    -0.478 C  
HETATM   19  C   UNL     1      -8.062  20.087  66.319  1.00  0.00    -0.318 C  
HETATM   20  C   UNL     1      -7.665  18.695  66.800  1.00  0.00    -0.255 C  
HETATM   21  C   UNL     1      -8.747  17.645  66.520  1.00  0.00    -0.263 C  
ENDBRANCH  15  16
ENDBRANCH  14  15
ENDBRANCH  12  14
ENDBRANCH   9  12
ENDBRANCH   5   6
ENDBRANCH   4   5
ENDBRANCH   3   4
ENDBRANCH   2   3
TORSDOF 8
ENDMDL
MODEL       54
REMARK 921   NORMALIZED FREE ENERGY PREDICTED BY IDOCK:   -4.71 KCAL/MOL
REMARK 922        TOTAL FREE ENERGY PREDICTED BY IDOCK:   -8.03 KCAL/MOL
REMARK 923 INTER-LIGAND FREE ENERGY PREDICTED BY IDOCK:   -7.27 KCAL/MOL
REMARK 924 INTRA-LIGAND FREE ENERGY PREDICTED BY IDOCK:   -0.77 KCAL/MOL
REMARK 927      BINDING AFFINITY PREDICTED BY RF-SCORE:    0.00 PKD
ROOT
HETATM    1  C   UNL     1     -10.704  19.796  65.799  1.00  0.00    -0.474 C  
HETATM    2  C   UNL     1     -10.584  19.753  67.314  1.00  0.00    -0.565 C  
ENDROOT
BRANCH   2   3
HETATM    3  C   UNL     1      -9.195  19.299  67.760  1.00  0.00    -0.367 C  
BRANCH   3   4
HETATM    4  C   UNL     1      -9.241  17.902  68.375  1.00  0.00    -0.286 C  
BRANCH   4   5
HETATM    5  O   UNL     1     -10.598  17.447  68.372  1.00  0.00    -0.367 OA 
BRANCH   5   6
HETATM    6  C   UNL     1     -10.825  16.298  67.660  1.00  0.00    -0.293 A  
HETATM    7  C   UNL     1     -10.235  15.992  66.433  1.00  0.00    -0.315 A  
HETATM    8  C   UNL     1     -10.542  14.786  65.790  1.00  0.00    -0.338 A  
HETATM    9  C   UNL     1     -11.452  13.891  66.361  1.00  0.00    -0.354 A  
HETATM   10  C   UNL     1     -11.681  15.371  68.262  1.00  0.00    -0.313 A  
HETATM   11  C   UNL     1     -12.005  14.175  67.613  1.00  0.00    -0.405 A  
BRANCH   9  12
HETATM   12  C   UNL     1     -11.838  12.671  65.582  1.00  0.00    -0.437 C  
HETATM   13  O   UNL     1     -12.956  12.631  65.065  1.00  0.00    -0.812 OA 
BRANCH  12  14
HETATM   14  C   UNL     1     -10.879  11.501  65.499  1.00  0.00    -0.313 C  
BRANCH  14  15
HETATM   15  C   UNL     1     -10.630  10.935  66.900  1.00  0.00    -0.261 C  
BRANCH  15  16
HETATM   16  N   UNL     1      -9.569   9.924  67.007  1.00  0.00    -0.169 NA 
HETATM   17  C   UNL     1      -9.183   9.723  68.416  1.00  0.00    -0.130 C  
HETATM   18  C   UNL     1     -10.176   8.865  69.205  1.00  0.00    -0.214 C  
HETATM   19  C   UNL     1     -10.300   7.494  68.559  1.00  0.00    -0.224 C  
HETATM   20  C   UNL     1     -10.702   7.640  67.094  1.00  0.00    -0.361 C  
HETATM   21  C   UNL     1      -9.819   8.640  66.338  1.00  0.00    -0.270 C  
ENDBRANCH  15  16
ENDBRANCH  14  15
ENDBRANCH  12  14
ENDBRANCH   9  12
ENDBRANCH   5   6
ENDBRANCH   4   5
ENDBRANCH   3   4
ENDBRANCH   2   3
TORSDOF 8
ENDMDL
MODEL       55
REMARK 921   NORMALIZED FREE ENERGY PREDICTED BY IDOCK:   -4.69 KCAL/MOL
REMARK 922        TOTAL FREE ENERGY PREDICTED BY IDOCK:   -8.01 KCAL/MOL
REMARK 923 INTER-LIGAND FREE ENERGY PREDICTED BY IDOCK:   -7.43 KCAL/MOL
REMARK 924 INTRA-LIGAND FREE ENERGY PREDICTED BY IDOCK:   -0.57 KCAL/MOL
REMARK 927      BINDING AFFINITY PREDICTED BY RF-SCORE:    0.00 PKD
ROOT
HETATM    1  C   UNL     1     -10.151  19.726  68.747  1.00  0.00    -0.523 C  
HETATM    2  C   UNL     1      -9.791  19.775  67.271  1.00  0.00    -0.513 C  
ENDROOT
BRANCH   2   3
HETATM    3  C   UNL     1     -10.463  18.650  66.486  1.00  0.00    -0.465 C  
BRANCH   3   4
HETATM    4  C   UNL     1     -10.384  17.324  67.241  1.00  0.00    -0.331 C  
BRANCH   4   5
HETATM    5  O   UNL     1     -10.718  16.265  66.337  1.00  0.00    -0.278 OA 
BRANCH   5   6
HETATM    6  C   UNL     1     -10.927  15.044  66.924  1.00  0.00    -0.324 A  
HETATM    7  C   UNL     1     -10.438  14.668  68.176  1.00  0.00    -0.237 A  
HETATM    8  C   UNL     1     -10.711  13.389  68.679  1.00  0.00    -0.275 A  
HETATM    9  C   UNL     1     -11.458  12.477  67.926  1.00  0.00    -0.369 A  
HETATM   10  C   UNL     1     -11.731  14.156  66.204  1.00  0.00    -0.402 A  
HETATM   11  C   UNL     1     -11.989  12.871  66.694  1.00  0.00    -0.436 A  
BRANCH   9  12
HETATM   12  C   UNL     1     -11.625  11.085  68.453  1.00  0.00    -0.302 C  
HETATM   13  O   UNL     1     -11.622  10.147  67.652  1.00  0.00    -0.204 OA 
BRANCH  12  14
HETATM   14  C   UNL     1     -11.852  10.867  69.935  1.00  0.00    -0.427 C  
BRANCH  14  15
HETATM   15  C   UNL     1     -10.964   9.722  70.431  1.00  0.00    -0.312 C  
BRANCH  15  16
HETATM   16  N   UNL     1     -11.234   9.244  71.794  1.00  0.00    -0.374 NA 
HETATM   17  C   UNL     1     -12.621   8.755  71.908  1.00  0.00    -0.371 C  
HETATM   18  C   UNL     1     -12.829   7.363  71.304  1.00  0.00    -0.365 C  
HETATM   19  C   UNL     1     -11.925   6.359  71.999  1.00  0.00    -0.375 C  
HETATM   20  C   UNL     1     -10.471   6.813  71.911  1.00  0.00    -0.221 C  
HETATM   21  C   UNL     1     -10.282   8.271  72.347  1.00  0.00    -0.327 C  
ENDBRANCH  15  16
ENDBRANCH  14  15
ENDBRANCH  12  14
ENDBRANCH   9  12
ENDBRANCH   5   6
ENDBRANCH   4   5
ENDBRANCH   3   4
ENDBRANCH   2   3
TORSDOF 8
ENDMDL
MODEL       56
REMARK 921   NORMALIZED FREE ENERGY PREDICTED BY IDOCK:   -4.68 KCAL/MOL
REMARK 922        TOTAL FREE ENERGY PREDICTED BY IDOCK:   -7.99 KCAL/MOL
REMARK 923 INTER-LIGAND FREE ENERGY PREDICTED BY IDOCK:   -7.26 KCAL/MOL
REMARK 924 INTRA-LIGAND FREE ENERGY PREDICTED BY IDOCK:   -0.73 KCAL/MOL
REMARK 927      BINDING AFFINITY PREDICTED BY RF-SCORE:    0.00 PKD
ROOT
HETATM    1  C   UNL     1      -9.046   7.472  73.758  1.00  0.00    -0.311 C  
HETATM    2  C   UNL     1     -10.441   6.895  73.577  1.00  0.00    -0.382 C  
ENDROOT
BRANCH   2   3
HETATM    3  C   UNL     1     -10.557   6.082  72.288  1.00  0.00    -0.256 C  
BRANCH   3   4
HETATM    4  C   UNL     1     -11.386   6.822  71.240  1.00  0.00    -0.289 C  
BRANCH   4   5
HETATM    5  O   UNL     1     -12.239   7.757  71.911  1.00  0.00    -0.288 OA 
BRANCH   5   6
HETATM    6  C   UNL     1     -12.189   9.040  71.430  1.00  0.00    -0.323 A  
HETATM    7  C   UNL     1     -11.380   9.462  70.374  1.00  0.00    -0.295 A  
HETATM    8  C   UNL     1     -11.407  10.803  69.965  1.00  0.00    -0.397 A  
HETATM    9  C   UNL     1     -12.227  11.726  70.621  1.00  0.00    -0.443 A  
HETATM   10  C   UNL     1     -13.058   9.949  72.039  1.00  0.00    -0.545 A  
HETATM   11  C   UNL     1     -13.073  11.292  71.647  1.00  0.00    -0.513 A  
BRANCH   9  12
HETATM   12  C   UNL     1     -12.135  13.168  70.227  1.00  0.00    -0.328 C  
HETATM   13  O   UNL     1     -12.200  14.026  71.110  1.00  0.00    -0.343 OA 
BRANCH  12  14
HETATM   14  C   UNL     1     -12.025  13.538  68.762  1.00  0.00    -0.374 C  
BRANCH  14  15
HETATM   15  C   UNL     1     -11.895  15.058  68.620  1.00  0.00    -0.296 C  
BRANCH  15  16
HETATM   16  N   UNL     1     -10.524  15.586  68.596  1.00  0.00    -0.231 NA 
HETATM   17  C   UNL     1      -9.862  15.253  67.320  1.00  0.00    -0.220 C  
HETATM   18  C   UNL     1     -10.300  16.145  66.155  1.00  0.00    -0.350 C  
HETATM   19  C   UNL     1      -9.990  17.599  66.473  1.00  0.00    -0.332 C  
HETATM   20  C   UNL     1     -10.654  18.001  67.787  1.00  0.00    -0.409 C  
HETATM   21  C   UNL     1     -10.364  17.009  68.920  1.00  0.00    -0.337 C  
ENDBRANCH  15  16
ENDBRANCH  14  15
ENDBRANCH  12  14
ENDBRANCH   9  12
ENDBRANCH   5   6
ENDBRANCH   4   5
ENDBRANCH   3   4
ENDBRANCH   2   3
TORSDOF 8
ENDMDL
MODEL       57
REMARK 921   NORMALIZED FREE ENERGY PREDICTED BY IDOCK:   -4.66 KCAL/MOL
REMARK 922        TOTAL FREE ENERGY PREDICTED BY IDOCK:   -7.96 KCAL/MOL
REMARK 923 INTER-LIGAND FREE ENERGY PREDICTED BY IDOCK:   -7.05 KCAL/MOL
REMARK 924 INTRA-LIGAND FREE ENERGY PREDICTED BY IDOCK:   -0.91 KCAL/MOL
REMARK 927      BINDING AFFINITY PREDICTED BY RF-SCORE:    0.00 PKD
ROOT
HETATM    1  C   UNL     1     -10.560   6.715  73.534  1.00  0.00    -0.334 C  
HETATM    2  C   UNL     1     -11.135   7.933  72.829  1.00  0.00    -0.462 C  
ENDROOT
BRANCH   2   3
HETATM    3  C   UNL     1     -10.106   8.598  71.915  1.00  0.00    -0.398 C  
BRANCH   3   4
HETATM    4  C   UNL     1     -10.612   8.673  70.476  1.00  0.00    -0.217 C  
BRANCH   4   5
HETATM    5  O   UNL     1      -9.632   9.354  69.684  1.00  0.00    -0.167 OA 
BRANCH   5   6
HETATM    6  C   UNL     1     -10.054  10.530  69.121  1.00  0.00    -0.224 A  
HETATM    7  C   UNL     1      -9.220  11.453  68.487  1.00  0.00    -0.174 A  
HETATM    8  C   UNL     1      -9.760  12.628  67.948  1.00  0.00    -0.216 A  
HETATM    9  C   UNL     1     -11.129  12.893  68.056  1.00  0.00    -0.283 A  
HETATM   10  C   UNL     1     -11.431  10.764  69.167  1.00  0.00    -0.368 A  
HETATM   11  C   UNL     1     -11.971  11.946  68.647  1.00  0.00    -0.291 A  
BRANCH   9  12
HETATM   12  C   UNL     1     -11.640  14.214  67.569  1.00  0.00    -0.367 C  
HETATM   13  O   UNL     1     -12.314  14.242  66.537  1.00  0.00    -0.445 OA 
BRANCH  12  14
HETATM   14  C   UNL     1     -11.273  15.481  68.315  1.00  0.00    -0.343 C  
BRANCH  14  15
HETATM   15  C   UNL     1     -11.230  15.200  69.820  1.00  0.00    -0.279 C  
BRANCH  15  16
HETATM   16  N   UNL     1     -12.302  15.809  70.619  1.00  0.00    -0.407 NA 
HETATM   17  C   UNL     1     -13.462  14.901  70.709  1.00  0.00    -0.236 C  
HETATM   18  C   UNL     1     -13.267  13.760  71.712  1.00  0.00    -0.467 C  
HETATM   19  C   UNL     1     -13.015  14.330  73.099  1.00  0.00    -0.426 C  
HETATM   20  C   UNL     1     -11.821  15.279  73.067  1.00  0.00    -0.502 C  
HETATM   21  C   UNL     1     -11.924  16.318  71.944  1.00  0.00    -0.441 C  
ENDBRANCH  15  16
ENDBRANCH  14  15
ENDBRANCH  12  14
ENDBRANCH   9  12
ENDBRANCH   5   6
ENDBRANCH   4   5
ENDBRANCH   3   4
ENDBRANCH   2   3
TORSDOF 8
ENDMDL
MODEL       58
REMARK 921   NORMALIZED FREE ENERGY PREDICTED BY IDOCK:   -4.65 KCAL/MOL
REMARK 922        TOTAL FREE ENERGY PREDICTED BY IDOCK:   -7.95 KCAL/MOL
REMARK 923 INTER-LIGAND FREE ENERGY PREDICTED BY IDOCK:   -6.30 KCAL/MOL
REMARK 924 INTRA-LIGAND FREE ENERGY PREDICTED BY IDOCK:   -1.65 KCAL/MOL
REMARK 927      BINDING AFFINITY PREDICTED BY RF-SCORE:    0.00 PKD
ROOT
HETATM    1  C   UNL     1      -7.102  10.825  67.965  1.00  0.00    -0.081 C  
HETATM    2  C   UNL     1      -7.393  10.602  69.440  1.00  0.00    -0.133 C  
ENDROOT
BRANCH   2   3
HETATM    3  C   UNL     1      -8.253   9.360  69.667  1.00  0.00    -0.136 C  
BRANCH   3   4
HETATM    4  C   UNL     1      -9.701   9.737  69.972  1.00  0.00    -0.250 C  
BRANCH   4   5
HETATM    5  O   UNL     1     -10.517   9.343  68.863  1.00  0.00    -0.208 OA 
BRANCH   5   6
HETATM    6  C   UNL     1     -10.833  10.349  67.986  1.00  0.00    -0.270 A  
HETATM    7  C   UNL     1     -10.525  10.343  66.625  1.00  0.00    -0.279 A  
HETATM    8  C   UNL     1     -10.895  11.429  65.819  1.00  0.00    -0.290 A  
HETATM    9  C   UNL     1     -11.555  12.529  66.375  1.00  0.00    -0.449 A  
HETATM   10  C   UNL     1     -11.553  11.418  68.525  1.00  0.00    -0.384 A  
HETATM   11  C   UNL     1     -11.906  12.513  67.728  1.00  0.00    -0.375 A  
BRANCH   9  12
HETATM   12  C   UNL     1     -11.824  13.715  65.500  1.00  0.00    -0.362 C  
HETATM   13  O   UNL     1     -12.995  14.032  65.280  1.00  0.00    -0.743 OA 
BRANCH  12  14
HETATM   14  C   UNL     1     -10.665  14.454  64.863  1.00  0.00    -0.444 C  
BRANCH  14  15
HETATM   15  C   UNL     1     -10.706  15.930  65.271  1.00  0.00    -0.424 C  
BRANCH  15  16
HETATM   16  N   UNL     1      -9.545  16.420  66.028  1.00  0.00    -0.381 NA 
HETATM   17  C   UNL     1      -9.983  17.169  67.222  1.00  0.00    -0.274 C  
HETATM   18  C   UNL     1     -10.441  16.268  68.373  1.00  0.00    -0.282 C  
HETATM   19  C   UNL     1      -9.305  15.348  68.792  1.00  0.00    -0.209 C  
HETATM   20  C   UNL     1      -8.812  14.544  67.592  1.00  0.00    -0.189 C  
HETATM   21  C   UNL     1      -8.520  15.426  66.372  1.00  0.00    -0.134 C  
ENDBRANCH  15  16
ENDBRANCH  14  15
ENDBRANCH  12  14
ENDBRANCH   9  12
ENDBRANCH   5   6
ENDBRANCH   4   5
ENDBRANCH   3   4
ENDBRANCH   2   3
TORSDOF 8
ENDMDL
MODEL       59
REMARK 921   NORMALIZED FREE ENERGY PREDICTED BY IDOCK:   -4.65 KCAL/MOL
REMARK 922        TOTAL FREE ENERGY PREDICTED BY IDOCK:   -7.95 KCAL/MOL
REMARK 923 INTER-LIGAND FREE ENERGY PREDICTED BY IDOCK:   -7.03 KCAL/MOL
REMARK 924 INTRA-LIGAND FREE ENERGY PREDICTED BY IDOCK:   -0.92 KCAL/MOL
REMARK 927      BINDING AFFINITY PREDICTED BY RF-SCORE:    0.00 PKD
ROOT
HETATM    1  C   UNL     1      -9.326   8.064  70.042  1.00  0.00    -0.156 C  
HETATM    2  C   UNL     1      -9.391   9.016  71.225  1.00  0.00    -0.324 C  
ENDROOT
BRANCH   2   3
HETATM    3  C   UNL     1     -10.649   8.794  72.064  1.00  0.00    -0.414 C  
BRANCH   3   4
HETATM    4  C   UNL     1     -11.910   8.898  71.208  1.00  0.00    -0.310 C  
BRANCH   4   5
HETATM    5  O   UNL     1     -12.640  10.062  71.613  1.00  0.00    -0.370 OA 
BRANCH   5   6
HETATM    6  C   UNL     1     -12.428  11.178  70.845  1.00  0.00    -0.409 A  
HETATM    7  C   UNL     1     -12.034  11.160  69.507  1.00  0.00    -0.425 A  
HETATM    8  C   UNL     1     -11.844  12.365  68.817  1.00  0.00    -0.358 A  
HETATM    9  C   UNL     1     -12.030  13.589  69.468  1.00  0.00    -0.390 A  
HETATM   10  C   UNL     1     -12.680  12.401  71.473  1.00  0.00    -0.333 A  
HETATM   11  C   UNL     1     -12.472  13.606  70.794  1.00  0.00    -0.432 A  
BRANCH   9  12
HETATM   12  C   UNL     1     -11.701  14.848  68.725  1.00  0.00    -0.325 C  
HETATM   13  O   UNL     1     -11.829  15.927  69.308  1.00  0.00    -0.371 OA 
BRANCH  12  14
HETATM   14  C   UNL     1     -11.281  14.772  67.271  1.00  0.00    -0.351 C  
BRANCH  14  15
HETATM   15  C   UNL     1      -9.785  15.073  67.149  1.00  0.00    -0.226 C  
BRANCH  15  16
HETATM   16  N   UNL     1      -9.406  16.040  66.110  1.00  0.00    -0.316 NA 
HETATM   17  C   UNL     1     -10.455  17.065  65.948  1.00  0.00    -0.274 C  
HETATM   18  C   UNL     1     -10.440  18.132  67.046  1.00  0.00    -0.385 C  
HETATM   19  C   UNL     1      -9.096  18.842  67.058  1.00  0.00    -0.310 C  
HETATM   20  C   UNL     1      -7.969  17.828  67.226  1.00  0.00    -0.223 C  
HETATM   21  C   UNL     1      -8.079  16.657  66.242  1.00  0.00    -0.326 C  
ENDBRANCH  15  16
ENDBRANCH  14  15
ENDBRANCH  12  14
ENDBRANCH   9  12
ENDBRANCH   5   6
ENDBRANCH   4   5
ENDBRANCH   3   4
ENDBRANCH   2   3
TORSDOF 8
ENDMDL
MODEL       60
REMARK 921   NORMALIZED FREE ENERGY PREDICTED BY IDOCK:   -4.65 KCAL/MOL
REMARK 922        TOTAL FREE ENERGY PREDICTED BY IDOCK:   -7.95 KCAL/MOL
REMARK 923 INTER-LIGAND FREE ENERGY PREDICTED BY IDOCK:   -7.26 KCAL/MOL
REMARK 924 INTRA-LIGAND FREE ENERGY PREDICTED BY IDOCK:   -0.68 KCAL/MOL
REMARK 927      BINDING AFFINITY PREDICTED BY RF-SCORE:    0.00 PKD
ROOT
HETATM    1  C   UNL     1      -9.037   6.885  67.834  1.00  0.00    -0.122 C  
HETATM    2  C   UNL     1     -10.466   7.278  67.496  1.00  0.00    -0.337 C  
ENDROOT
BRANCH   2   3
HETATM    3  C   UNL     1     -10.532   8.635  66.798  1.00  0.00    -0.298 C  
BRANCH   3   4
HETATM    4  C   UNL     1     -10.730   9.766  67.806  1.00  0.00    -0.272 C  
BRANCH   4   5
HETATM    5  O   UNL     1     -11.800  10.601  67.349  1.00  0.00    -0.274 OA 
BRANCH   5   6
HETATM    6  C   UNL     1     -11.417  11.824  66.863  1.00  0.00    -0.293 A  
HETATM    7  C   UNL     1     -10.792  12.031  65.633  1.00  0.00    -0.325 A  
HETATM    8  C   UNL     1     -10.441  13.329  65.236  1.00  0.00    -0.324 A  
HETATM    9  C   UNL     1     -10.697  14.419  66.074  1.00  0.00    -0.302 A  
HETATM   10  C   UNL     1     -11.735  12.922  67.667  1.00  0.00    -0.422 A  
HETATM   11  C   UNL     1     -11.368  14.217  67.283  1.00  0.00    -0.349 A  
BRANCH   9  12
HETATM   12  C   UNL     1     -10.199  15.769  65.659  1.00  0.00    -0.380 C  
HETATM   13  O   UNL     1     -10.901  16.453  64.913  1.00  0.00    -0.655 OA 
BRANCH  12  14
HETATM   14  C   UNL     1      -8.830  16.235  66.115  1.00  0.00    -0.362 C  
BRANCH  14  15
HETATM   15  C   UNL     1      -8.948  16.943  67.467  1.00  0.00    -0.206 C  
BRANCH  15  16
HETATM   16  N   UNL     1      -8.296  18.256  67.564  1.00  0.00    -0.243 NA 
HETATM   17  C   UNL     1      -8.551  19.053  66.348  1.00  0.00    -0.315 C  
HETATM   18  C   UNL     1      -9.950  19.673  66.306  1.00  0.00    -0.563 C  
HETATM   19  C   UNL     1     -10.147  20.584  67.508  1.00  0.00    -0.437 C  
HETATM   20  C   UNL     1      -9.899  19.810  68.799  1.00  0.00    -0.464 C  
HETATM   21  C   UNL     1      -8.574  19.038  68.777  1.00  0.00    -0.321 C  
ENDBRANCH  15  16
ENDBRANCH  14  15
ENDBRANCH  12  14
ENDBRANCH   9  12
ENDBRANCH   5   6
ENDBRANCH   4   5
ENDBRANCH   3   4
ENDBRANCH   2   3
TORSDOF 8
ENDMDL
MODEL       61
REMARK 921   NORMALIZED FREE ENERGY PREDICTED BY IDOCK:   -4.64 KCAL/MOL
REMARK 922        TOTAL FREE ENERGY PREDICTED BY IDOCK:   -7.93 KCAL/MOL
REMARK 923 INTER-LIGAND FREE ENERGY PREDICTED BY IDOCK:   -7.16 KCAL/MOL
REMARK 924 INTRA-LIGAND FREE ENERGY PREDICTED BY IDOCK:   -0.77 KCAL/MOL
REMARK 927      BINDING AFFINITY PREDICTED BY RF-SCORE:    0.00 PKD
ROOT
HETATM    1  C   UNL     1     -10.505   4.601  65.805  1.00  0.00    -0.290 C  
HETATM    2  C   UNL     1     -10.243   5.429  67.053  1.00  0.00    -0.274 C  
ENDROOT
BRANCH   2   3
HETATM    3  C   UNL     1     -11.006   6.752  67.028  1.00  0.00    -0.439 C  
BRANCH   3   4
HETATM    4  C   UNL     1     -10.048   7.942  66.998  1.00  0.00    -0.277 C  
BRANCH   4   5
HETATM    5  O   UNL     1     -10.513   8.923  67.932  1.00  0.00    -0.228 OA 
BRANCH   5   6
HETATM    6  C   UNL     1     -10.836  10.139  67.387  1.00  0.00    -0.261 A  
HETATM    7  C   UNL     1     -11.466  11.177  68.074  1.00  0.00    -0.366 A  
HETATM    8  C   UNL     1     -11.752  12.380  67.415  1.00  0.00    -0.417 A  
HETATM    9  C   UNL     1     -11.425  12.542  66.065  1.00  0.00    -0.423 A  
HETATM   10  C   UNL     1     -10.448  10.328  66.058  1.00  0.00    -0.181 A  
HETATM   11  C   UNL     1     -10.750  11.521  65.391  1.00  0.00    -0.335 A  
BRANCH   9  12
HETATM   12  C   UNL     1     -11.855  13.799  65.373  1.00  0.00    -0.358 C  
HETATM   13  O   UNL     1     -13.060  14.054  65.307  1.00  0.00    -0.782 OA 
BRANCH  12  14
HETATM   14  C   UNL     1     -10.815  14.691  64.725  1.00  0.00    -0.402 C  
BRANCH  14  15
HETATM   15  C   UNL     1     -10.630  15.961  65.560  1.00  0.00    -0.401 C  
BRANCH  15  16
HETATM   16  N   UNL     1     -10.096  15.768  66.915  1.00  0.00    -0.259 NA 
HETATM   17  C   UNL     1      -8.620  15.771  66.896  1.00  0.00    -0.247 C  
HETATM   18  C   UNL     1      -8.015  17.173  66.783  1.00  0.00    -0.271 C  
HETATM   19  C   UNL     1      -8.466  18.027  67.956  1.00  0.00    -0.263 C  
HETATM   20  C   UNL     1      -9.990  18.062  68.024  1.00  0.00    -0.346 C  
HETATM   21  C   UNL     1     -10.615  16.663  67.957  1.00  0.00    -0.338 C  
ENDBRANCH  15  16
ENDBRANCH  14  15
ENDBRANCH  12  14
ENDBRANCH   9  12
ENDBRANCH   5   6
ENDBRANCH   4   5
ENDBRANCH   3   4
ENDBRANCH   2   3
TORSDOF 8
ENDMDL
MODEL       62
REMARK 921   NORMALIZED FREE ENERGY PREDICTED BY IDOCK:   -4.63 KCAL/MOL
REMARK 922        TOTAL FREE ENERGY PREDICTED BY IDOCK:   -7.92 KCAL/MOL
REMARK 923 INTER-LIGAND FREE ENERGY PREDICTED BY IDOCK:   -6.94 KCAL/MOL
REMARK 924 INTRA-LIGAND FREE ENERGY PREDICTED BY IDOCK:   -0.98 KCAL/MOL
REMARK 927      BINDING AFFINITY PREDICTED BY RF-SCORE:    0.00 PKD
ROOT
HETATM    1  C   UNL     1      -9.982   5.018  66.254  1.00  0.00    -0.247 C  
HETATM    2  C   UNL     1     -10.249   5.890  67.469  1.00  0.00    -0.232 C  
ENDROOT
BRANCH   2   3
HETATM    3  C   UNL     1     -10.701   7.294  67.072  1.00  0.00    -0.406 C  
BRANCH   3   4
HETATM    4  C   UNL     1      -9.565   8.305  67.224  1.00  0.00    -0.166 C  
BRANCH   4   5
HETATM    5  O   UNL     1     -10.045   9.417  67.987  1.00  0.00    -0.172 OA 
BRANCH   5   6
HETATM    6  C   UNL     1     -10.527  10.466  67.248  1.00  0.00    -0.252 A  
HETATM    7  C   UNL     1     -10.325  10.632  65.877  1.00  0.00    -0.291 A  
HETATM    8  C   UNL     1     -10.863  11.747  65.220  1.00  0.00    -0.343 A  
HETATM    9  C   UNL     1     -11.588  12.707  65.934  1.00  0.00    -0.443 A  
HETATM   10  C   UNL     1     -11.310  11.390  67.945  1.00  0.00    -0.371 A  
HETATM   11  C   UNL     1     -11.832  12.515  67.297  1.00  0.00    -0.381 A  
BRANCH   9  12
HETATM   12  C   UNL     1     -12.043  13.938  65.213  1.00  0.00    -0.410 C  
HETATM   13  O   UNL     1     -13.253  14.137  65.091  1.00  0.00    -0.743 OA 
BRANCH  12  14
HETATM   14  C   UNL     1     -11.016  14.872  64.605  1.00  0.00    -0.323 C  
BRANCH  14  15
HETATM   15  C   UNL     1     -10.909  16.144  65.451  1.00  0.00    -0.307 C  
BRANCH  15  16
HETATM   16  N   UNL     1      -9.564  16.479  65.941  1.00  0.00    -0.483 NA 
HETATM   17  C   UNL     1      -9.607  17.682  66.793  1.00  0.00    -0.294 C  
HETATM   18  C   UNL     1     -10.130  17.410  68.207  1.00  0.00    -0.339 C  
HETATM   19  C   UNL     1      -9.244  16.384  68.896  1.00  0.00    -0.259 C  
HETATM   20  C   UNL     1      -9.165  15.113  68.057  1.00  0.00    -0.185 C  
HETATM   21  C   UNL     1      -8.815  15.395  66.591  1.00  0.00    -0.295 C  
ENDBRANCH  15  16
ENDBRANCH  14  15
ENDBRANCH  12  14
ENDBRANCH   9  12
ENDBRANCH   5   6
ENDBRANCH   4   5
ENDBRANCH   3   4
ENDBRANCH   2   3
TORSDOF 8
ENDMDL
MODEL       63
REMARK 921   NORMALIZED FREE ENERGY PREDICTED BY IDOCK:   -4.63 KCAL/MOL
REMARK 922        TOTAL FREE ENERGY PREDICTED BY IDOCK:   -7.91 KCAL/MOL
REMARK 923 INTER-LIGAND FREE ENERGY PREDICTED BY IDOCK:   -7.06 KCAL/MOL
REMARK 924 INTRA-LIGAND FREE ENERGY PREDICTED BY IDOCK:   -0.85 KCAL/MOL
REMARK 927      BINDING AFFINITY PREDICTED BY RF-SCORE:    0.00 PKD
ROOT
HETATM    1  C   UNL     1     -10.390   4.926  71.760  1.00  0.00    -0.249 C  
HETATM    2  C   UNL     1     -11.238   5.877  72.589  1.00  0.00    -0.335 C  
ENDROOT
BRANCH   2   3
HETATM    3  C   UNL     1     -12.238   6.644  71.726  1.00  0.00    -0.400 C  
BRANCH   3   4
HETATM    4  C   UNL     1     -11.773   8.079  71.483  1.00  0.00    -0.284 C  
BRANCH   4   5
HETATM    5  O   UNL     1     -12.879   8.960  71.708  1.00  0.00    -0.324 OA 
BRANCH   5   6
HETATM    6  C   UNL     1     -12.665  10.266  71.350  1.00  0.00    -0.442 A  
HETATM    7  C   UNL     1     -11.951  10.675  70.222  1.00  0.00    -0.425 A  
HETATM    8  C   UNL     1     -11.791  12.041  69.953  1.00  0.00    -0.405 A  
HETATM    9  C   UNL     1     -12.328  13.000  70.817  1.00  0.00    -0.394 A  
HETATM   10  C   UNL     1     -13.258  11.226  72.174  1.00  0.00    -0.286 A  
HETATM   11  C   UNL     1     -13.084  12.590  71.919  1.00  0.00    -0.473 A  
BRANCH   9  12
HETATM   12  C   UNL     1     -12.031  14.444  70.552  1.00  0.00    -0.325 C  
HETATM   13  O   UNL     1     -11.752  15.174  71.505  1.00  0.00    -0.337 OA 
BRANCH  12  14
HETATM   14  C   UNL     1     -12.138  14.984  69.140  1.00  0.00    -0.261 C  
BRANCH  14  15
HETATM   15  C   UNL     1     -10.736  15.196  68.559  1.00  0.00    -0.240 C  
BRANCH  15  16
HETATM   16  N   UNL     1     -10.593  14.948  67.118  1.00  0.00    -0.279 NA 
HETATM   17  C   UNL     1      -9.388  14.140  66.848  1.00  0.00    -0.264 C  
HETATM   18  C   UNL     1      -9.570  12.651  67.156  1.00  0.00    -0.207 C  
HETATM   19  C   UNL     1     -10.706  12.086  66.319  1.00  0.00    -0.302 C  
HETATM   20  C   UNL     1     -11.983  12.884  66.561  1.00  0.00    -0.447 C  
HETATM   21  C   UNL     1     -11.767  14.397  66.428  1.00  0.00    -0.386 C  
ENDBRANCH  15  16
ENDBRANCH  14  15
ENDBRANCH  12  14
ENDBRANCH   9  12
ENDBRANCH   5   6
ENDBRANCH   4   5
ENDBRANCH   3   4
ENDBRANCH   2   3
TORSDOF 8
ENDMDL
MODEL       64
REMARK 921   NORMALIZED FREE ENERGY PREDICTED BY IDOCK:   -4.62 KCAL/MOL
REMARK 922        TOTAL FREE ENERGY PREDICTED BY IDOCK:   -7.91 KCAL/MOL
REMARK 923 INTER-LIGAND FREE ENERGY PREDICTED BY IDOCK:   -6.70 KCAL/MOL
REMARK 924 INTRA-LIGAND FREE ENERGY PREDICTED BY IDOCK:   -1.21 KCAL/MOL
REMARK 927      BINDING AFFINITY PREDICTED BY RF-SCORE:    0.00 PKD
ROOT
HETATM    1  C   UNL     1     -11.871  12.129  63.591  1.00  0.00    -0.608 C  
HETATM    2  C   UNL     1     -10.411  11.815  63.309  1.00  0.00    -0.439 C  
ENDROOT
BRANCH   2   3
HETATM    3  C   UNL     1      -9.990  10.479  63.919  1.00  0.00    -0.348 C  
BRANCH   3   4
HETATM    4  C   UNL     1      -9.136  10.686  65.168  1.00  0.00    -0.201 C  
BRANCH   4   5
HETATM    5  O   UNL     1      -9.999  10.717  66.310  1.00  0.00    -0.206 OA 
BRANCH   5   6
HETATM    6  C   UNL     1     -10.006  11.900  67.003  1.00  0.00    -0.202 A  
HETATM    7  C   UNL     1     -11.120  12.726  67.156  1.00  0.00    -0.315 A  
HETATM    8  C   UNL     1     -11.013  13.918  67.885  1.00  0.00    -0.265 A  
HETATM    9  C   UNL     1      -9.789  14.296  68.447  1.00  0.00    -0.233 A  
HETATM   10  C   UNL     1      -8.802  12.246  67.623  1.00  0.00    -0.175 A  
HETATM   11  C   UNL     1      -8.686  13.445  68.335  1.00  0.00    -0.134 A  
BRANCH   9  12
HETATM   12  C   UNL     1      -9.694  15.633  69.115  1.00  0.00    -0.249 C  
HETATM   13  O   UNL     1      -8.577  16.085  69.374  1.00  0.00    -0.247 OA 
BRANCH  12  14
HETATM   14  C   UNL     1     -10.961  16.366  69.508  1.00  0.00    -0.317 C  
BRANCH  14  15
HETATM   15  C   UNL     1     -11.288  16.083  70.978  1.00  0.00    -0.379 C  
BRANCH  15  16
HETATM   16  N   UNL     1     -12.714  15.934  71.302  1.00  0.00    -0.427 NA 
HETATM   17  C   UNL     1     -13.323  14.865  70.487  1.00  0.00    -0.105 C  
HETATM   18  C   UNL     1     -12.991  13.455  70.985  1.00  0.00    -0.260 C  
HETATM   19  C   UNL     1     -13.479  13.284  72.415  1.00  0.00    -0.670 C  
HETATM   20  C   UNL     1     -12.877  14.366  73.306  1.00  0.00    -0.413 C  
HETATM   21  C   UNL     1     -13.049  15.773  72.723  1.00  0.00    -0.503 C  
ENDBRANCH  15  16
ENDBRANCH  14  15
ENDBRANCH  12  14
ENDBRANCH   9  12
ENDBRANCH   5   6
ENDBRANCH   4   5
ENDBRANCH   3   4
ENDBRANCH   2   3
TORSDOF 8
ENDMDL
MODEL       65
REMARK 921   NORMALIZED FREE ENERGY PREDICTED BY IDOCK:   -4.61 KCAL/MOL
REMARK 922        TOTAL FREE ENERGY PREDICTED BY IDOCK:   -7.89 KCAL/MOL
REMARK 923 INTER-LIGAND FREE ENERGY PREDICTED BY IDOCK:   -7.28 KCAL/MOL
REMARK 924 INTRA-LIGAND FREE ENERGY PREDICTED BY IDOCK:   -0.62 KCAL/MOL
REMARK 927      BINDING AFFINITY PREDICTED BY RF-SCORE:    0.00 PKD
ROOT
HETATM    1  C   UNL     1     -11.071   2.798  73.335  1.00  0.00    -0.286 C  
HETATM    2  C   UNL     1     -10.559   4.109  73.909  1.00  0.00    -0.299 C  
ENDROOT
BRANCH   2   3
HETATM    3  C   UNL     1      -9.735   4.891  72.888  1.00  0.00    -0.170 C  
BRANCH   3   4
HETATM    4  C   UNL     1      -9.684   6.377  73.240  1.00  0.00    -0.163 C  
BRANCH   4   5
HETATM    5  O   UNL     1     -11.025   6.857  73.384  1.00  0.00    -0.282 OA 
BRANCH   5   6
HETATM    6  C   UNL     1     -11.330   7.964  72.635  1.00  0.00    -0.408 A  
HETATM    7  C   UNL     1     -12.592   8.558  72.569  1.00  0.00    -0.346 A  
HETATM    8  C   UNL     1     -12.792   9.689  71.766  1.00  0.00    -0.514 A  
HETATM    9  C   UNL     1     -11.738  10.219  71.015  1.00  0.00    -0.461 A  
HETATM   10  C   UNL     1     -10.263   8.537  71.938  1.00  0.00    -0.369 A  
HETATM   11  C   UNL     1     -10.463   9.654  71.120  1.00  0.00    -0.281 A  
BRANCH   9  12
HETATM   12  C   UNL     1     -12.027  11.355  70.084  1.00  0.00    -0.377 C  
HETATM   13  O   UNL     1     -12.410  12.426  70.560  1.00  0.00    -0.330 OA 
BRANCH  12  14
HETATM   14  C   UNL     1     -11.902  11.148  68.588  1.00  0.00    -0.357 C  
BRANCH  14  15
HETATM   15  C   UNL     1     -11.663  12.494  67.897  1.00  0.00    -0.359 C  
BRANCH  15  16
HETATM   16  N   UNL     1     -12.247  12.641  66.557  1.00  0.00    -0.521 NA 
HETATM   17  C   UNL     1     -12.485  14.065  66.249  1.00  0.00    -0.400 C  
HETATM   18  C   UNL     1     -11.215  14.824  65.855  1.00  0.00    -0.340 C  
HETATM   19  C   UNL     1     -10.589  14.182  64.627  1.00  0.00    -0.391 C  
HETATM   20  C   UNL     1     -10.318  12.704  64.890  1.00  0.00    -0.330 C  
HETATM   21  C   UNL     1     -11.540  11.972  65.457  1.00  0.00    -0.293 C  
ENDBRANCH  15  16
ENDBRANCH  14  15
ENDBRANCH  12  14
ENDBRANCH   9  12
ENDBRANCH   5   6
ENDBRANCH   4   5
ENDBRANCH   3   4
ENDBRANCH   2   3
TORSDOF 8
ENDMDL
MODEL       66
REMARK 921   NORMALIZED FREE ENERGY PREDICTED BY IDOCK:   -4.57 KCAL/MOL
REMARK 922        TOTAL FREE ENERGY PREDICTED BY IDOCK:   -7.82 KCAL/MOL
REMARK 923 INTER-LIGAND FREE ENERGY PREDICTED BY IDOCK:   -6.52 KCAL/MOL
REMARK 924 INTRA-LIGAND FREE ENERGY PREDICTED BY IDOCK:   -1.30 KCAL/MOL
REMARK 927      BINDING AFFINITY PREDICTED BY RF-SCORE:    0.00 PKD
ROOT
HETATM    1  C   UNL     1     -12.486  10.459  71.237  1.00  0.00    -0.521 C  
HETATM    2  C   UNL     1     -13.102   9.306  72.013  1.00  0.00    -0.512 C  
ENDROOT
BRANCH   2   3
HETATM    3  C   UNL     1     -12.112   8.158  72.205  1.00  0.00    -0.408 C  
BRANCH   3   4
HETATM    4  C   UNL     1     -12.277   7.097  71.118  1.00  0.00    -0.365 C  
BRANCH   4   5
HETATM    5  O   UNL     1     -10.977   6.662  70.704  1.00  0.00    -0.247 OA 
BRANCH   5   6
HETATM    6  C   UNL     1     -10.461   7.321  69.619  1.00  0.00    -0.231 A  
HETATM    7  C   UNL     1      -9.518   8.348  69.685  1.00  0.00    -0.166 A  
HETATM    8  C   UNL     1      -9.060   8.954  68.507  1.00  0.00    -0.137 A  
HETATM    9  C   UNL     1      -9.556   8.550  67.264  1.00  0.00    -0.220 A  
HETATM   10  C   UNL     1     -10.903   6.872  68.371  1.00  0.00    -0.238 A  
HETATM   11  C   UNL     1     -10.464   7.489  67.195  1.00  0.00    -0.407 A  
BRANCH   9  12
HETATM   12  C   UNL     1      -9.126   9.306  66.045  1.00  0.00    -0.188 C  
HETATM   13  O   UNL     1      -7.933   9.297  65.736  1.00  0.00    -0.106 OA 
BRANCH  12  14
HETATM   14  C   UNL     1     -10.147  10.105  65.260  1.00  0.00    -0.344 C  
BRANCH  14  15
HETATM   15  C   UNL     1     -10.273  11.510  65.855  1.00  0.00    -0.244 C  
BRANCH  15  16
HETATM   16  N   UNL     1     -11.597  11.869  66.380  1.00  0.00    -0.501 NA 
HETATM   17  C   UNL     1     -11.706  11.507  67.806  1.00  0.00    -0.227 C  
HETATM   18  C   UNL     1     -10.992  12.488  68.741  1.00  0.00    -0.294 C  
HETATM   19  C   UNL     1     -11.576  13.881  68.571  1.00  0.00    -0.367 C  
HETATM   20  C   UNL     1     -11.488  14.311  67.109  1.00  0.00    -0.377 C  
HETATM   21  C   UNL     1     -12.041  13.251  66.149  1.00  0.00    -0.421 C  
ENDBRANCH  15  16
ENDBRANCH  14  15
ENDBRANCH  12  14
ENDBRANCH   9  12
ENDBRANCH   5   6
ENDBRANCH   4   5
ENDBRANCH   3   4
ENDBRANCH   2   3
TORSDOF 8
ENDMDL
MODEL       67
REMARK 921   NORMALIZED FREE ENERGY PREDICTED BY IDOCK:   -4.54 KCAL/MOL
REMARK 922        TOTAL FREE ENERGY PREDICTED BY IDOCK:   -7.79 KCAL/MOL
REMARK 923 INTER-LIGAND FREE ENERGY PREDICTED BY IDOCK:   -6.91 KCAL/MOL
REMARK 924 INTRA-LIGAND FREE ENERGY PREDICTED BY IDOCK:   -0.88 KCAL/MOL
REMARK 927      BINDING AFFINITY PREDICTED BY RF-SCORE:    0.00 PKD
ROOT
HETATM    1  C   UNL     1     -12.475  13.927  65.381  1.00  0.00    -0.528 C  
HETATM    2  C   UNL     1     -10.997  14.143  65.665  1.00  0.00    -0.308 C  
ENDROOT
BRANCH   2   3
HETATM    3  C   UNL     1     -10.759  14.620  67.097  1.00  0.00    -0.292 C  
BRANCH   3   4
HETATM    4  C   UNL     1     -12.011  14.446  67.954  1.00  0.00    -0.313 C  
BRANCH   4   5
HETATM    5  O   UNL     1     -11.609  14.245  69.313  1.00  0.00    -0.267 OA 
BRANCH   5   6
HETATM    6  C   UNL     1     -11.909  13.013  69.833  1.00  0.00    -0.307 A  
HETATM    7  C   UNL     1     -11.575  11.795  69.239  1.00  0.00    -0.378 A  
HETATM    8  C   UNL     1     -11.935  10.591  69.859  1.00  0.00    -0.339 A  
HETATM    9  C   UNL     1     -12.645  10.601  71.063  1.00  0.00    -0.516 A  
HETATM   10  C   UNL     1     -12.558  13.019  71.071  1.00  0.00    -0.386 A  
HETATM   11  C   UNL     1     -12.937  11.820  71.683  1.00  0.00    -0.467 A  
BRANCH   9  12
HETATM   12  C   UNL     1     -13.110   9.294  71.627  1.00  0.00    -0.382 C  
HETATM   13  O   UNL     1     -13.801   9.304  72.648  1.00  0.00    -0.449 OA 
BRANCH  12  14
HETATM   14  C   UNL     1     -12.676   7.998  70.972  1.00  0.00    -0.052 C  
BRANCH  14  15
HETATM   15  C   UNL     1     -12.242   6.995  72.045  1.00  0.00    -0.282 C  
BRANCH  15  16
HETATM   16  N   UNL     1     -10.867   6.488  71.932  1.00  0.00    -0.230 NA 
HETATM   17  C   UNL     1      -9.972   7.531  71.395  1.00  0.00    -0.185 C  
HETATM   18  C   UNL     1      -9.572   8.585  72.431  1.00  0.00    -0.356 C  
HETATM   19  C   UNL     1      -8.861   7.918  73.598  1.00  0.00    -0.336 C  
HETATM   20  C   UNL     1      -9.745   6.828  74.197  1.00  0.00    -0.325 C  
HETATM   21  C   UNL     1     -10.297   5.869  73.136  1.00  0.00    -0.211 C  
ENDBRANCH  15  16
ENDBRANCH  14  15
ENDBRANCH  12  14
ENDBRANCH   9  12
ENDBRANCH   5   6
ENDBRANCH   4   5
ENDBRANCH   3   4
ENDBRANCH   2   3
TORSDOF 8
ENDMDL
MODEL       68
REMARK 921   NORMALIZED FREE ENERGY PREDICTED BY IDOCK:   -4.54 KCAL/MOL
REMARK 922        TOTAL FREE ENERGY PREDICTED BY IDOCK:   -7.78 KCAL/MOL
REMARK 923 INTER-LIGAND FREE ENERGY PREDICTED BY IDOCK:   -6.73 KCAL/MOL
REMARK 924 INTRA-LIGAND FREE ENERGY PREDICTED BY IDOCK:   -1.05 KCAL/MOL
REMARK 927      BINDING AFFINITY PREDICTED BY RF-SCORE:    0.00 PKD
ROOT
HETATM    1  C   UNL     1      -8.600  15.533  67.593  1.00  0.00    -0.175 C  
HETATM    2  C   UNL     1      -8.870  15.755  66.113  1.00  0.00    -0.346 C  
ENDROOT
BRANCH   2   3
HETATM    3  C   UNL     1     -10.315  16.179  65.857  1.00  0.00    -0.384 C  
BRANCH   3   4
HETATM    4  C   UNL     1     -11.038  15.170  64.966  1.00  0.00    -0.419 C  
BRANCH   4   5
HETATM    5  O   UNL     1     -12.147  14.631  65.694  1.00  0.00    -0.311 OA 
BRANCH   5   6
HETATM    6  C   UNL     1     -11.840  13.598  66.541  1.00  0.00    -0.404 A  
HETATM    7  C   UNL     1     -11.992  13.633  67.928  1.00  0.00    -0.382 A  
HETATM    8  C   UNL     1     -11.643  12.516  68.699  1.00  0.00    -0.357 A  
HETATM    9  C   UNL     1     -11.125  11.369  68.089  1.00  0.00    -0.306 A  
HETATM   10  C   UNL     1     -11.387  12.426  65.928  1.00  0.00    -0.399 A  
HETATM   11  C   UNL     1     -11.019  11.316  66.696  1.00  0.00    -0.326 A  
BRANCH   9  12
HETATM   12  C   UNL     1     -10.657  10.246  68.963  1.00  0.00    -0.224 C  
HETATM   13  O   UNL     1     -10.106   9.279  68.435  1.00  0.00    -0.177 OA 
BRANCH  12  14
HETATM   14  C   UNL     1     -10.922  10.297  70.454  1.00  0.00    -0.365 C  
BRANCH  14  15
HETATM   15  C   UNL     1     -10.121   9.199  71.160  1.00  0.00    -0.314 C  
BRANCH  15  16
HETATM   16  N   UNL     1     -10.656   8.741  72.450  1.00  0.00    -0.248 NA 
HETATM   17  C   UNL     1     -12.077   8.365  72.318  1.00  0.00    -0.392 C  
HETATM   18  C   UNL     1     -12.287   6.996  71.666  1.00  0.00    -0.407 C  
HETATM   19  C   UNL     1     -11.597   5.920  72.488  1.00  0.00    -0.327 C  
HETATM   20  C   UNL     1     -10.118   6.257  72.655  1.00  0.00    -0.192 C  
HETATM   21  C   UNL     1      -9.892   7.694  73.141  1.00  0.00    -0.279 C  
ENDBRANCH  15  16
ENDBRANCH  14  15
ENDBRANCH  12  14
ENDBRANCH   9  12
ENDBRANCH   5   6
ENDBRANCH   4   5
ENDBRANCH   3   4
ENDBRANCH   2   3
TORSDOF 8
ENDMDL
MODEL       69
REMARK 921   NORMALIZED FREE ENERGY PREDICTED BY IDOCK:   -4.52 KCAL/MOL
REMARK 922        TOTAL FREE ENERGY PREDICTED BY IDOCK:   -7.76 KCAL/MOL
REMARK 923 INTER-LIGAND FREE ENERGY PREDICTED BY IDOCK:   -7.03 KCAL/MOL
REMARK 924 INTRA-LIGAND FREE ENERGY PREDICTED BY IDOCK:   -0.73 KCAL/MOL
REMARK 927      BINDING AFFINITY PREDICTED BY RF-SCORE:    0.00 PKD
ROOT
HETATM    1  C   UNL     1      -7.774   7.820  67.555  1.00  0.00    -0.117 C  
HETATM    2  C   UNL     1      -7.595   8.810  66.416  1.00  0.00    -0.091 C  
ENDROOT
BRANCH   2   3
HETATM    3  C   UNL     1      -8.707   8.688  65.376  1.00  0.00    -0.208 C  
BRANCH   3   4
HETATM    4  C   UNL     1      -9.858   9.645  65.683  1.00  0.00    -0.299 C  
BRANCH   4   5
HETATM    5  O   UNL     1     -10.293  10.242  64.457  1.00  0.00    -0.255 OA 
BRANCH   5   6
HETATM    6  C   UNL     1     -10.598  11.576  64.535  1.00  0.00    -0.329 A  
HETATM    7  C   UNL     1     -11.511  12.234  63.710  1.00  0.00    -0.545 A  
HETATM    8  C   UNL     1     -11.744  13.606  63.878  1.00  0.00    -0.363 A  
HETATM    9  C   UNL     1     -11.052  14.327  64.857  1.00  0.00    -0.396 A  
HETATM   10  C   UNL     1      -9.959  12.284  65.557  1.00  0.00    -0.264 A  
HETATM   11  C   UNL     1     -10.174  13.658  65.715  1.00  0.00    -0.317 A  
BRANCH   9  12
HETATM   12  C   UNL     1     -11.246  15.810  64.921  1.00  0.00    -0.350 C  
HETATM   13  O   UNL     1     -11.563  16.409  63.890  1.00  0.00    -1.100 OA 
BRANCH  12  14
HETATM   14  C   UNL     1     -10.994  16.544  66.223  1.00  0.00     0.085 C  
BRANCH  14  15
HETATM   15  C   UNL     1     -10.515  17.969  65.930  1.00  0.00    -0.264 C  
BRANCH  15  16
HETATM   16  N   UNL     1      -9.063  18.183  65.984  1.00  0.00    -0.521 NA 
HETATM   17  C   UNL     1      -8.755  19.619  66.130  1.00  0.00    -0.333 C  
HETATM   18  C   UNL     1      -8.956  20.144  67.554  1.00  0.00    -0.442 C  
HETATM   19  C   UNL     1      -8.064  19.379  68.518  1.00  0.00    -0.396 C  
HETATM   20  C   UNL     1      -8.342  17.882  68.412  1.00  0.00    -0.307 C  
HETATM   21  C   UNL     1      -8.319  17.380  66.964  1.00  0.00    -0.217 C  
ENDBRANCH  15  16
ENDBRANCH  14  15
ENDBRANCH  12  14
ENDBRANCH   9  12
ENDBRANCH   5   6
ENDBRANCH   4   5
ENDBRANCH   3   4
ENDBRANCH   2   3
TORSDOF 8
ENDMDL
MODEL       70
REMARK 921   NORMALIZED FREE ENERGY PREDICTED BY IDOCK:   -4.52 KCAL/MOL
REMARK 922        TOTAL FREE ENERGY PREDICTED BY IDOCK:   -7.75 KCAL/MOL
REMARK 923 INTER-LIGAND FREE ENERGY PREDICTED BY IDOCK:   -6.93 KCAL/MOL
REMARK 924 INTRA-LIGAND FREE ENERGY PREDICTED BY IDOCK:   -0.82 KCAL/MOL
REMARK 927      BINDING AFFINITY PREDICTED BY RF-SCORE:    0.00 PKD
ROOT
HETATM    1  C   UNL     1     -11.479  12.490  63.367  1.00  0.00    -0.523 C  
HETATM    2  C   UNL     1     -11.897  13.698  64.189  1.00  0.00    -0.463 C  
ENDROOT
BRANCH   2   3
HETATM    3  C   UNL     1     -10.691  14.431  64.775  1.00  0.00    -0.423 C  
BRANCH   3   4
HETATM    4  C   UNL     1     -10.924  14.797  66.239  1.00  0.00    -0.330 C  
BRANCH   4   5
HETATM    5  O   UNL     1     -12.092  14.110  66.700  1.00  0.00    -0.429 OA 
BRANCH   5   6
HETATM    6  C   UNL     1     -11.875  13.200  67.703  1.00  0.00    -0.359 A  
HETATM    7  C   UNL     1     -12.011  13.470  69.065  1.00  0.00    -0.376 A  
HETATM    8  C   UNL     1     -11.760  12.463  70.007  1.00  0.00    -0.307 A  
HETATM    9  C   UNL     1     -11.356  11.190  69.591  1.00  0.00    -0.366 A  
HETATM   10  C   UNL     1     -11.538  11.909  67.287  1.00  0.00    -0.364 A  
HETATM   11  C   UNL     1     -11.268  10.906  68.225  1.00  0.00    -0.347 A  
BRANCH   9  12
HETATM   12  C   UNL     1     -10.987  10.182  70.635  1.00  0.00    -0.285 C  
HETATM   13  O   UNL     1     -11.731  10.041  71.608  1.00  0.00    -0.345 OA 
BRANCH  12  14
HETATM   14  C   UNL     1      -9.690   9.409  70.505  1.00  0.00    -0.331 C  
BRANCH  14  15
HETATM   15  C   UNL     1      -9.338   8.758  71.845  1.00  0.00    -0.273 C  
BRANCH  15  16
HETATM   16  N   UNL     1      -9.004   7.328  71.798  1.00  0.00    -0.127 NA 
HETATM   17  C   UNL     1      -9.164   6.713  73.129  1.00  0.00    -0.127 C  
HETATM   18  C   UNL     1     -10.623   6.430  73.500  1.00  0.00    -0.297 C  
HETATM   19  C   UNL     1     -11.242   5.491  72.477  1.00  0.00    -0.330 C  
HETATM   20  C   UNL     1     -11.108   6.080  71.076  1.00  0.00    -0.348 C  
HETATM   21  C   UNL     1      -9.676   6.532  70.762  1.00  0.00    -0.179 C  
ENDBRANCH  15  16
ENDBRANCH  14  15
ENDBRANCH  12  14
ENDBRANCH   9  12
ENDBRANCH   5   6
ENDBRANCH   4   5
ENDBRANCH   3   4
ENDBRANCH   2   3
TORSDOF 8
ENDMDL
MODEL       71
REMARK 921   NORMALIZED FREE ENERGY PREDICTED BY IDOCK:   -4.49 KCAL/MOL
REMARK 922        TOTAL FREE ENERGY PREDICTED BY IDOCK:   -7.71 KCAL/MOL
REMARK 923 INTER-LIGAND FREE ENERGY PREDICTED BY IDOCK:   -6.80 KCAL/MOL
REMARK 924 INTRA-LIGAND FREE ENERGY PREDICTED BY IDOCK:   -0.91 KCAL/MOL
REMARK 927      BINDING AFFINITY PREDICTED BY RF-SCORE:    0.00 PKD
ROOT
HETATM    1  C   UNL     1     -10.712  17.878  67.606  1.00  0.00    -0.343 C  
HETATM    2  C   UNL     1      -9.774  16.769  67.157  1.00  0.00    -0.251 C  
ENDROOT
BRANCH   2   3
HETATM    3  C   UNL     1     -10.059  16.331  65.722  1.00  0.00    -0.373 C  
BRANCH   3   4
HETATM    4  C   UNL     1     -10.142  14.809  65.615  1.00  0.00    -0.366 C  
BRANCH   4   5
HETATM    5  O   UNL     1     -11.057  14.332  66.608  1.00  0.00    -0.308 OA 
BRANCH   5   6
HETATM    6  C   UNL     1     -10.962  12.994  66.892  1.00  0.00    -0.265 A  
HETATM    7  C   UNL     1     -11.681  12.340  67.894  1.00  0.00    -0.410 A  
HETATM    8  C   UNL     1     -11.502  10.966  68.099  1.00  0.00    -0.368 A  
HETATM    9  C   UNL     1     -10.594  10.245  67.317  1.00  0.00    -0.324 A  
HETATM   10  C   UNL     1     -10.107  12.259  66.067  1.00  0.00    -0.269 A  
HETATM   11  C   UNL     1      -9.911  10.890  66.282  1.00  0.00    -0.274 A  
BRANCH   9  12
HETATM   12  C   UNL     1     -10.352   8.805  67.650  1.00  0.00    -0.254 C  
HETATM   13  O   UNL     1     -10.491   7.963  66.761  1.00  0.00    -0.327 OA 
BRANCH  12  14
HETATM   14  C   UNL     1     -10.002   8.414  69.072  1.00  0.00    -0.194 C  
BRANCH  14  15
HETATM   15  C   UNL     1     -11.149   7.604  69.683  1.00  0.00    -0.062 C  
BRANCH  15  16
HETATM   16  N   UNL     1     -11.262   7.652  71.147  1.00  0.00    -0.256 NA 
HETATM   17  C   UNL     1     -11.158   9.043  71.630  1.00  0.00    -0.363 C  
HETATM   18  C   UNL     1     -12.442   9.854  71.436  1.00  0.00    -0.495 C  
HETATM   19  C   UNL     1     -13.590   9.188  72.178  1.00  0.00    -0.534 C  
HETATM   20  C   UNL     1     -13.746   7.743  71.716  1.00  0.00    -0.410 C  
HETATM   21  C   UNL     1     -12.421   6.971  71.738  1.00  0.00    -0.356 C  
ENDBRANCH  15  16
ENDBRANCH  14  15
ENDBRANCH  12  14
ENDBRANCH   9  12
ENDBRANCH   5   6
ENDBRANCH   4   5
ENDBRANCH   3   4
ENDBRANCH   2   3
TORSDOF 8
ENDMDL
MODEL       72
REMARK 921   NORMALIZED FREE ENERGY PREDICTED BY IDOCK:   -4.48 KCAL/MOL
REMARK 922        TOTAL FREE ENERGY PREDICTED BY IDOCK:   -7.70 KCAL/MOL
REMARK 923 INTER-LIGAND FREE ENERGY PREDICTED BY IDOCK:   -6.77 KCAL/MOL
REMARK 924 INTRA-LIGAND FREE ENERGY PREDICTED BY IDOCK:   -0.93 KCAL/MOL
REMARK 927      BINDING AFFINITY PREDICTED BY RF-SCORE:    0.00 PKD
ROOT
HETATM    1  C   UNL     1     -10.874   5.756  69.279  1.00  0.00    -0.374 C  
HETATM    2  C   UNL     1     -10.075   5.604  70.563  1.00  0.00    -0.280 C  
ENDROOT
BRANCH   2   3
HETATM    3  C   UNL     1     -10.933   5.863  71.800  1.00  0.00    -0.327 C  
BRANCH   3   4
HETATM    4  C   UNL     1     -11.915   7.008  71.562  1.00  0.00    -0.334 C  
BRANCH   4   5
HETATM    5  O   UNL     1     -11.306   8.229  71.995  1.00  0.00    -0.280 OA 
BRANCH   5   6
HETATM    6  C   UNL     1     -11.461   9.292  71.143  1.00  0.00    -0.333 A  
HETATM    7  C   UNL     1     -12.345  10.352  71.346  1.00  0.00    -0.500 A  
HETATM    8  C   UNL     1     -12.424  11.388  70.406  1.00  0.00    -0.345 A  
HETATM    9  C   UNL     1     -11.633  11.358  69.252  1.00  0.00    -0.384 A  
HETATM   10  C   UNL     1     -10.623   9.299  70.025  1.00  0.00    -0.256 A  
HETATM   11  C   UNL     1     -10.713  10.321  69.073  1.00  0.00    -0.257 A  
BRANCH   9  12
HETATM   12  C   UNL     1     -11.837  12.424  68.221  1.00  0.00    -0.309 C  
HETATM   13  O   UNL     1     -12.026  12.085  67.051  1.00  0.00    -0.609 OA 
BRANCH  12  14
HETATM   14  C   UNL     1     -11.747  13.883  68.623  1.00  0.00    -0.396 C  
BRANCH  14  15
HETATM   15  C   UNL     1     -10.296  14.360  68.519  1.00  0.00    -0.248 C  
BRANCH  15  16
HETATM   16  N   UNL     1      -9.762  14.506  67.158  1.00  0.00    -0.235 NA 
HETATM   17  C   UNL     1     -10.567  15.472  66.386  1.00  0.00    -0.311 C  
HETATM   18  C   UNL     1     -10.266  16.933  66.735  1.00  0.00    -0.306 C  
HETATM   19  C   UNL     1      -8.800  17.235  66.472  1.00  0.00    -0.290 C  
HETATM   20  C   UNL     1      -7.917  16.263  67.249  1.00  0.00    -0.195 C  
HETATM   21  C   UNL     1      -8.328  14.801  67.044  1.00  0.00    -0.198 C  
ENDBRANCH  15  16
ENDBRANCH  14  15
ENDBRANCH  12  14
ENDBRANCH   9  12
ENDBRANCH   5   6
ENDBRANCH   4   5
ENDBRANCH   3   4
ENDBRANCH   2   3
TORSDOF 8
ENDMDL
MODEL       73
REMARK 921   NORMALIZED FREE ENERGY PREDICTED BY IDOCK:   -4.47 KCAL/MOL
REMARK 922        TOTAL FREE ENERGY PREDICTED BY IDOCK:   -7.68 KCAL/MOL
REMARK 923 INTER-LIGAND FREE ENERGY PREDICTED BY IDOCK:   -6.63 KCAL/MOL
REMARK 924 INTRA-LIGAND FREE ENERGY PREDICTED BY IDOCK:   -1.06 KCAL/MOL
REMARK 927      BINDING AFFINITY PREDICTED BY RF-SCORE:    0.00 PKD
ROOT
HETATM    1  C   UNL     1      -9.416   9.763  64.894  1.00  0.00    -0.331 C  
HETATM    2  C   UNL     1     -10.384  10.847  65.340  1.00  0.00    -0.326 C  
ENDROOT
BRANCH   2   3
HETATM    3  C   UNL     1     -11.203  11.393  64.172  1.00  0.00    -0.327 C  
BRANCH   3   4
HETATM    4  C   UNL     1     -11.939  12.673  64.564  1.00  0.00    -0.399 C  
BRANCH   4   5
HETATM    5  O   UNL     1     -11.156  13.796  64.143  1.00  0.00    -0.329 OA 
BRANCH   5   6
HETATM    6  C   UNL     1     -10.960  14.759  65.099  1.00  0.00    -0.393 A  
HETATM    7  C   UNL     1     -10.701  16.104  64.831  1.00  0.00    -0.297 A  
HETATM    8  C   UNL     1     -10.513  17.004  65.889  1.00  0.00    -0.282 A  
HETATM    9  C   UNL     1     -10.566  16.560  67.214  1.00  0.00    -0.285 A  
HETATM   10  C   UNL     1     -11.080  14.331  66.423  1.00  0.00    -0.325 A  
HETATM   11  C   UNL     1     -10.873  15.223  67.482  1.00  0.00    -0.304 A  
BRANCH   9  12
HETATM   12  C   UNL     1     -10.243  17.533  68.305  1.00  0.00    -0.365 C  
HETATM   13  O   UNL     1     -10.105  17.107  69.454  1.00  0.00    -0.226 OA 
BRANCH  12  14
HETATM   14  C   UNL     1     -10.152  19.012  67.988  1.00  0.00    -0.458 C  
BRANCH  14  15
HETATM   15  C   UNL     1      -8.830  19.575  68.517  1.00  0.00    -0.342 C  
BRANCH  15  16
HETATM   16  N   UNL     1      -7.965  20.228  67.524  1.00  0.00    -0.317 NA 
HETATM   17  C   UNL     1      -6.606  20.418  68.065  1.00  0.00    -0.305 C  
HETATM   18  C   UNL     1      -5.763  19.139  68.060  1.00  0.00    -0.198 C  
HETATM   19  C   UNL     1      -5.629  18.614  66.640  1.00  0.00    -0.166 C  
HETATM   20  C   UNL     1      -7.010  18.396  66.029  1.00  0.00    -0.310 C  
HETATM   21  C   UNL     1      -7.924  19.616  66.189  1.00  0.00    -0.343 C  
ENDBRANCH  15  16
ENDBRANCH  14  15
ENDBRANCH  12  14
ENDBRANCH   9  12
ENDBRANCH   5   6
ENDBRANCH   4   5
ENDBRANCH   3   4
ENDBRANCH   2   3
TORSDOF 8
ENDMDL
MODEL       74
REMARK 921   NORMALIZED FREE ENERGY PREDICTED BY IDOCK:   -4.46 KCAL/MOL
REMARK 922        TOTAL FREE ENERGY PREDICTED BY IDOCK:   -7.67 KCAL/MOL
REMARK 923 INTER-LIGAND FREE ENERGY PREDICTED BY IDOCK:   -6.62 KCAL/MOL
REMARK 924 INTRA-LIGAND FREE ENERGY PREDICTED BY IDOCK:   -1.04 KCAL/MOL
REMARK 927      BINDING AFFINITY PREDICTED BY RF-SCORE:    0.00 PKD
ROOT
HETATM    1  C   UNL     1     -10.135   4.944  70.587  1.00  0.00    -0.306 C  
HETATM    2  C   UNL     1      -9.724   4.493  71.979  1.00  0.00    -0.229 C  
ENDROOT
BRANCH   2   3
HETATM    3  C   UNL     1     -10.692   4.998  73.048  1.00  0.00    -0.307 C  
BRANCH   3   4
HETATM    4  C   UNL     1     -10.040   6.067  73.924  1.00  0.00    -0.245 C  
BRANCH   4   5
HETATM    5  O   UNL     1     -10.854   7.244  73.888  1.00  0.00    -0.284 OA 
BRANCH   5   6
HETATM    6  C   UNL     1     -10.802   7.952  72.715  1.00  0.00    -0.386 A  
HETATM    7  C   UNL     1      -9.626   8.367  72.088  1.00  0.00    -0.367 A  
HETATM    8  C   UNL     1      -9.690   9.090  70.889  1.00  0.00    -0.329 A  
HETATM    9  C   UNL     1     -10.927   9.414  70.323  1.00  0.00    -0.305 A  
HETATM   10  C   UNL     1     -12.034   8.217  72.112  1.00  0.00    -0.429 A  
HETATM   11  C   UNL     1     -12.103   8.956  70.925  1.00  0.00    -0.218 A  
BRANCH   9  12
HETATM   12  C   UNL     1     -10.948  10.287  69.106  1.00  0.00    -0.238 C  
HETATM   13  O   UNL     1     -10.139  10.062  68.204  1.00  0.00    -0.149 OA 
BRANCH  12  14
HETATM   14  C   UNL     1     -11.914  11.453  69.037  1.00  0.00    -0.387 C  
BRANCH  14  15
HETATM   15  C   UNL     1     -11.437  12.459  67.985  1.00  0.00    -0.322 C  
BRANCH  15  16
HETATM   16  N   UNL     1     -12.142  12.423  66.696  1.00  0.00    -0.584 NA 
HETATM   17  C   UNL     1     -12.591  13.776  66.313  1.00  0.00    -0.321 C  
HETATM   18  C   UNL     1     -11.469  14.655  65.754  1.00  0.00    -0.338 C  
HETATM   19  C   UNL     1     -10.864  14.000  64.522  1.00  0.00    -0.362 C  
HETATM   20  C   UNL     1     -10.379  12.594  64.862  1.00  0.00    -0.330 C  
HETATM   21  C   UNL     1     -11.444  11.762  65.586  1.00  0.00    -0.186 C  
ENDBRANCH  15  16
ENDBRANCH  14  15
ENDBRANCH  12  14
ENDBRANCH   9  12
ENDBRANCH   5   6
ENDBRANCH   4   5
ENDBRANCH   3   4
ENDBRANCH   2   3
TORSDOF 8
ENDMDL
MODEL       75
REMARK 921   NORMALIZED FREE ENERGY PREDICTED BY IDOCK:   -4.45 KCAL/MOL
REMARK 922        TOTAL FREE ENERGY PREDICTED BY IDOCK:   -7.65 KCAL/MOL
REMARK 923 INTER-LIGAND FREE ENERGY PREDICTED BY IDOCK:   -6.51 KCAL/MOL
REMARK 924 INTRA-LIGAND FREE ENERGY PREDICTED BY IDOCK:   -1.14 KCAL/MOL
REMARK 927      BINDING AFFINITY PREDICTED BY RF-SCORE:    0.00 PKD
ROOT
HETATM    1  C   UNL     1     -14.151  15.251  71.809  1.00  0.00    -0.654 C  
HETATM    2  C   UNL     1     -13.155  15.220  70.661  1.00  0.00    -0.407 C  
ENDROOT
BRANCH   2   3
HETATM    3  C   UNL     1     -12.082  14.153  70.871  1.00  0.00    -0.416 C  
BRANCH   3   4
HETATM    4  C   UNL     1     -11.482  13.704  69.539  1.00  0.00    -0.263 C  
BRANCH   4   5
HETATM    5  O   UNL     1     -12.200  12.552  69.083  1.00  0.00    -0.187 OA 
BRANCH   5   6
HETATM    6  C   UNL     1     -11.922  11.389  69.754  1.00  0.00    -0.353 A  
HETATM    7  C   UNL     1     -12.832  10.693  70.550  1.00  0.00    -0.356 A  
HETATM    8  C   UNL     1     -12.439   9.512  71.194  1.00  0.00    -0.399 A  
HETATM    9  C   UNL     1     -11.131   9.034  71.059  1.00  0.00    -0.356 A  
HETATM   10  C   UNL     1     -10.637  10.873  69.565  1.00  0.00    -0.217 A  
HETATM   11  C   UNL     1     -10.235   9.705  70.222  1.00  0.00    -0.333 A  
BRANCH   9  12
HETATM   12  C   UNL     1     -10.724   7.835  71.858  1.00  0.00    -0.225 C  
HETATM   13  O   UNL     1     -10.626   7.948  73.082  1.00  0.00    -0.359 OA 
BRANCH  12  14
HETATM   14  C   UNL     1     -10.388   6.540  71.147  1.00  0.00    -0.237 C  
BRANCH  14  15
HETATM   15  C   UNL     1     -11.281   6.379  69.914  1.00  0.00    -0.420 C  
BRANCH  15  16
HETATM   16  N   UNL     1     -10.638   5.806  68.724  1.00  0.00    -0.248 NA 
HETATM   17  C   UNL     1     -11.158   6.440  67.497  1.00  0.00    -0.306 C  
HETATM   18  C   UNL     1     -10.570   7.829  67.232  1.00  0.00    -0.376 C  
HETATM   19  C   UNL     1      -9.058   7.733  67.100  1.00  0.00    -0.154 C  
HETATM   20  C   UNL     1      -8.464   7.085  68.347  1.00  0.00    -0.123 C  
HETATM   21  C   UNL     1      -9.169   5.777  68.724  1.00  0.00    -0.118 C  
ENDBRANCH  15  16
ENDBRANCH  14  15
ENDBRANCH  12  14
ENDBRANCH   9  12
ENDBRANCH   5   6
ENDBRANCH   4   5
ENDBRANCH   3   4
ENDBRANCH   2   3
TORSDOF 8
ENDMDL
MODEL       76
REMARK 921   NORMALIZED FREE ENERGY PREDICTED BY IDOCK:   -4.45 KCAL/MOL
REMARK 922        TOTAL FREE ENERGY PREDICTED BY IDOCK:   -7.65 KCAL/MOL
REMARK 923 INTER-LIGAND FREE ENERGY PREDICTED BY IDOCK:   -6.93 KCAL/MOL
REMARK 924 INTRA-LIGAND FREE ENERGY PREDICTED BY IDOCK:   -0.72 KCAL/MOL
REMARK 927      BINDING AFFINITY PREDICTED BY RF-SCORE:    0.00 PKD
ROOT
HETATM    1  C   UNL     1      -9.028   3.540  66.247  1.00  0.00    -0.145 C  
HETATM    2  C   UNL     1      -9.642   4.413  67.330  1.00  0.00    -0.220 C  
ENDROOT
BRANCH   2   3
HETATM    3  C   UNL     1     -10.230   5.700  66.755  1.00  0.00    -0.276 C  
BRANCH   3   4
HETATM    4  C   UNL     1      -9.355   6.907  67.091  1.00  0.00    -0.141 C  
BRANCH   4   5
HETATM    5  O   UNL     1      -9.202   6.975  68.513  1.00  0.00    -0.138 OA 
BRANCH   5   6
HETATM    6  C   UNL     1      -9.995   7.901  69.140  1.00  0.00    -0.184 A  
HETATM    7  C   UNL     1     -10.049   9.256  68.810  1.00  0.00    -0.210 A  
HETATM    8  C   UNL     1     -10.896  10.116  69.522  1.00  0.00    -0.289 A  
HETATM    9  C   UNL     1     -11.677   9.629  70.574  1.00  0.00    -0.312 A  
HETATM   10  C   UNL     1     -10.827   7.404  70.146  1.00  0.00    -0.270 A  
HETATM   11  C   UNL     1     -11.660   8.263  70.872  1.00  0.00    -0.282 A  
BRANCH   9  12
HETATM   12  C   UNL     1     -12.477  10.606  71.380  1.00  0.00    -0.390 C  
HETATM   13  O   UNL     1     -13.212  10.173  72.270  1.00  0.00    -0.415 OA 
BRANCH  12  14
HETATM   14  C   UNL     1     -12.411  12.083  71.048  1.00  0.00    -0.376 C  
BRANCH  14  15
HETATM   15  C   UNL     1     -13.385  12.858  71.941  1.00  0.00    -0.435 C  
BRANCH  15  16
HETATM   16  N   UNL     1     -13.703  14.226  71.509  1.00  0.00    -0.365 NA 
HETATM   17  C   UNL     1     -14.084  15.059  72.665  1.00  0.00    -0.302 C  
HETATM   18  C   UNL     1     -12.890  15.527  73.501  1.00  0.00    -0.687 C  
HETATM   19  C   UNL     1     -11.940  16.340  72.636  1.00  0.00    -0.644 C  
HETATM   20  C   UNL     1     -11.509  15.524  71.421  1.00  0.00    -0.478 C  
HETATM   21  C   UNL     1     -12.697  14.901  70.678  1.00  0.00    -0.367 C  
ENDBRANCH  15  16
ENDBRANCH  14  15
ENDBRANCH  12  14
ENDBRANCH   9  12
ENDBRANCH   5   6
ENDBRANCH   4   5
ENDBRANCH   3   4
ENDBRANCH   2   3
TORSDOF 8
ENDMDL
MODEL       77
REMARK 921   NORMALIZED FREE ENERGY PREDICTED BY IDOCK:   -4.44 KCAL/MOL
REMARK 922        TOTAL FREE ENERGY PREDICTED BY IDOCK:   -7.63 KCAL/MOL
REMARK 923 INTER-LIGAND FREE ENERGY PREDICTED BY IDOCK:   -7.22 KCAL/MOL
REMARK 924 INTRA-LIGAND FREE ENERGY PREDICTED BY IDOCK:   -0.41 KCAL/MOL
REMARK 927      BINDING AFFINITY PREDICTED BY RF-SCORE:    0.00 PKD
ROOT
HETATM    1  C   UNL     1     -10.544   3.570  74.272  1.00  0.00    -0.256 C  
HETATM    2  C   UNL     1     -10.425   3.121  72.824  1.00  0.00    -0.212 C  
ENDROOT
BRANCH   2   3
HETATM    3  C   UNL     1      -9.830   4.214  71.938  1.00  0.00    -0.251 C  
BRANCH   3   4
HETATM    4  C   UNL     1      -9.122   5.280  72.773  1.00  0.00    -0.133 C  
BRANCH   4   5
HETATM    5  O   UNL     1      -8.759   6.366  71.914  1.00  0.00    -0.134 OA 
BRANCH   5   6
HETATM    6  C   UNL     1      -9.705   7.350  71.787  1.00  0.00    -0.153 A  
HETATM    7  C   UNL     1      -9.518   8.551  71.102  1.00  0.00    -0.249 A  
HETATM    8  C   UNL     1     -10.557   9.490  71.039  1.00  0.00    -0.392 A  
HETATM    9  C   UNL     1     -11.777   9.239  71.674  1.00  0.00    -0.462 A  
HETATM   10  C   UNL     1     -10.948   7.071  72.362  1.00  0.00    -0.282 A  
HETATM   11  C   UNL     1     -11.981   8.015  72.318  1.00  0.00    -0.412 A  
BRANCH   9  12
HETATM   12  C   UNL     1     -12.814  10.319  71.678  1.00  0.00    -0.463 C  
HETATM   13  O   UNL     1     -13.982  10.015  71.926  1.00  0.00    -0.107 OA 
BRANCH  12  14
HETATM   14  C   UNL     1     -12.419  11.738  71.323  1.00  0.00    -0.351 C  
BRANCH  14  15
HETATM   15  C   UNL     1     -13.295  12.729  72.095  1.00  0.00    -0.492 C  
BRANCH  15  16
HETATM   16  N   UNL     1     -13.521  14.028  71.447  1.00  0.00    -0.318 NA 
HETATM   17  C   UNL     1     -14.118  14.985  72.398  1.00  0.00    -0.476 C  
HETATM   18  C   UNL     1     -13.106  15.575  73.386  1.00  0.00    -0.651 C  
HETATM   19  C   UNL     1     -12.006  16.299  72.627  1.00  0.00    -0.644 C  
HETATM   20  C   UNL     1     -11.349  15.353  71.627  1.00  0.00    -0.455 C  
HETATM   21  C   UNL     1     -12.372  14.621  70.750  1.00  0.00    -0.328 C  
ENDBRANCH  15  16
ENDBRANCH  14  15
ENDBRANCH  12  14
ENDBRANCH   9  12
ENDBRANCH   5   6
ENDBRANCH   4   5
ENDBRANCH   3   4
ENDBRANCH   2   3
TORSDOF 8
ENDMDL
MODEL       78
REMARK 921   NORMALIZED FREE ENERGY PREDICTED BY IDOCK:   -4.43 KCAL/MOL
REMARK 922        TOTAL FREE ENERGY PREDICTED BY IDOCK:   -7.63 KCAL/MOL
REMARK 923 INTER-LIGAND FREE ENERGY PREDICTED BY IDOCK:   -6.39 KCAL/MOL
REMARK 924 INTRA-LIGAND FREE ENERGY PREDICTED BY IDOCK:   -1.23 KCAL/MOL
REMARK 927      BINDING AFFINITY PREDICTED BY RF-SCORE:    0.00 PKD
ROOT
HETATM    1  C   UNL     1      -6.970  13.727  68.912  1.00  0.00    -0.111 C  
HETATM    2  C   UNL     1      -7.155  15.101  68.289  1.00  0.00    -0.114 C  
ENDROOT
BRANCH   2   3
HETATM    3  C   UNL     1      -8.268  15.890  68.976  1.00  0.00    -0.234 C  
BRANCH   3   4
HETATM    4  C   UNL     1      -8.828  16.973  68.055  1.00  0.00    -0.223 C  
BRANCH   4   5
HETATM    5  O   UNL     1     -10.255  16.867  68.042  1.00  0.00    -0.282 OA 
BRANCH   5   6
HETATM    6  C   UNL     1     -10.759  15.896  67.215  1.00  0.00    -0.306 A  
HETATM    7  C   UNL     1     -11.526  14.810  67.639  1.00  0.00    -0.363 A  
HETATM    8  C   UNL     1     -11.989  13.873  66.705  1.00  0.00    -0.474 A  
HETATM    9  C   UNL     1     -11.671  14.009  65.350  1.00  0.00    -0.344 A  
HETATM   10  C   UNL     1     -10.502  16.068  65.853  1.00  0.00    -0.373 A  
HETATM   11  C   UNL     1     -10.945  15.124  64.919  1.00  0.00    -0.434 A  
BRANCH   9  12
HETATM   12  C   UNL     1     -12.088  12.922  64.407  1.00  0.00    -0.410 C  
HETATM   13  O   UNL     1     -13.249  12.512  64.456  1.00  0.00    -0.832 OA 
BRANCH  12  14
HETATM   14  C   UNL     1     -11.067  12.316  63.465  1.00  0.00    -0.533 C  
BRANCH  14  15
HETATM   15  C   UNL     1     -10.623  10.949  63.994  1.00  0.00    -0.240 C  
BRANCH  15  16
HETATM   16  N   UNL     1      -9.229  10.857  64.448  1.00  0.00    -0.210 NA 
HETATM   17  C   UNL     1      -9.064  11.521  65.755  1.00  0.00    -0.154 C  
HETATM   18  C   UNL     1      -9.575  10.685  66.932  1.00  0.00    -0.200 C  
HETATM   19  C   UNL     1      -8.831   9.361  66.987  1.00  0.00    -0.139 C  
HETATM   20  C   UNL     1      -8.969   8.627  65.657  1.00  0.00    -0.231 C  
HETATM   21  C   UNL     1      -8.629   9.516  64.455  1.00  0.00    -0.187 C  
ENDBRANCH  15  16
ENDBRANCH  14  15
ENDBRANCH  12  14
ENDBRANCH   9  12
ENDBRANCH   5   6
ENDBRANCH   4   5
ENDBRANCH   3   4
ENDBRANCH   2   3
TORSDOF 8
ENDMDL
MODEL       79
REMARK 921   NORMALIZED FREE ENERGY PREDICTED BY IDOCK:   -4.43 KCAL/MOL
REMARK 922        TOTAL FREE ENERGY PREDICTED BY IDOCK:   -7.62 KCAL/MOL
REMARK 923 INTER-LIGAND FREE ENERGY PREDICTED BY IDOCK:   -6.64 KCAL/MOL
REMARK 924 INTRA-LIGAND FREE ENERGY PREDICTED BY IDOCK:   -0.99 KCAL/MOL
REMARK 927      BINDING AFFINITY PREDICTED BY RF-SCORE:    0.00 PKD
ROOT
HETATM    1  C   UNL     1     -13.945  14.342  72.092  1.00  0.00    -0.618 C  
HETATM    2  C   UNL     1     -13.124  15.511  71.573  1.00  0.00    -0.573 C  
ENDROOT
BRANCH   2   3
HETATM    3  C   UNL     1     -11.625  15.269  71.738  1.00  0.00    -0.498 C  
BRANCH   3   4
HETATM    4  C   UNL     1     -10.841  15.826  70.551  1.00  0.00    -0.301 C  
BRANCH   4   5
HETATM    5  O   UNL     1     -11.726  15.930  69.430  1.00  0.00    -0.358 OA 
BRANCH   5   6
HETATM    6  C   UNL     1     -11.519  15.007  68.437  1.00  0.00    -0.323 A  
HETATM    7  C   UNL     1     -12.023  13.706  68.444  1.00  0.00    -0.391 A  
HETATM    8  C   UNL     1     -11.747  12.843  67.375  1.00  0.00    -0.428 A  
HETATM    9  C   UNL     1     -10.954  13.272  66.306  1.00  0.00    -0.296 A  
HETATM   10  C   UNL     1     -10.786  15.456  67.336  1.00  0.00    -0.296 A  
HETATM   11  C   UNL     1     -10.491  14.591  66.276  1.00  0.00    -0.303 A  
BRANCH   9  12
HETATM   12  C   UNL     1     -10.589  12.280  65.245  1.00  0.00    -0.287 C  
HETATM   13  O   UNL     1     -11.257  12.252  64.209  1.00  0.00    -0.310 OA 
BRANCH  12  14
HETATM   14  C   UNL     1      -9.457  11.303  65.490  1.00  0.00    -0.255 C  
BRANCH  14  15
HETATM   15  C   UNL     1     -10.016   9.883  65.615  1.00  0.00    -0.283 C  
BRANCH  15  16
HETATM   16  N   UNL     1     -10.287   9.416  66.982  1.00  0.00    -0.253 NA 
HETATM   17  C   UNL     1     -10.462   7.952  67.005  1.00  0.00    -0.349 C  
HETATM   18  C   UNL     1      -9.142   7.178  66.928  1.00  0.00    -0.159 C  
HETATM   19  C   UNL     1      -8.253   7.558  68.101  1.00  0.00    -0.125 C  
HETATM   20  C   UNL     1      -8.035   9.068  68.125  1.00  0.00    -0.101 C  
HETATM   21  C   UNL     1      -9.347   9.854  68.022  1.00  0.00    -0.130 C  
ENDBRANCH  15  16
ENDBRANCH  14  15
ENDBRANCH  12  14
ENDBRANCH   9  12
ENDBRANCH   5   6
ENDBRANCH   4   5
ENDBRANCH   3   4
ENDBRANCH   2   3
TORSDOF 8
ENDMDL
MODEL       80
REMARK 921   NORMALIZED FREE ENERGY PREDICTED BY IDOCK:   -4.42 KCAL/MOL
REMARK 922        TOTAL FREE ENERGY PREDICTED BY IDOCK:   -7.61 KCAL/MOL
REMARK 923 INTER-LIGAND FREE ENERGY PREDICTED BY IDOCK:   -7.01 KCAL/MOL
REMARK 924 INTRA-LIGAND FREE ENERGY PREDICTED BY IDOCK:   -0.59 KCAL/MOL
REMARK 927      BINDING AFFINITY PREDICTED BY RF-SCORE:    0.00 PKD
ROOT
HETATM    1  C   UNL     1      -8.780   5.503  72.685  1.00  0.00    -0.123 C  
HETATM    2  C   UNL     1     -10.105   5.226  71.995  1.00  0.00    -0.247 C  
ENDROOT
BRANCH   2   3
HETATM    3  C   UNL     1     -11.294   5.616  72.872  1.00  0.00    -0.325 C  
BRANCH   3   4
HETATM    4  C   UNL     1     -11.562   7.119  72.803  1.00  0.00    -0.140 C  
BRANCH   4   5
HETATM    5  O   UNL     1     -11.877   7.463  71.449  1.00  0.00    -0.277 OA 
BRANCH   5   6
HETATM    6  C   UNL     1     -11.970   8.808  71.197  1.00  0.00    -0.285 A  
HETATM    7  C   UNL     1     -11.163   9.506  70.298  1.00  0.00    -0.307 A  
HETATM    8  C   UNL     1     -11.343  10.885  70.121  1.00  0.00    -0.367 A  
HETATM    9  C   UNL     1     -12.317  11.571  70.853  1.00  0.00    -0.460 A  
HETATM   10  C   UNL     1     -12.987   9.483  71.877  1.00  0.00    -0.514 A  
HETATM   11  C   UNL     1     -13.157  10.863  71.717  1.00  0.00    -0.564 A  
BRANCH   9  12
HETATM   12  C   UNL     1     -12.393  13.060  70.717  1.00  0.00    -0.310 C  
HETATM   13  O   UNL     1     -13.271  13.665  71.337  1.00  0.00    -0.330 OA 
BRANCH  12  14
HETATM   14  C   UNL     1     -11.439  13.777  69.783  1.00  0.00    -0.267 C  
BRANCH  14  15
HETATM   15  C   UNL     1     -12.012  13.783  68.362  1.00  0.00    -0.360 C  
BRANCH  15  16
HETATM   16  N   UNL     1     -11.228  13.062  67.350  1.00  0.00    -0.276 NA 
HETATM   17  C   UNL     1     -12.068  12.727  66.185  1.00  0.00    -0.364 C  
HETATM   18  C   UNL     1     -12.314  13.914  65.249  1.00  0.00    -0.485 C  
HETATM   19  C   UNL     1     -10.988  14.444  64.728  1.00  0.00    -0.409 C  
HETATM   20  C   UNL     1     -10.076  14.810  65.894  1.00  0.00    -0.343 C  
HETATM   21  C   UNL     1      -9.966  13.686  66.932  1.00  0.00    -0.260 C  
ENDBRANCH  15  16
ENDBRANCH  14  15
ENDBRANCH  12  14
ENDBRANCH   9  12
ENDBRANCH   5   6
ENDBRANCH   4   5
ENDBRANCH   3   4
ENDBRANCH   2   3
TORSDOF 8
ENDMDL
MODEL       81
REMARK 921   NORMALIZED FREE ENERGY PREDICTED BY IDOCK:   -4.41 KCAL/MOL
REMARK 922        TOTAL FREE ENERGY PREDICTED BY IDOCK:   -7.60 KCAL/MOL
REMARK 923 INTER-LIGAND FREE ENERGY PREDICTED BY IDOCK:   -6.63 KCAL/MOL
REMARK 924 INTRA-LIGAND FREE ENERGY PREDICTED BY IDOCK:   -0.97 KCAL/MOL
REMARK 927      BINDING AFFINITY PREDICTED BY RF-SCORE:    0.00 PKD
ROOT
HETATM    1  C   UNL     1      -8.078  18.271  68.050  1.00  0.00    -0.279 C  
HETATM    2  C   UNL     1      -9.197  18.339  67.024  1.00  0.00    -0.274 C  
ENDROOT
BRANCH   2   3
HETATM    3  C   UNL     1     -10.568  18.128  67.665  1.00  0.00    -0.424 C  
BRANCH   3   4
HETATM    4  C   UNL     1     -10.558  16.929  68.611  1.00  0.00    -0.360 C  
BRANCH   4   5
HETATM    5  O   UNL     1     -11.672  16.088  68.292  1.00  0.00    -0.303 OA 
BRANCH   5   6
HETATM    6  C   UNL     1     -11.346  14.815  67.900  1.00  0.00    -0.316 A  
HETATM    7  C   UNL     1     -12.048  14.071  66.950  1.00  0.00    -0.465 A  
HETATM    8  C   UNL     1     -11.626  12.774  66.627  1.00  0.00    -0.430 A  
HETATM    9  C   UNL     1     -10.515  12.212  67.263  1.00  0.00    -0.238 A  
HETATM   10  C   UNL     1     -10.196  14.277  68.483  1.00  0.00    -0.245 A  
HETATM   11  C   UNL     1      -9.784  12.975  68.178  1.00  0.00    -0.228 A  
BRANCH   9  12
HETATM   12  C   UNL     1     -10.174  10.783  66.971  1.00  0.00    -0.217 C  
HETATM   13  O   UNL     1     -10.395  10.343  65.841  1.00  0.00    -0.245 OA 
BRANCH  12  14
HETATM   14  C   UNL     1      -9.625   9.903  68.076  1.00  0.00    -0.155 C  
BRANCH  14  15
HETATM   15  C   UNL     1     -10.761   9.479  69.012  1.00  0.00    -0.202 C  
BRANCH  15  16
HETATM   16  N   UNL     1     -10.688   9.994  70.387  1.00  0.00    -0.303 NA 
HETATM   17  C   UNL     1     -11.741  10.999  70.621  1.00  0.00    -0.269 C  
HETATM   18  C   UNL     1     -13.127  10.389  70.850  1.00  0.00    -0.412 C  
HETATM   19  C   UNL     1     -13.091   9.464  72.056  1.00  0.00    -0.516 C  
HETATM   20  C   UNL     1     -12.016   8.398  71.867  1.00  0.00    -0.397 C  
HETATM   21  C   UNL     1     -10.662   8.992  71.461  1.00  0.00    -0.351 C  
ENDBRANCH  15  16
ENDBRANCH  14  15
ENDBRANCH  12  14
ENDBRANCH   9  12
ENDBRANCH   5   6
ENDBRANCH   4   5
ENDBRANCH   3   4
ENDBRANCH   2   3
TORSDOF 8
ENDMDL
MODEL       82
REMARK 921   NORMALIZED FREE ENERGY PREDICTED BY IDOCK:   -4.40 KCAL/MOL
REMARK 922        TOTAL FREE ENERGY PREDICTED BY IDOCK:   -7.58 KCAL/MOL
REMARK 923 INTER-LIGAND FREE ENERGY PREDICTED BY IDOCK:   -6.58 KCAL/MOL
REMARK 924 INTRA-LIGAND FREE ENERGY PREDICTED BY IDOCK:   -1.00 KCAL/MOL
REMARK 927      BINDING AFFINITY PREDICTED BY RF-SCORE:    0.00 PKD
ROOT
HETATM    1  C   UNL     1     -13.624  13.732  72.024  1.00  0.00    -0.569 C  
HETATM    2  C   UNL     1     -12.821  14.793  71.289  1.00  0.00    -0.408 C  
ENDROOT
BRANCH   2   3
HETATM    3  C   UNL     1     -12.276  14.273  69.960  1.00  0.00    -0.417 C  
BRANCH   3   4
HETATM    4  C   UNL     1     -11.252  15.239  69.367  1.00  0.00    -0.285 C  
BRANCH   4   5
HETATM    5  O   UNL     1     -11.614  15.510  68.009  1.00  0.00    -0.342 OA 
BRANCH   5   6
HETATM    6  C   UNL     1     -11.377  14.487  67.128  1.00  0.00    -0.350 A  
HETATM    7  C   UNL     1     -12.368  13.728  66.504  1.00  0.00    -0.432 A  
HETATM    8  C   UNL     1     -12.010  12.701  65.620  1.00  0.00    -0.507 A  
HETATM    9  C   UNL     1     -10.663  12.418  65.372  1.00  0.00    -0.317 A  
HETATM   10  C   UNL     1     -10.034  14.248  66.825  1.00  0.00    -0.266 A  
HETATM   11  C   UNL     1      -9.672  13.210  65.959  1.00  0.00    -0.234 A  
BRANCH   9  12
HETATM   12  C   UNL     1     -10.329  11.237  64.513  1.00  0.00    -0.322 C  
HETATM   13  O   UNL     1     -10.820  11.171  63.384  1.00  0.00    -0.335 OA 
BRANCH  12  14
HETATM   14  C   UNL     1      -9.452  10.133  65.066  1.00  0.00    -0.330 C  
BRANCH  14  15
HETATM   15  C   UNL     1     -10.011   9.651  66.408  1.00  0.00    -0.255 C  
BRANCH  15  16
HETATM   16  N   UNL     1      -9.090   9.722  67.551  1.00  0.00    -0.131 NA 
HETATM   17  C   UNL     1      -9.279  10.984  68.292  1.00  0.00    -0.165 C  
HETATM   18  C   UNL     1     -10.513  10.980  69.199  1.00  0.00    -0.238 C  
HETATM   19  C   UNL     1     -10.403   9.856  70.216  1.00  0.00    -0.339 C  
HETATM   20  C   UNL     1     -10.208   8.521  69.503  1.00  0.00    -0.206 C  
HETATM   21  C   UNL     1      -9.085   8.569  68.461  1.00  0.00    -0.135 C  
ENDBRANCH  15  16
ENDBRANCH  14  15
ENDBRANCH  12  14
ENDBRANCH   9  12
ENDBRANCH   5   6
ENDBRANCH   4   5
ENDBRANCH   3   4
ENDBRANCH   2   3
TORSDOF 8
ENDMDL
MODEL       83
REMARK 921   NORMALIZED FREE ENERGY PREDICTED BY IDOCK:   -4.39 KCAL/MOL
REMARK 922        TOTAL FREE ENERGY PREDICTED BY IDOCK:   -7.57 KCAL/MOL
REMARK 923 INTER-LIGAND FREE ENERGY PREDICTED BY IDOCK:   -6.34 KCAL/MOL
REMARK 924 INTRA-LIGAND FREE ENERGY PREDICTED BY IDOCK:   -1.22 KCAL/MOL
REMARK 927      BINDING AFFINITY PREDICTED BY RF-SCORE:    0.00 PKD
ROOT
HETATM    1  C   UNL     1      -7.461  11.481  67.836  1.00  0.00    -0.103 C  
HETATM    2  C   UNL     1      -7.777  10.974  69.234  1.00  0.00    -0.071 C  
ENDROOT
BRANCH   2   3
HETATM    3  C   UNL     1      -8.713   9.767  69.202  1.00  0.00    -0.155 C  
BRANCH   3   4
HETATM    4  C   UNL     1     -10.129  10.153  69.626  1.00  0.00    -0.234 C  
BRANCH   4   5
HETATM    5  O   UNL     1     -11.019   9.888  68.537  1.00  0.00    -0.225 OA 
BRANCH   5   6
HETATM    6  C   UNL     1     -11.180  10.923  67.652  1.00  0.00    -0.309 A  
HETATM    7  C   UNL     1     -10.917  10.849  66.284  1.00  0.00    -0.130 A  
HETATM    8  C   UNL     1     -11.115  11.973  65.471  1.00  0.00    -0.361 A  
HETATM    9  C   UNL     1     -11.560  13.177  66.025  1.00  0.00    -0.393 A  
HETATM   10  C   UNL     1     -11.691  12.107  68.192  1.00  0.00    -0.402 A  
HETATM   11  C   UNL     1     -11.871  13.237  67.387  1.00  0.00    -0.413 A  
BRANCH   9  12
HETATM   12  C   UNL     1     -11.645  14.382  65.139  1.00  0.00    -0.361 C  
HETATM   13  O   UNL     1     -12.682  14.572  64.500  1.00  0.00    -0.653 OA 
BRANCH  12  14
HETATM   14  C   UNL     1     -10.445  15.297  65.003  1.00  0.00    -0.411 C  
BRANCH  14  15
HETATM   15  C   UNL     1     -10.808  16.702  65.495  1.00  0.00    -0.163 C  
BRANCH  15  16
HETATM   16  N   UNL     1     -10.370  17.038  66.857  1.00  0.00    -0.312 NA 
HETATM   17  C   UNL     1      -8.954  16.672  67.052  1.00  0.00    -0.208 C  
HETATM   18  C   UNL     1      -7.975  17.664  66.418  1.00  0.00    -0.309 C  
HETATM   19  C   UNL     1      -8.183  19.048  67.012  1.00  0.00    -0.285 C  
HETATM   20  C   UNL     1      -9.636  19.480  66.836  1.00  0.00    -0.440 C  
HETATM   21  C   UNL     1     -10.630  18.412  67.307  1.00  0.00    -0.402 C  
ENDBRANCH  15  16
ENDBRANCH  14  15
ENDBRANCH  12  14
ENDBRANCH   9  12
ENDBRANCH   5   6
ENDBRANCH   4   5
ENDBRANCH   3   4
ENDBRANCH   2   3
TORSDOF 8
ENDMDL
MODEL       84
REMARK 921   NORMALIZED FREE ENERGY PREDICTED BY IDOCK:   -4.38 KCAL/MOL
REMARK 922        TOTAL FREE ENERGY PREDICTED BY IDOCK:   -7.55 KCAL/MOL
REMARK 923 INTER-LIGAND FREE ENERGY PREDICTED BY IDOCK:   -5.96 KCAL/MOL
REMARK 924 INTRA-LIGAND FREE ENERGY PREDICTED BY IDOCK:   -1.59 KCAL/MOL
REMARK 927      BINDING AFFINITY PREDICTED BY RF-SCORE:    0.00 PKD
ROOT
HETATM    1  C   UNL     1     -13.115  14.475  71.023  1.00  0.00    -0.429 C  
HETATM    2  C   UNL     1     -12.108  13.703  70.188  1.00  0.00    -0.431 C  
ENDROOT
BRANCH   2   3
HETATM    3  C   UNL     1     -11.696  14.476  68.937  1.00  0.00    -0.354 C  
BRANCH   3   4
HETATM    4  C   UNL     1     -10.284  14.098  68.492  1.00  0.00    -0.247 C  
BRANCH   4   5
HETATM    5  O   UNL     1     -10.381  13.155  67.420  1.00  0.00    -0.236 OA 
BRANCH   5   6
HETATM    6  C   UNL     1     -10.096  11.857  67.758  1.00  0.00    -0.191 A  
HETATM    7  C   UNL     1      -9.052  11.465  68.597  1.00  0.00    -0.138 A  
HETATM    8  C   UNL     1      -8.849  10.106  68.873  1.00  0.00    -0.154 A  
HETATM    9  C   UNL     1      -9.677   9.136  68.298  1.00  0.00    -0.171 A  
HETATM   10  C   UNL     1     -10.963  10.891  67.240  1.00  0.00    -0.355 A  
HETATM   11  C   UNL     1     -10.752   9.532  67.498  1.00  0.00    -0.311 A  
BRANCH   9  12
HETATM   12  C   UNL     1      -9.350   7.693  68.529  1.00  0.00    -0.147 C  
HETATM   13  O   UNL     1      -8.831   7.052  67.612  1.00  0.00    -0.120 OA 
BRANCH  12  14
HETATM   14  C   UNL     1      -9.715   7.043  69.848  1.00  0.00    -0.163 C  
BRANCH  14  15
HETATM   15  C   UNL     1     -11.211   7.229  70.121  1.00  0.00    -0.239 C  
BRANCH  15  16
HETATM   16  N   UNL     1     -11.569   7.641  71.485  1.00  0.00    -0.266 NA 
HETATM   17  C   UNL     1     -10.963   8.946  71.809  1.00  0.00    -0.361 C  
HETATM   18  C   UNL     1     -11.699  10.134  71.183  1.00  0.00    -0.453 C  
HETATM   19  C   UNL     1     -13.141  10.159  71.664  1.00  0.00    -0.550 C  
HETATM   20  C   UNL     1     -13.821   8.830  71.351  1.00  0.00    -0.318 C  
HETATM   21  C   UNL     1     -12.999   7.623  71.819  1.00  0.00    -0.328 C  
ENDBRANCH  15  16
ENDBRANCH  14  15
ENDBRANCH  12  14
ENDBRANCH   9  12
ENDBRANCH   5   6
ENDBRANCH   4   5
ENDBRANCH   3   4
ENDBRANCH   2   3
TORSDOF 8
ENDMDL
MODEL       85
REMARK 921   NORMALIZED FREE ENERGY PREDICTED BY IDOCK:   -4.37 KCAL/MOL
REMARK 922        TOTAL FREE ENERGY PREDICTED BY IDOCK:   -7.54 KCAL/MOL
REMARK 923 INTER-LIGAND FREE ENERGY PREDICTED BY IDOCK:   -6.75 KCAL/MOL
REMARK 924 INTRA-LIGAND FREE ENERGY PREDICTED BY IDOCK:   -0.78 KCAL/MOL
REMARK 927      BINDING AFFINITY PREDICTED BY RF-SCORE:    0.00 PKD
ROOT
HETATM    1  C   UNL     1     -13.571  13.123  72.167  1.00  0.00    -0.637 C  
HETATM    2  C   UNL     1     -13.411  14.418  72.948  1.00  0.00    -0.575 C  
ENDROOT
BRANCH   2   3
HETATM    3  C   UNL     1     -13.040  15.587  72.038  1.00  0.00    -0.535 C  
BRANCH   3   4
HETATM    4  C   UNL     1     -11.630  15.422  71.472  1.00  0.00    -0.411 C  
BRANCH   4   5
HETATM    5  O   UNL     1     -11.512  16.235  70.299  1.00  0.00    -0.341 OA 
BRANCH   5   6
HETATM    6  C   UNL     1     -11.322  15.545  69.130  1.00  0.00    -0.328 A  
HETATM    7  C   UNL     1     -10.514  15.973  68.076  1.00  0.00    -0.275 A  
HETATM    8  C   UNL     1     -10.394  15.186  66.922  1.00  0.00    -0.272 A  
HETATM    9  C   UNL     1     -11.096  13.982  66.811  1.00  0.00    -0.311 A  
HETATM   10  C   UNL     1     -11.967  14.308  69.045  1.00  0.00    -0.360 A  
HETATM   11  C   UNL     1     -11.866  13.530  67.886  1.00  0.00    -0.397 A  
BRANCH   9  12
HETATM   12  C   UNL     1     -11.029  13.235  65.514  1.00  0.00    -0.282 C  
HETATM   13  O   UNL     1     -10.716  13.851  64.494  1.00  0.00    -0.412 OA 
BRANCH  12  14
HETATM   14  C   UNL     1     -11.403  11.767  65.476  1.00  0.00    -0.283 C  
BRANCH  14  15
HETATM   15  C   UNL     1     -10.453  11.015  64.539  1.00  0.00    -0.342 C  
BRANCH  15  16
HETATM   16  N   UNL     1      -9.715   9.893  65.137  1.00  0.00    -0.307 NA 
HETATM   17  C   UNL     1      -8.787   9.301  64.155  1.00  0.00    -0.141 C  
HETATM   18  C   UNL     1      -7.510  10.121  63.950  1.00  0.00    -0.121 C  
HETATM   19  C   UNL     1      -6.767  10.257  65.269  1.00  0.00    -0.126 C  
HETATM   20  C   UNL     1      -7.681  10.869  66.326  1.00  0.00    -0.147 C  
HETATM   21  C   UNL     1      -9.038  10.160  66.413  1.00  0.00    -0.152 C  
ENDBRANCH  15  16
ENDBRANCH  14  15
ENDBRANCH  12  14
ENDBRANCH   9  12
ENDBRANCH   5   6
ENDBRANCH   4   5
ENDBRANCH   3   4
ENDBRANCH   2   3
TORSDOF 8
ENDMDL
MODEL       86
REMARK 921   NORMALIZED FREE ENERGY PREDICTED BY IDOCK:   -4.36 KCAL/MOL
REMARK 922        TOTAL FREE ENERGY PREDICTED BY IDOCK:   -7.52 KCAL/MOL
REMARK 923 INTER-LIGAND FREE ENERGY PREDICTED BY IDOCK:   -6.65 KCAL/MOL
REMARK 924 INTRA-LIGAND FREE ENERGY PREDICTED BY IDOCK:   -0.87 KCAL/MOL
REMARK 927      BINDING AFFINITY PREDICTED BY RF-SCORE:    0.00 PKD
ROOT
HETATM    1  C   UNL     1     -10.625  11.762  63.927  1.00  0.00    -0.445 C  
HETATM    2  C   UNL     1     -12.016  12.372  64.002  1.00  0.00    -0.546 C  
ENDROOT
BRANCH   2   3
HETATM    3  C   UNL     1     -11.971  13.837  64.432  1.00  0.00    -0.480 C  
BRANCH   3   4
HETATM    4  C   UNL     1     -12.579  14.025  65.821  1.00  0.00    -0.479 C  
BRANCH   4   5
HETATM    5  O   UNL     1     -11.521  14.016  66.786  1.00  0.00    -0.332 OA 
BRANCH   5   6
HETATM    6  C   UNL     1     -11.665  13.103  67.799  1.00  0.00    -0.358 A  
HETATM    7  C   UNL     1     -11.614  11.718  67.635  1.00  0.00    -0.364 A  
HETATM    8  C   UNL     1     -11.777  10.877  68.744  1.00  0.00    -0.355 A  
HETATM    9  C   UNL     1     -12.009  11.415  70.013  1.00  0.00    -0.442 A  
HETATM   10  C   UNL     1     -11.827  13.640  69.079  1.00  0.00    -0.393 A  
HETATM   11  C   UNL     1     -12.010  12.802  70.185  1.00  0.00    -0.371 A  
BRANCH   9  12
HETATM   12  C   UNL     1     -12.293  10.476  71.145  1.00  0.00    -0.405 C  
HETATM   13  O   UNL     1     -13.133  10.804  71.986  1.00  0.00    -0.483 OA 
BRANCH  12  14
HETATM   14  C   UNL     1     -11.509   9.185  71.263  1.00  0.00    -0.405 C  
BRANCH  14  15
HETATM   15  C   UNL     1     -10.010   9.478  71.150  1.00  0.00    -0.149 C  
BRANCH  15  16
HETATM   16  N   UNL     1      -9.194   8.426  70.529  1.00  0.00    -0.147 NA 
HETATM   17  C   UNL     1      -9.346   8.449  69.062  1.00  0.00    -0.147 C  
HETATM   18  C   UNL     1      -8.546   9.565  68.383  1.00  0.00    -0.120 C  
HETATM   19  C   UNL     1      -7.067   9.403  68.694  1.00  0.00    -0.070 C  
HETATM   20  C   UNL     1      -6.849   9.376  70.204  1.00  0.00    -0.071 C  
HETATM   21  C   UNL     1      -7.777   8.383  70.915  1.00  0.00    -0.088 C  
ENDBRANCH  15  16
ENDBRANCH  14  15
ENDBRANCH  12  14
ENDBRANCH   9  12
ENDBRANCH   5   6
ENDBRANCH   4   5
ENDBRANCH   3   4
ENDBRANCH   2   3
TORSDOF 8
ENDMDL
MODEL       87
REMARK 921   NORMALIZED FREE ENERGY PREDICTED BY IDOCK:   -4.33 KCAL/MOL
REMARK 922        TOTAL FREE ENERGY PREDICTED BY IDOCK:   -7.48 KCAL/MOL
REMARK 923 INTER-LIGAND FREE ENERGY PREDICTED BY IDOCK:   -6.65 KCAL/MOL
REMARK 924 INTRA-LIGAND FREE ENERGY PREDICTED BY IDOCK:   -0.83 KCAL/MOL
REMARK 927      BINDING AFFINITY PREDICTED BY RF-SCORE:    0.00 PKD
ROOT
HETATM    1  C   UNL     1      -7.467  10.194  63.990  1.00  0.00    -0.117 C  
HETATM    2  C   UNL     1      -8.968   9.957  63.990  1.00  0.00    -0.276 C  
ENDROOT
BRANCH   2   3
HETATM    3  C   UNL     1      -9.697  10.930  63.065  1.00  0.00    -0.380 C  
BRANCH   3   4
HETATM    4  C   UNL     1     -11.101  11.239  63.583  1.00  0.00    -0.215 C  
BRANCH   4   5
HETATM    5  O   UNL     1     -11.243  12.660  63.693  1.00  0.00    -0.430 OA 
BRANCH   5   6
HETATM    6  C   UNL     1     -11.452  13.127  64.965  1.00  0.00    -0.308 A  
HETATM    7  C   UNL     1     -11.827  14.434  65.281  1.00  0.00    -0.373 A  
HETATM    8  C   UNL     1     -12.012  14.804  66.620  1.00  0.00    -0.199 A  
HETATM    9  C   UNL     1     -11.805  13.877  67.646  1.00  0.00    -0.422 A  
HETATM   10  C   UNL     1     -11.313  12.184  65.987  1.00  0.00    -0.410 A  
HETATM   11  C   UNL     1     -11.477  12.556  67.326  1.00  0.00    -0.416 A  
BRANCH   9  12
HETATM   12  C   UNL     1     -11.899  14.349  69.064  1.00  0.00    -0.323 C  
HETATM   13  O   UNL     1     -12.355  13.580  69.913  1.00  0.00    -0.298 OA 
BRANCH  12  14
HETATM   14  C   UNL     1     -11.493  15.767  69.410  1.00  0.00    -0.357 C  
BRANCH  14  15
HETATM   15  C   UNL     1      -9.967  15.892  69.373  1.00  0.00    -0.274 C  
BRANCH  15  16
HETATM   16  N   UNL     1      -9.400  16.508  68.166  1.00  0.00    -0.214 NA 
HETATM   17  C   UNL     1     -10.166  17.711  67.789  1.00  0.00    -0.354 C  
HETATM   18  C   UNL     1      -9.841  18.935  68.650  1.00  0.00    -0.463 C  
HETATM   19  C   UNL     1      -8.362  19.270  68.534  1.00  0.00    -0.401 C  
HETATM   20  C   UNL     1      -7.519  18.057  68.915  1.00  0.00    -0.235 C  
HETATM   21  C   UNL     1      -7.958  16.782  68.185  1.00  0.00    -0.181 C  
ENDBRANCH  15  16
ENDBRANCH  14  15
ENDBRANCH  12  14
ENDBRANCH   9  12
ENDBRANCH   5   6
ENDBRANCH   4   5
ENDBRANCH   3   4
ENDBRANCH   2   3
TORSDOF 8
ENDMDL
MODEL       88
REMARK 921   NORMALIZED FREE ENERGY PREDICTED BY IDOCK:   -4.33 KCAL/MOL
REMARK 922        TOTAL FREE ENERGY PREDICTED BY IDOCK:   -7.47 KCAL/MOL
REMARK 923 INTER-LIGAND FREE ENERGY PREDICTED BY IDOCK:   -6.74 KCAL/MOL
REMARK 924 INTRA-LIGAND FREE ENERGY PREDICTED BY IDOCK:   -0.73 KCAL/MOL
REMARK 927      BINDING AFFINITY PREDICTED BY RF-SCORE:    0.00 PKD
ROOT
HETATM    1  C   UNL     1     -10.212   6.300  74.209  1.00  0.00    -0.351 C  
HETATM    2  C   UNL     1      -9.124   7.357  74.111  1.00  0.00    -0.267 C  
ENDROOT
BRANCH   2   3
HETATM    3  C   UNL     1      -9.338   8.283  72.915  1.00  0.00    -0.324 C  
BRANCH   3   4
HETATM    4  C   UNL     1     -10.817   8.368  72.538  1.00  0.00    -0.305 C  
BRANCH   4   5
HETATM    5  O   UNL     1     -10.947   8.087  71.140  1.00  0.00    -0.235 OA 
BRANCH   5   6
HETATM    6  C   UNL     1     -11.168   9.181  70.345  1.00  0.00    -0.240 A  
HETATM    7  C   UNL     1     -10.813   9.271  68.998  1.00  0.00    -0.136 A  
HETATM    8  C   UNL     1     -11.084  10.443  68.279  1.00  0.00    -0.338 A  
HETATM    9  C   UNL     1     -11.694  11.533  68.908  1.00  0.00    -0.403 A  
HETATM   10  C   UNL     1     -11.838  10.246  70.952  1.00  0.00    -0.473 A  
HETATM   11  C   UNL     1     -12.093  11.425  70.243  1.00  0.00    -0.459 A  
BRANCH   9  12
HETATM   12  C   UNL     1     -11.857  12.804  68.132  1.00  0.00    -0.324 C  
HETATM   13  O   UNL     1     -11.796  12.756  66.902  1.00  0.00    -0.376 OA 
BRANCH  12  14
HETATM   14  C   UNL     1     -12.031  14.116  68.871  1.00  0.00    -0.376 C  
BRANCH  14  15
HETATM   15  C   UNL     1     -10.794  14.995  68.663  1.00  0.00    -0.249 C  
BRANCH  15  16
HETATM   16  N   UNL     1     -10.977  16.165  67.794  1.00  0.00    -0.319 NA 
HETATM   17  C   UNL     1     -10.392  17.369  68.415  1.00  0.00    -0.379 C  
HETATM   18  C   UNL     1      -8.866  17.435  68.300  1.00  0.00    -0.264 C  
HETATM   19  C   UNL     1      -8.458  17.422  66.835  1.00  0.00    -0.264 C  
HETATM   20  C   UNL     1      -9.035  16.193  66.141  1.00  0.00    -0.372 C  
HETATM   21  C   UNL     1     -10.536  16.021  66.400  1.00  0.00    -0.284 C  
ENDBRANCH  15  16
ENDBRANCH  14  15
ENDBRANCH  12  14
ENDBRANCH   9  12
ENDBRANCH   5   6
ENDBRANCH   4   5
ENDBRANCH   3   4
ENDBRANCH   2   3
TORSDOF 8
ENDMDL
MODEL       89
REMARK 921   NORMALIZED FREE ENERGY PREDICTED BY IDOCK:   -4.33 KCAL/MOL
REMARK 922        TOTAL FREE ENERGY PREDICTED BY IDOCK:   -7.47 KCAL/MOL
REMARK 923 INTER-LIGAND FREE ENERGY PREDICTED BY IDOCK:   -6.80 KCAL/MOL
REMARK 924 INTRA-LIGAND FREE ENERGY PREDICTED BY IDOCK:   -0.67 KCAL/MOL
REMARK 927      BINDING AFFINITY PREDICTED BY RF-SCORE:    0.00 PKD
ROOT
HETATM    1  C   UNL     1     -10.379   5.379  72.086  1.00  0.00    -0.265 C  
HETATM    2  C   UNL     1     -11.659   6.189  72.211  1.00  0.00    -0.362 C  
ENDROOT
BRANCH   2   3
HETATM    3  C   UNL     1     -11.372   7.660  72.508  1.00  0.00    -0.409 C  
BRANCH   3   4
HETATM    4  C   UNL     1     -11.949   8.566  71.421  1.00  0.00    -0.300 C  
BRANCH   4   5
HETATM    5  O   UNL     1     -11.250   9.815  71.451  1.00  0.00    -0.366 OA 
BRANCH   5   6
HETATM    6  C   UNL     1     -11.414  10.600  70.339  1.00  0.00    -0.334 A  
HETATM    7  C   UNL     1     -11.990  11.872  70.341  1.00  0.00    -0.400 A  
HETATM    8  C   UNL     1     -12.111  12.587  69.142  1.00  0.00    -0.187 A  
HETATM    9  C   UNL     1     -11.674  12.028  67.938  1.00  0.00    -0.393 A  
HETATM   10  C   UNL     1     -10.916  10.073  69.145  1.00  0.00    -0.256 A  
HETATM   11  C   UNL     1     -11.053  10.776  67.943  1.00  0.00    -0.369 A  
BRANCH   9  12
HETATM   12  C   UNL     1     -11.930  12.780  66.668  1.00  0.00    -0.341 C  
HETATM   13  O   UNL     1     -11.921  12.160  65.603  1.00  0.00    -0.503 OA 
BRANCH  12  14
HETATM   14  C   UNL     1     -12.135  14.281  66.714  1.00  0.00    -0.446 C  
BRANCH  14  15
HETATM   15  C   UNL     1     -10.782  14.983  66.865  1.00  0.00    -0.308 C  
BRANCH  15  16
HETATM   16  N   UNL     1     -10.723  16.058  67.866  1.00  0.00    -0.307 NA 
HETATM   17  C   UNL     1      -9.842  15.676  68.986  1.00  0.00    -0.236 C  
HETATM   18  C   UNL     1      -8.351  15.804  68.660  1.00  0.00    -0.183 C  
HETATM   19  C   UNL     1      -8.026  17.240  68.282  1.00  0.00    -0.244 C  
HETATM   20  C   UNL     1      -8.910  17.689  67.122  1.00  0.00    -0.251 C  
HETATM   21  C   UNL     1     -10.396  17.400  67.367  1.00  0.00    -0.343 C  
ENDBRANCH  15  16
ENDBRANCH  14  15
ENDBRANCH  12  14
ENDBRANCH   9  12
ENDBRANCH   5   6
ENDBRANCH   4   5
ENDBRANCH   3   4
ENDBRANCH   2   3
TORSDOF 8
ENDMDL
MODEL       90
REMARK 921   NORMALIZED FREE ENERGY PREDICTED BY IDOCK:   -4.33 KCAL/MOL
REMARK 922        TOTAL FREE ENERGY PREDICTED BY IDOCK:   -7.47 KCAL/MOL
REMARK 923 INTER-LIGAND FREE ENERGY PREDICTED BY IDOCK:   -6.46 KCAL/MOL
REMARK 924 INTRA-LIGAND FREE ENERGY PREDICTED BY IDOCK:   -1.01 KCAL/MOL
REMARK 927      BINDING AFFINITY PREDICTED BY RF-SCORE:    0.00 PKD
ROOT
HETATM    1  C   UNL     1      -6.516  15.371  69.433  1.00  0.00    -0.148 C  
HETATM    2  C   UNL     1      -6.794  16.469  68.419  1.00  0.00    -0.145 C  
ENDROOT
BRANCH   2   3
HETATM    3  C   UNL     1      -8.107  17.193  68.711  1.00  0.00    -0.252 C  
BRANCH   3   4
HETATM    4  C   UNL     1      -8.616  17.935  67.476  1.00  0.00    -0.239 C  
BRANCH   4   5
HETATM    5  O   UNL     1     -10.041  17.808  67.424  1.00  0.00    -0.311 OA 
BRANCH   5   6
HETATM    6  C   UNL     1     -10.502  16.564  67.080  1.00  0.00    -0.289 A  
HETATM    7  C   UNL     1     -11.353  15.785  67.865  1.00  0.00    -0.277 A  
HETATM    8  C   UNL     1     -11.761  14.523  67.414  1.00  0.00    -0.425 A  
HETATM    9  C   UNL     1     -11.307  14.028  66.188  1.00  0.00    -0.322 A  
HETATM   10  C   UNL     1     -10.106  16.097  65.824  1.00  0.00    -0.390 A  
HETATM   11  C   UNL     1     -10.495  14.829  65.379  1.00  0.00    -0.401 A  
BRANCH   9  12
HETATM   12  C   UNL     1     -11.675  12.629  65.803  1.00  0.00    -0.419 C  
HETATM   13  O   UNL     1     -12.785  12.426  65.305  1.00  0.00    -0.617 OA 
BRANCH  12  14
HETATM   14  C   UNL     1     -10.709  11.495  66.085  1.00  0.00    -0.324 C  
BRANCH  14  15
HETATM   15  C   UNL     1     -11.129  10.764  67.364  1.00  0.00    -0.296 C  
BRANCH  15  16
HETATM   16  N   UNL     1     -10.526  11.252  68.611  1.00  0.00    -0.196 NA 
HETATM   17  C   UNL     1     -11.541  11.340  69.679  1.00  0.00    -0.330 C  
HETATM   18  C   UNL     1     -11.893   9.984  70.298  1.00  0.00    -0.291 C  
HETATM   19  C   UNL     1     -10.646   9.349  70.893  1.00  0.00    -0.390 C  
HETATM   20  C   UNL     1      -9.560   9.231  69.829  1.00  0.00    -0.203 C  
HETATM   21  C   UNL     1      -9.325  10.547  69.078  1.00  0.00    -0.196 C  
ENDBRANCH  15  16
ENDBRANCH  14  15
ENDBRANCH  12  14
ENDBRANCH   9  12
ENDBRANCH   5   6
ENDBRANCH   4   5
ENDBRANCH   3   4
ENDBRANCH   2   3
TORSDOF 8
ENDMDL
MODEL       91
REMARK 921   NORMALIZED FREE ENERGY PREDICTED BY IDOCK:   -4.32 KCAL/MOL
REMARK 922        TOTAL FREE ENERGY PREDICTED BY IDOCK:   -7.46 KCAL/MOL
REMARK 923 INTER-LIGAND FREE ENERGY PREDICTED BY IDOCK:   -6.85 KCAL/MOL
REMARK 924 INTRA-LIGAND FREE ENERGY PREDICTED BY IDOCK:   -0.61 KCAL/MOL
REMARK 927      BINDING AFFINITY PREDICTED BY RF-SCORE:    0.00 PKD
ROOT
HETATM    1  C   UNL     1      -9.621  19.649  66.451  1.00  0.00    -0.490 C  
HETATM    2  C   UNL     1     -10.680  18.893  67.236  1.00  0.00    -0.523 C  
ENDROOT
BRANCH   2   3
HETATM    3  C   UNL     1     -10.067  17.798  68.106  1.00  0.00    -0.362 C  
BRANCH   3   4
HETATM    4  C   UNL     1     -11.138  16.838  68.624  1.00  0.00    -0.247 C  
BRANCH   4   5
HETATM    5  O   UNL     1     -10.966  15.573  67.977  1.00  0.00    -0.289 OA 
BRANCH   5   6
HETATM    6  C   UNL     1     -11.356  14.485  68.715  1.00  0.00    -0.274 A  
HETATM    7  C   UNL     1     -11.860  14.544  70.015  1.00  0.00    -0.372 A  
HETATM    8  C   UNL     1     -12.226  13.365  70.678  1.00  0.00    -0.427 A  
HETATM    9  C   UNL     1     -12.074  12.124  70.051  1.00  0.00    -0.352 A  
HETATM   10  C   UNL     1     -11.270  13.250  68.066  1.00  0.00    -0.307 A  
HETATM   11  C   UNL     1     -11.616  12.069  68.731  1.00  0.00    -0.366 A  
BRANCH   9  12
HETATM   12  C   UNL     1     -12.367  10.885  70.840  1.00  0.00    -0.400 C  
HETATM   13  O   UNL     1     -13.092  10.977  71.833  1.00  0.00    -0.486 OA 
BRANCH  12  14
HETATM   14  C   UNL     1     -11.725   9.572  70.440  1.00  0.00    -0.227 C  
BRANCH  14  15
HETATM   15  C   UNL     1     -10.422   9.374  71.220  1.00  0.00    -0.315 C  
BRANCH  15  16
HETATM   16  N   UNL     1      -9.858   8.018  71.196  1.00  0.00    -0.165 NA 
HETATM   17  C   UNL     1      -8.694   7.923  72.097  1.00  0.00    -0.142 C  
HETATM   18  C   UNL     1      -9.075   7.813  73.576  1.00  0.00    -0.342 C  
HETATM   19  C   UNL     1      -9.935   6.579  73.797  1.00  0.00    -0.274 C  
HETATM   20  C   UNL     1     -11.160   6.623  72.889  1.00  0.00    -0.263 C  
HETATM   21  C   UNL     1     -10.798   6.913  71.427  1.00  0.00    -0.228 C  
ENDBRANCH  15  16
ENDBRANCH  14  15
ENDBRANCH  12  14
ENDBRANCH   9  12
ENDBRANCH   5   6
ENDBRANCH   4   5
ENDBRANCH   3   4
ENDBRANCH   2   3
TORSDOF 8
ENDMDL
MODEL       92
REMARK 921   NORMALIZED FREE ENERGY PREDICTED BY IDOCK:   -4.30 KCAL/MOL
REMARK 922        TOTAL FREE ENERGY PREDICTED BY IDOCK:   -7.44 KCAL/MOL
REMARK 923 INTER-LIGAND FREE ENERGY PREDICTED BY IDOCK:   -6.73 KCAL/MOL
REMARK 924 INTRA-LIGAND FREE ENERGY PREDICTED BY IDOCK:   -0.70 KCAL/MOL
REMARK 927      BINDING AFFINITY PREDICTED BY RF-SCORE:    0.00 PKD
ROOT
HETATM    1  C   UNL     1     -14.361   7.556  71.573  1.00  0.00    -0.603 C  
HETATM    2  C   UNL     1     -12.857   7.697  71.406  1.00  0.00    -0.354 C  
ENDROOT
BRANCH   2   3
HETATM    3  C   UNL     1     -12.338   9.000  72.010  1.00  0.00    -0.455 C  
BRANCH   3   4
HETATM    4  C   UNL     1     -10.961   9.359  71.454  1.00  0.00    -0.373 C  
BRANCH   4   5
HETATM    5  O   UNL     1     -10.940   9.048  70.057  1.00  0.00    -0.235 OA 
BRANCH   5   6
HETATM    6  C   UNL     1     -10.646  10.102  69.231  1.00  0.00    -0.230 A  
HETATM    7  C   UNL     1      -9.356  10.532  68.917  1.00  0.00    -0.192 A  
HETATM    8  C   UNL     1      -9.172  11.626  68.061  1.00  0.00    -0.178 A  
HETATM    9  C   UNL     1     -10.274  12.303  67.531  1.00  0.00    -0.212 A  
HETATM   10  C   UNL     1     -11.744  10.737  68.645  1.00  0.00    -0.289 A  
HETATM   11  C   UNL     1     -11.565  11.842  67.806  1.00  0.00    -0.374 A  
BRANCH   9  12
HETATM   12  C   UNL     1     -10.030  13.536  66.716  1.00  0.00    -0.269 C  
HETATM   13  O   UNL     1     -10.510  13.599  65.583  1.00  0.00    -0.284 OA 
BRANCH  12  14
HETATM   14  C   UNL     1      -9.157  14.642  67.275  1.00  0.00    -0.215 C  
BRANCH  14  15
HETATM   15  C   UNL     1      -9.280  15.891  66.398  1.00  0.00    -0.309 C  
BRANCH  15  16
HETATM   16  N   UNL     1     -10.498  16.692  66.586  1.00  0.00    -0.287 NA 
HETATM   17  C   UNL     1     -10.699  17.002  68.015  1.00  0.00    -0.365 C  
HETATM   18  C   UNL     1      -9.797  18.128  68.528  1.00  0.00    -0.393 C  
HETATM   19  C   UNL     1     -10.056  19.399  67.735  1.00  0.00    -0.508 C  
HETATM   20  C   UNL     1      -9.860  19.137  66.245  1.00  0.00    -0.437 C  
HETATM   21  C   UNL     1     -10.623  17.899  65.759  1.00  0.00    -0.174 C  
ENDBRANCH  15  16
ENDBRANCH  14  15
ENDBRANCH  12  14
ENDBRANCH   9  12
ENDBRANCH   5   6
ENDBRANCH   4   5
ENDBRANCH   3   4
ENDBRANCH   2   3
TORSDOF 8
ENDMDL
MODEL       93
REMARK 921   NORMALIZED FREE ENERGY PREDICTED BY IDOCK:   -4.30 KCAL/MOL
REMARK 922        TOTAL FREE ENERGY PREDICTED BY IDOCK:   -7.44 KCAL/MOL
REMARK 923 INTER-LIGAND FREE ENERGY PREDICTED BY IDOCK:   -6.64 KCAL/MOL
REMARK 924 INTRA-LIGAND FREE ENERGY PREDICTED BY IDOCK:   -0.79 KCAL/MOL
REMARK 927      BINDING AFFINITY PREDICTED BY RF-SCORE:    0.00 PKD
ROOT
HETATM    1  C   UNL     1     -12.166   6.651  71.448  1.00  0.00    -0.378 C  
HETATM    2  C   UNL     1     -13.529   7.320  71.527  1.00  0.00    -0.439 C  
ENDROOT
BRANCH   2   3
HETATM    3  C   UNL     1     -13.440   8.720  72.132  1.00  0.00    -0.469 C  
BRANCH   3   4
HETATM    4  C   UNL     1     -12.427   9.584  71.382  1.00  0.00    -0.362 C  
BRANCH   4   5
HETATM    5  O   UNL     1     -12.616  10.949  71.772  1.00  0.00    -0.353 OA 
BRANCH   5   6
HETATM    6  C   UNL     1     -12.407  11.872  70.780  1.00  0.00    -0.320 A  
HETATM    7  C   UNL     1     -12.513  13.253  70.944  1.00  0.00    -0.424 A  
HETATM    8  C   UNL     1     -12.280  14.107  69.856  1.00  0.00    -0.416 A  
HETATM    9  C   UNL     1     -11.959  13.581  68.601  1.00  0.00    -0.378 A  
HETATM   10  C   UNL     1     -12.019  11.353  69.542  1.00  0.00    -0.409 A  
HETATM   11  C   UNL     1     -11.806  12.200  68.449  1.00  0.00    -0.360 A  
BRANCH   9  12
HETATM   12  C   UNL     1     -11.835  14.525  67.444  1.00  0.00    -0.388 C  
HETATM   13  O   UNL     1     -12.288  14.180  66.350  1.00  0.00    -0.460 OA 
BRANCH  12  14
HETATM   14  C   UNL     1     -11.111  15.843  67.627  1.00  0.00    -0.266 C  
BRANCH  14  15
HETATM   15  C   UNL     1      -9.634  15.678  67.254  1.00  0.00    -0.217 C  
BRANCH  15  16
HETATM   16  N   UNL     1      -8.677  15.763  68.365  1.00  0.00    -0.172 NA 
HETATM   17  C   UNL     1      -8.172  14.423  68.719  1.00  0.00    -0.126 C  
HETATM   18  C   UNL     1      -7.108  13.897  67.752  1.00  0.00    -0.181 C  
HETATM   19  C   UNL     1      -5.922  14.847  67.723  1.00  0.00    -0.131 C  
HETATM   20  C   UNL     1      -6.386  16.254  67.358  1.00  0.00    -0.206 C  
HETATM   21  C   UNL     1      -7.574  16.721  68.208  1.00  0.00    -0.188 C  
ENDBRANCH  15  16
ENDBRANCH  14  15
ENDBRANCH  12  14
ENDBRANCH   9  12
ENDBRANCH   5   6
ENDBRANCH   4   5
ENDBRANCH   3   4
ENDBRANCH   2   3
TORSDOF 8
ENDMDL
MODEL       94
REMARK 921   NORMALIZED FREE ENERGY PREDICTED BY IDOCK:   -4.30 KCAL/MOL
REMARK 922        TOTAL FREE ENERGY PREDICTED BY IDOCK:   -7.43 KCAL/MOL
REMARK 923 INTER-LIGAND FREE ENERGY PREDICTED BY IDOCK:   -6.78 KCAL/MOL
REMARK 924 INTRA-LIGAND FREE ENERGY PREDICTED BY IDOCK:   -0.64 KCAL/MOL
REMARK 927      BINDING AFFINITY PREDICTED BY RF-SCORE:    0.00 PKD
ROOT
HETATM    1  C   UNL     1      -8.530   4.187  66.407  1.00  0.00    -0.108 C  
HETATM    2  C   UNL     1      -8.998   5.589  66.050  1.00  0.00    -0.154 C  
ENDROOT
BRANCH   2   3
HETATM    3  C   UNL     1     -10.333   5.926  66.711  1.00  0.00    -0.302 C  
BRANCH   3   4
HETATM    4  C   UNL     1     -10.317   7.334  67.303  1.00  0.00    -0.279 C  
BRANCH   4   5
HETATM    5  O   UNL     1      -9.948   8.258  66.273  1.00  0.00    -0.224 OA 
BRANCH   5   6
HETATM    6  C   UNL     1     -10.367   9.548  66.471  1.00  0.00    -0.193 A  
HETATM    7  C   UNL     1     -10.437  10.524  65.475  1.00  0.00    -0.220 A  
HETATM    8  C   UNL     1     -10.879  11.815  65.791  1.00  0.00    -0.341 A  
HETATM    9  C   UNL     1     -11.234  12.140  67.104  1.00  0.00    -0.372 A  
HETATM   10  C   UNL     1     -10.788   9.856  67.767  1.00  0.00    -0.321 A  
HETATM   11  C   UNL     1     -11.211  11.150  68.091  1.00  0.00    -0.356 A  
BRANCH   9  12
HETATM   12  C   UNL     1     -11.587  13.562  67.416  1.00  0.00    -0.356 C  
HETATM   13  O   UNL     1     -12.487  14.102  66.771  1.00  0.00    -0.396 OA 
BRANCH  12  14
HETATM   14  C   UNL     1     -10.797  14.316  68.467  1.00  0.00    -0.264 C  
BRANCH  14  15
HETATM   15  C   UNL     1     -11.756  14.939  69.487  1.00  0.00    -0.320 C  
BRANCH  15  16
HETATM   16  N   UNL     1     -11.907  14.212  70.755  1.00  0.00    -0.282 NA 
HETATM   17  C   UNL     1     -11.317  14.981  71.867  1.00  0.00    -0.201 C  
HETATM   18  C   UNL     1     -12.199  16.138  72.345  1.00  0.00    -0.592 C  
HETATM   19  C   UNL     1     -13.543  15.603  72.812  1.00  0.00    -0.678 C  
HETATM   20  C   UNL     1     -14.203  14.798  71.697  1.00  0.00    -0.618 C  
HETATM   21  C   UNL     1     -13.261  13.752  71.089  1.00  0.00    -0.207 C  
ENDBRANCH  15  16
ENDBRANCH  14  15
ENDBRANCH  12  14
ENDBRANCH   9  12
ENDBRANCH   5   6
ENDBRANCH   4   5
ENDBRANCH   3   4
ENDBRANCH   2   3
TORSDOF 8
ENDMDL
MODEL       95
REMARK 921   NORMALIZED FREE ENERGY PREDICTED BY IDOCK:   -4.29 KCAL/MOL
REMARK 922        TOTAL FREE ENERGY PREDICTED BY IDOCK:   -7.42 KCAL/MOL
REMARK 923 INTER-LIGAND FREE ENERGY PREDICTED BY IDOCK:   -6.23 KCAL/MOL
REMARK 924 INTRA-LIGAND FREE ENERGY PREDICTED BY IDOCK:   -1.19 KCAL/MOL
REMARK 927      BINDING AFFINITY PREDICTED BY RF-SCORE:    0.00 PKD
ROOT
HETATM    1  C   UNL     1     -10.603  19.770  67.430  1.00  0.00    -0.553 C  
HETATM    2  C   UNL     1      -9.218  20.276  67.057  1.00  0.00    -0.503 C  
ENDROOT
BRANCH   2   3
HETATM    3  C   UNL     1      -8.415  19.223  66.295  1.00  0.00    -0.328 C  
BRANCH   3   4
HETATM    4  C   UNL     1      -7.213  18.749  67.109  1.00  0.00    -0.209 C  
BRANCH   4   5
HETATM    5  O   UNL     1      -7.691  18.093  68.289  1.00  0.00    -0.264 OA 
BRANCH   5   6
HETATM    6  C   UNL     1      -7.888  16.742  68.164  1.00  0.00    -0.182 A  
HETATM    7  C   UNL     1      -7.138  15.902  67.339  1.00  0.00    -0.230 A  
HETATM    8  C   UNL     1      -7.429  14.532  67.287  1.00  0.00    -0.126 A  
HETATM    9  C   UNL     1      -8.478  14.002  68.045  1.00  0.00    -0.171 A  
HETATM   10  C   UNL     1      -8.890  16.199  68.972  1.00  0.00    -0.251 A  
HETATM   11  C   UNL     1      -9.196  14.835  68.908  1.00  0.00    -0.177 A  
BRANCH   9  12
HETATM   12  C   UNL     1      -8.825  12.555  67.868  1.00  0.00    -0.185 C  
HETATM   13  O   UNL     1      -7.913  11.748  67.681  1.00  0.00    -0.127 OA 
BRANCH  12  14
HETATM   14  C   UNL     1     -10.280  12.130  67.862  1.00  0.00    -0.203 C  
BRANCH  14  15
HETATM   15  C   UNL     1     -10.708  11.769  66.437  1.00  0.00    -0.266 C  
BRANCH  15  16
HETATM   16  N   UNL     1     -12.056  12.202  66.042  1.00  0.00    -0.586 NA 
HETATM   17  C   UNL     1     -12.401  13.481  66.690  1.00  0.00    -0.297 C  
HETATM   18  C   UNL     1     -11.742  14.696  66.031  1.00  0.00    -0.306 C  
HETATM   19  C   UNL     1     -12.164  14.785  64.573  1.00  0.00    -0.443 C  
HETATM   20  C   UNL     1     -11.828  13.485  63.850  1.00  0.00    -0.460 C  
HETATM   21  C   UNL     1     -12.332  12.246  64.600  1.00  0.00    -0.369 C  
ENDBRANCH  15  16
ENDBRANCH  14  15
ENDBRANCH  12  14
ENDBRANCH   9  12
ENDBRANCH   5   6
ENDBRANCH   4   5
ENDBRANCH   3   4
ENDBRANCH   2   3
TORSDOF 8
ENDMDL
MODEL       96
REMARK 921   NORMALIZED FREE ENERGY PREDICTED BY IDOCK:   -4.28 KCAL/MOL
REMARK 922        TOTAL FREE ENERGY PREDICTED BY IDOCK:   -7.41 KCAL/MOL
REMARK 923 INTER-LIGAND FREE ENERGY PREDICTED BY IDOCK:   -6.65 KCAL/MOL
REMARK 924 INTRA-LIGAND FREE ENERGY PREDICTED BY IDOCK:   -0.76 KCAL/MOL
REMARK 927      BINDING AFFINITY PREDICTED BY RF-SCORE:    0.00 PKD
ROOT
HETATM    1  C   UNL     1     -10.145  19.993  68.600  1.00  0.00    -0.465 C  
HETATM    2  C   UNL     1      -9.104  20.010  67.492  1.00  0.00    -0.457 C  
ENDROOT
BRANCH   2   3
HETATM    3  C   UNL     1      -9.748  20.042  66.108  1.00  0.00    -0.517 C  
BRANCH   3   4
HETATM    4  C   UNL     1     -10.639  18.822  65.883  1.00  0.00    -0.352 C  
BRANCH   4   5
HETATM    5  O   UNL     1      -9.821  17.647  65.929  1.00  0.00    -0.516 OA 
BRANCH   5   6
HETATM    6  C   UNL     1     -10.336  16.608  66.660  1.00  0.00    -0.296 A  
HETATM    7  C   UNL     1     -10.507  16.617  68.045  1.00  0.00    -0.320 A  
HETATM    8  C   UNL     1     -11.043  15.495  68.691  1.00  0.00    -0.297 A  
HETATM    9  C   UNL     1     -11.391  14.356  67.959  1.00  0.00    -0.316 A  
HETATM   10  C   UNL     1     -10.750  15.495  65.923  1.00  0.00    -0.346 A  
HETATM   11  C   UNL     1     -11.266  14.365  66.567  1.00  0.00    -0.340 A  
BRANCH   9  12
HETATM   12  C   UNL     1     -11.849  13.141  68.705  1.00  0.00    -0.324 C  
HETATM   13  O   UNL     1     -12.333  13.286  69.830  1.00  0.00    -0.240 OA 
BRANCH  12  14
HETATM   14  C   UNL     1     -11.653  11.768  68.093  1.00  0.00    -0.391 C  
BRANCH  14  15
HETATM   15  C   UNL     1     -11.294  10.760  69.189  1.00  0.00    -0.282 C  
BRANCH  15  16
HETATM   16  N   UNL     1      -9.954  10.164  69.100  1.00  0.00    -0.198 NA 
HETATM   17  C   UNL     1      -9.923   8.851  69.772  1.00  0.00    -0.191 C  
HETATM   18  C   UNL     1     -10.553   7.727  68.945  1.00  0.00    -0.168 C  
HETATM   19  C   UNL     1      -9.820   7.587  67.621  1.00  0.00    -0.203 C  
HETATM   20  C   UNL     1      -9.822   8.919  66.878  1.00  0.00    -0.288 C  
HETATM   21  C   UNL     1      -9.359  10.086  67.759  1.00  0.00    -0.140 C  
ENDBRANCH  15  16
ENDBRANCH  14  15
ENDBRANCH  12  14
ENDBRANCH   9  12
ENDBRANCH   5   6
ENDBRANCH   4   5
ENDBRANCH   3   4
ENDBRANCH   2   3
TORSDOF 8
ENDMDL
MODEL       97
REMARK 921   NORMALIZED FREE ENERGY PREDICTED BY IDOCK:   -4.28 KCAL/MOL
REMARK 922        TOTAL FREE ENERGY PREDICTED BY IDOCK:   -7.40 KCAL/MOL
REMARK 923 INTER-LIGAND FREE ENERGY PREDICTED BY IDOCK:   -6.52 KCAL/MOL
REMARK 924 INTRA-LIGAND FREE ENERGY PREDICTED BY IDOCK:   -0.88 KCAL/MOL
REMARK 927      BINDING AFFINITY PREDICTED BY RF-SCORE:    0.00 PKD
ROOT
HETATM    1  C   UNL     1     -12.084  13.153  64.153  1.00  0.00    -0.496 C  
HETATM    2  C   UNL     1     -12.679  13.834  65.375  1.00  0.00    -0.513 C  
ENDROOT
BRANCH   2   3
HETATM    3  C   UNL     1     -11.765  13.715  66.593  1.00  0.00    -0.420 C  
BRANCH   3   4
HETATM    4  C   UNL     1     -11.291  12.276  66.790  1.00  0.00    -0.339 C  
BRANCH   4   5
HETATM    5  O   UNL     1     -10.496  12.217  67.980  1.00  0.00    -0.206 OA 
BRANCH   5   6
HETATM    6  C   UNL     1     -10.989  11.408  68.970  1.00  0.00    -0.236 A  
HETATM    7  C   UNL     1     -12.229  11.572  69.589  1.00  0.00    -0.296 A  
HETATM    8  C   UNL     1     -12.632  10.684  70.595  1.00  0.00    -0.454 A  
HETATM    9  C   UNL     1     -11.791   9.641  70.997  1.00  0.00    -0.428 A  
HETATM   10  C   UNL     1     -10.180  10.324  69.325  1.00  0.00    -0.244 A  
HETATM   11  C   UNL     1     -10.571   9.447  70.343  1.00  0.00    -0.316 A  
BRANCH   9  12
HETATM   12  C   UNL     1     -12.214   8.790  72.154  1.00  0.00    -0.378 C  
HETATM   13  O   UNL     1     -13.341   8.952  72.625  1.00  0.00    -0.433 OA 
BRANCH  12  14
HETATM   14  C   UNL     1     -11.236   7.799  72.752  1.00  0.00    -0.456 C  
BRANCH  14  15
HETATM   15  C   UNL     1     -11.479   6.408  72.158  1.00  0.00    -0.301 C  
BRANCH  15  16
HETATM   16  N   UNL     1     -10.303   5.532  72.068  1.00  0.00    -0.206 NA 
HETATM   17  C   UNL     1     -10.283   4.822  70.775  1.00  0.00    -0.176 C  
HETATM   18  C   UNL     1      -9.811   5.693  69.607  1.00  0.00    -0.243 C  
HETATM   19  C   UNL     1      -8.404   6.202  69.879  1.00  0.00    -0.128 C  
HETATM   20  C   UNL     1      -8.365   6.950  71.208  1.00  0.00    -0.119 C  
HETATM   21  C   UNL     1      -9.002   6.152  72.352  1.00  0.00    -0.136 C  
ENDBRANCH  15  16
ENDBRANCH  14  15
ENDBRANCH  12  14
ENDBRANCH   9  12
ENDBRANCH   5   6
ENDBRANCH   4   5
ENDBRANCH   3   4
ENDBRANCH   2   3
TORSDOF 8
ENDMDL
MODEL       98
REMARK 921   NORMALIZED FREE ENERGY PREDICTED BY IDOCK:   -4.28 KCAL/MOL
REMARK 922        TOTAL FREE ENERGY PREDICTED BY IDOCK:   -7.40 KCAL/MOL
REMARK 923 INTER-LIGAND FREE ENERGY PREDICTED BY IDOCK:   -6.47 KCAL/MOL
REMARK 924 INTRA-LIGAND FREE ENERGY PREDICTED BY IDOCK:   -0.93 KCAL/MOL
REMARK 927      BINDING AFFINITY PREDICTED BY RF-SCORE:    0.00 PKD
ROOT
HETATM    1  C   UNL     1      -6.891   8.299  66.848  1.00  0.00    -0.069 C  
HETATM    2  C   UNL     1      -7.806   7.807  67.958  1.00  0.00    -0.124 C  
ENDROOT
BRANCH   2   3
HETATM    3  C   UNL     1      -9.021   7.065  67.404  1.00  0.00    -0.117 C  
BRANCH   3   4
HETATM    4  C   UNL     1     -10.313   7.829  67.689  1.00  0.00    -0.239 C  
BRANCH   4   5
HETATM    5  O   UNL     1      -9.973   9.147  68.134  1.00  0.00    -0.163 OA 
BRANCH   5   6
HETATM    6  C   UNL     1     -10.482  10.167  67.373  1.00  0.00    -0.256 A  
HETATM    7  C   UNL     1     -10.350  10.269  65.987  1.00  0.00    -0.248 A  
HETATM    8  C   UNL     1     -10.909  11.360  65.309  1.00  0.00    -0.297 A  
HETATM    9  C   UNL     1     -11.585  12.360  66.014  1.00  0.00    -0.455 A  
HETATM   10  C   UNL     1     -11.217  11.132  68.067  1.00  0.00    -0.359 A  
HETATM   11  C   UNL     1     -11.760  12.233  67.395  1.00  0.00    -0.405 A  
BRANCH   9  12
HETATM   12  C   UNL     1     -12.063  13.564  65.262  1.00  0.00    -0.411 C  
HETATM   13  O   UNL     1     -13.273  13.797  65.230  1.00  0.00    -0.755 OA 
BRANCH  12  14
HETATM   14  C   UNL     1     -11.065  14.426  64.516  1.00  0.00    -0.301 C  
BRANCH  14  15
HETATM   15  C   UNL     1     -10.768  15.692  65.325  1.00  0.00    -0.425 C  
BRANCH  15  16
HETATM   16  N   UNL     1     -10.078  15.489  66.607  1.00  0.00    -0.259 NA 
HETATM   17  C   UNL     1      -8.670  15.919  66.512  1.00  0.00    -0.315 C  
HETATM   18  C   UNL     1      -8.490  17.438  66.577  1.00  0.00    -0.298 C  
HETATM   19  C   UNL     1      -9.050  17.968  67.887  1.00  0.00    -0.269 C  
HETATM   20  C   UNL     1     -10.511  17.554  68.038  1.00  0.00    -0.387 C  
HETATM   21  C   UNL     1     -10.726  16.056  67.797  1.00  0.00    -0.323 C  
ENDBRANCH  15  16
ENDBRANCH  14  15
ENDBRANCH  12  14
ENDBRANCH   9  12
ENDBRANCH   5   6
ENDBRANCH   4   5
ENDBRANCH   3   4
ENDBRANCH   2   3
TORSDOF 8
ENDMDL
MODEL       99
REMARK 921   NORMALIZED FREE ENERGY PREDICTED BY IDOCK:   -4.26 KCAL/MOL
REMARK 922        TOTAL FREE ENERGY PREDICTED BY IDOCK:   -7.38 KCAL/MOL
REMARK 923 INTER-LIGAND FREE ENERGY PREDICTED BY IDOCK:   -6.47 KCAL/MOL
REMARK 924 INTRA-LIGAND FREE ENERGY PREDICTED BY IDOCK:   -0.91 KCAL/MOL
REMARK 927      BINDING AFFINITY PREDICTED BY RF-SCORE:    0.00 PKD
ROOT
HETATM    1  C   UNL     1     -10.866   6.854  66.961  1.00  0.00    -0.436 C  
HETATM    2  C   UNL     1      -9.427   7.341  66.929  1.00  0.00    -0.208 C  
ENDROOT
BRANCH   2   3
HETATM    3  C   UNL     1      -9.315   8.809  67.339  1.00  0.00    -0.166 C  
BRANCH   3   4
HETATM    4  C   UNL     1      -9.341   9.727  66.118  1.00  0.00    -0.191 C  
BRANCH   4   5
HETATM    5  O   UNL     1     -10.620  10.367  66.057  1.00  0.00    -0.172 OA 
BRANCH   5   6
HETATM    6  C   UNL     1     -10.749  11.485  66.841  1.00  0.00    -0.263 A  
HETATM    7  C   UNL     1     -11.659  11.620  67.890  1.00  0.00    -0.369 A  
HETATM    8  C   UNL     1     -11.706  12.812  68.625  1.00  0.00    -0.360 A  
HETATM    9  C   UNL     1     -10.858  13.876  68.304  1.00  0.00    -0.263 A  
HETATM   10  C   UNL     1      -9.855  12.523  66.566  1.00  0.00    -0.251 A  
HETATM   11  C   UNL     1      -9.913  13.722  67.285  1.00  0.00    -0.239 A  
BRANCH   9  12
HETATM   12  C   UNL     1     -11.026  15.169  69.041  1.00  0.00    -0.244 C  
HETATM   13  O   UNL     1     -12.125  15.429  69.534  1.00  0.00    -0.333 OA 
BRANCH  12  14
HETATM   14  C   UNL     1      -9.870  16.147  69.111  1.00  0.00    -0.250 C  
BRANCH  14  15
HETATM   15  C   UNL     1     -10.374  17.565  68.827  1.00  0.00    -0.358 C  
BRANCH  15  16
HETATM   16  N   UNL     1     -10.541  17.916  67.410  1.00  0.00    -0.383 NA 
HETATM   17  C   UNL     1     -10.875  19.346  67.265  1.00  0.00    -0.448 C  
HETATM   18  C   UNL     1      -9.667  20.274  67.425  1.00  0.00    -0.584 C  
HETATM   19  C   UNL     1      -8.615  19.936  66.381  1.00  0.00    -0.386 C  
HETATM   20  C   UNL     1      -8.228  18.464  66.486  1.00  0.00    -0.289 C  
HETATM   21  C   UNL     1      -9.447  17.534  66.507  1.00  0.00    -0.272 C  
ENDBRANCH  15  16
ENDBRANCH  14  15
ENDBRANCH  12  14
ENDBRANCH   9  12
ENDBRANCH   5   6
ENDBRANCH   4   5
ENDBRANCH   3   4
ENDBRANCH   2   3
TORSDOF 8
ENDMDL
MODEL      100
REMARK 921   NORMALIZED FREE ENERGY PREDICTED BY IDOCK:   -4.26 KCAL/MOL
REMARK 922        TOTAL FREE ENERGY PREDICTED BY IDOCK:   -7.37 KCAL/MOL
REMARK 923 INTER-LIGAND FREE ENERGY PREDICTED BY IDOCK:   -6.26 KCAL/MOL
REMARK 924 INTRA-LIGAND FREE ENERGY PREDICTED BY IDOCK:   -1.11 KCAL/MOL
REMARK 927      BINDING AFFINITY PREDICTED BY RF-SCORE:    0.00 PKD
ROOT
HETATM    1  C   UNL     1     -10.196  11.000  64.546  1.00  0.00    -0.406 C  
HETATM    2  C   UNL     1      -9.366   9.751  64.800  1.00  0.00    -0.327 C  
ENDROOT
BRANCH   2   3
HETATM    3  C   UNL     1      -9.897   8.949  65.987  1.00  0.00    -0.277 C  
BRANCH   3   4
HETATM    4  C   UNL     1      -9.016   9.139  67.221  1.00  0.00    -0.123 C  
BRANCH   4   5
HETATM    5  O   UNL     1      -9.830   9.637  68.288  1.00  0.00    -0.145 OA 
BRANCH   5   6
HETATM    6  C   UNL     1     -10.182  10.958  68.184  1.00  0.00    -0.176 A  
HETATM    7  C   UNL     1     -11.494  11.433  68.174  1.00  0.00    -0.375 A  
HETATM    8  C   UNL     1     -11.740  12.808  68.059  1.00  0.00    -0.405 A  
HETATM    9  C   UNL     1     -10.677  13.708  67.937  1.00  0.00    -0.257 A  
HETATM   10  C   UNL     1      -9.121  11.865  68.131  1.00  0.00    -0.190 A  
HETATM   11  C   UNL     1      -9.362  13.237  67.996  1.00  0.00    -0.218 A  
BRANCH   9  12
HETATM   12  C   UNL     1     -10.991  15.154  67.699  1.00  0.00    -0.308 C  
HETATM   13  O   UNL     1     -11.895  15.676  68.354  1.00  0.00    -0.346 OA 
BRANCH  12  14
HETATM   14  C   UNL     1     -10.238  15.917  66.628  1.00  0.00    -0.293 C  
BRANCH  14  15
HETATM   15  C   UNL     1     -10.498  17.419  66.785  1.00  0.00    -0.257 C  
BRANCH  15  16
HETATM   16  N   UNL     1      -9.849  18.067  67.932  1.00  0.00    -0.294 NA 
HETATM   17  C   UNL     1      -8.384  17.906  67.860  1.00  0.00    -0.247 C  
HETATM   18  C   UNL     1      -7.715  18.851  66.858  1.00  0.00    -0.250 C  
HETATM   19  C   UNL     1      -8.004  20.294  67.238  1.00  0.00    -0.378 C  
HETATM   20  C   UNL     1      -9.510  20.521  67.326  1.00  0.00    -0.559 C  
HETATM   21  C   UNL     1     -10.215  19.467  68.187  1.00  0.00    -0.431 C  
ENDBRANCH  15  16
ENDBRANCH  14  15
ENDBRANCH  12  14
ENDBRANCH   9  12
ENDBRANCH   5   6
ENDBRANCH   4   5
ENDBRANCH   3   4
ENDBRANCH   2   3
TORSDOF 8
ENDMDL
MODEL      101
REMARK 921   NORMALIZED FREE ENERGY PREDICTED BY IDOCK:   -4.24 KCAL/MOL
REMARK 922        TOTAL FREE ENERGY PREDICTED BY IDOCK:   -7.34 KCAL/MOL
REMARK 923 INTER-LIGAND FREE ENERGY PREDICTED BY IDOCK:   -6.24 KCAL/MOL
REMARK 924 INTRA-LIGAND FREE ENERGY PREDICTED BY IDOCK:   -1.09 KCAL/MOL
REMARK 927      BINDING AFFINITY PREDICTED BY RF-SCORE:    0.00 PKD
ROOT
HETATM    1  C   UNL     1     -12.696  10.700  71.078  1.00  0.00    -0.512 C  
HETATM    2  C   UNL     1     -13.388   9.709  72.001  1.00  0.00    -0.547 C  
ENDROOT
BRANCH   2   3
HETATM    3  C   UNL     1     -12.443   8.596  72.450  1.00  0.00    -0.428 C  
BRANCH   3   4
HETATM    4  C   UNL     1     -12.313   7.515  71.379  1.00  0.00    -0.345 C  
BRANCH   4   5
HETATM    5  O   UNL     1     -10.922   7.241  71.176  1.00  0.00    -0.241 OA 
BRANCH   5   6
HETATM    6  C   UNL     1     -10.288   8.073  70.290  1.00  0.00    -0.212 A  
HETATM    7  C   UNL     1      -9.366   9.059  70.645  1.00  0.00    -0.283 A  
HETATM    8  C   UNL     1      -8.780   9.857  69.653  1.00  0.00    -0.218 A  
HETATM    9  C   UNL     1      -9.125   9.685  68.309  1.00  0.00    -0.123 A  
HETATM   10  C   UNL     1     -10.580   7.856  68.941  1.00  0.00    -0.165 A  
HETATM   11  C   UNL     1     -10.011   8.665  67.950  1.00  0.00    -0.232 A  
BRANCH   9  12
HETATM   12  C   UNL     1      -8.562  10.637  67.300  1.00  0.00    -0.126 C  
HETATM   13  O   UNL     1      -7.338  10.769  67.232  1.00  0.00    -0.091 OA 
BRANCH  12  14
HETATM   14  C   UNL     1      -9.501  11.454  66.435  1.00  0.00    -0.224 C  
BRANCH  14  15
HETATM   15  C   UNL     1     -10.257  12.464  67.303  1.00  0.00    -0.215 C  
BRANCH  15  16
HETATM   16  N   UNL     1     -11.611  12.814  66.852  1.00  0.00    -0.347 NA 
HETATM   17  C   UNL     1     -11.885  14.243  67.093  1.00  0.00    -0.425 C  
HETATM   18  C   UNL     1     -11.228  15.172  66.068  1.00  0.00    -0.275 C  
HETATM   19  C   UNL     1     -11.725  14.833  64.672  1.00  0.00    -0.426 C  
HETATM   20  C   UNL     1     -11.464  13.362  64.365  1.00  0.00    -0.417 C  
HETATM   21  C   UNL     1     -11.962  12.431  65.478  1.00  0.00    -0.391 C  
ENDBRANCH  15  16
ENDBRANCH  14  15
ENDBRANCH  12  14
ENDBRANCH   9  12
ENDBRANCH   5   6
ENDBRANCH   4   5
ENDBRANCH   3   4
ENDBRANCH   2   3
TORSDOF 8
ENDMDL
MODEL      102
REMARK 921   NORMALIZED FREE ENERGY PREDICTED BY IDOCK:   -4.23 KCAL/MOL
REMARK 922        TOTAL FREE ENERGY PREDICTED BY IDOCK:   -7.34 KCAL/MOL
REMARK 923 INTER-LIGAND FREE ENERGY PREDICTED BY IDOCK:   -6.36 KCAL/MOL
REMARK 924 INTRA-LIGAND FREE ENERGY PREDICTED BY IDOCK:   -0.98 KCAL/MOL
REMARK 927      BINDING AFFINITY PREDICTED BY RF-SCORE:    0.00 PKD
ROOT
HETATM    1  C   UNL     1      -9.055  10.998  62.402  1.00  0.00    -0.328 C  
HETATM    2  C   UNL     1      -9.131   9.719  63.220  1.00  0.00    -0.267 C  
ENDROOT
BRANCH   2   3
HETATM    3  C   UNL     1      -9.569   9.991  64.658  1.00  0.00    -0.363 C  
BRANCH   3   4
HETATM    4  C   UNL     1      -9.897  11.469  64.867  1.00  0.00    -0.252 C  
BRANCH   4   5
HETATM    5  O   UNL     1     -11.227  11.571  65.386  1.00  0.00    -0.245 OA 
BRANCH   5   6
HETATM    6  C   UNL     1     -11.356  12.349  66.507  1.00  0.00    -0.340 A  
HETATM    7  C   UNL     1     -10.946  11.975  67.788  1.00  0.00    -0.279 A  
HETATM    8  C   UNL     1     -11.129  12.851  68.866  1.00  0.00    -0.301 A  
HETATM    9  C   UNL     1     -11.737  14.095  68.671  1.00  0.00    -0.385 A  
HETATM   10  C   UNL     1     -11.900  13.620  66.303  1.00  0.00    -0.426 A  
HETATM   11  C   UNL     1     -12.103  14.490  67.380  1.00  0.00    -0.292 A  
BRANCH   9  12
HETATM   12  C   UNL     1     -12.018  14.948  69.870  1.00  0.00    -0.330 C  
HETATM   13  O   UNL     1     -13.079  14.783  70.476  1.00  0.00    -0.332 OA 
BRANCH  12  14
HETATM   14  C   UNL     1     -11.029  16.023  70.272  1.00  0.00    -0.360 C  
BRANCH  14  15
HETATM   15  C   UNL     1     -10.686  16.892  69.058  1.00  0.00    -0.308 C  
BRANCH  15  16
HETATM   16  N   UNL     1      -9.273  17.264  68.912  1.00  0.00    -0.228 NA 
HETATM   17  C   UNL     1      -8.438  16.065  68.704  1.00  0.00    -0.208 C  
HETATM   18  C   UNL     1      -8.511  15.512  67.278  1.00  0.00    -0.216 C  
HETATM   19  C   UNL     1      -8.055  16.572  66.289  1.00  0.00    -0.341 C  
HETATM   20  C   UNL     1      -8.888  17.840  66.458  1.00  0.00    -0.283 C  
HETATM   21  C   UNL     1      -8.968  18.301  67.918  1.00  0.00    -0.276 C  
ENDBRANCH  15  16
ENDBRANCH  14  15
ENDBRANCH  12  14
ENDBRANCH   9  12
ENDBRANCH   5   6
ENDBRANCH   4   5
ENDBRANCH   3   4
ENDBRANCH   2   3
TORSDOF 8
ENDMDL
MODEL      103
REMARK 921   NORMALIZED FREE ENERGY PREDICTED BY IDOCK:   -4.20 KCAL/MOL
REMARK 922        TOTAL FREE ENERGY PREDICTED BY IDOCK:   -7.28 KCAL/MOL
REMARK 923 INTER-LIGAND FREE ENERGY PREDICTED BY IDOCK:   -6.26 KCAL/MOL
REMARK 924 INTRA-LIGAND FREE ENERGY PREDICTED BY IDOCK:   -1.02 KCAL/MOL
REMARK 927      BINDING AFFINITY PREDICTED BY RF-SCORE:    0.00 PKD
ROOT
HETATM    1  C   UNL     1      -8.199   9.552  70.235  1.00  0.00    -0.209 C  
HETATM    2  C   UNL     1      -9.473  10.128  69.638  1.00  0.00    -0.226 C  
ENDROOT
BRANCH   2   3
HETATM    3  C   UNL     1      -9.229  10.734  68.257  1.00  0.00    -0.157 C  
BRANCH   3   4
HETATM    4  C   UNL     1     -10.188  10.153  67.220  1.00  0.00    -0.222 C  
BRANCH   4   5
HETATM    5  O   UNL     1     -11.415  10.890  67.271  1.00  0.00    -0.458 OA 
BRANCH   5   6
HETATM    6  C   UNL     1     -11.410  12.076  66.584  1.00  0.00    -0.340 A  
HETATM    7  C   UNL     1     -10.877  12.254  65.307  1.00  0.00    -0.332 A  
HETATM    8  C   UNL     1     -10.924  13.516  64.699  1.00  0.00    -0.395 A  
HETATM    9  C   UNL     1     -11.486  14.605  65.371  1.00  0.00    -0.352 A  
HETATM   10  C   UNL     1     -12.033  13.150  67.226  1.00  0.00    -0.389 A  
HETATM   11  C   UNL     1     -12.064  14.416  66.630  1.00  0.00    -0.392 A  
BRANCH   9  12
HETATM   12  C   UNL     1     -11.408  15.957  64.730  1.00  0.00    -0.309 C  
HETATM   13  O   UNL     1     -11.934  16.118  63.627  1.00  0.00    -0.826 OA 
BRANCH  12  14
HETATM   14  C   UNL     1     -10.641  17.069  65.418  1.00  0.00    -0.147 C  
BRANCH  14  15
HETATM   15  C   UNL     1      -9.442  16.483  66.168  1.00  0.00    -0.315 C  
BRANCH  15  16
HETATM   16  N   UNL     1      -9.132  17.099  67.466  1.00  0.00    -0.224 NA 
HETATM   17  C   UNL     1      -9.745  16.329  68.565  1.00  0.00    -0.224 C  
HETATM   18  C   UNL     1      -8.981  15.048  68.913  1.00  0.00    -0.202 C  
HETATM   19  C   UNL     1      -7.557  15.391  69.323  1.00  0.00    -0.216 C  
HETATM   20  C   UNL     1      -6.872  16.189  68.218  1.00  0.00    -0.126 C  
HETATM   21  C   UNL     1      -7.716  17.375  67.738  1.00  0.00    -0.195 C  
ENDBRANCH  15  16
ENDBRANCH  14  15
ENDBRANCH  12  14
ENDBRANCH   9  12
ENDBRANCH   5   6
ENDBRANCH   4   5
ENDBRANCH   3   4
ENDBRANCH   2   3
TORSDOF 8
ENDMDL
MODEL      104
REMARK 921   NORMALIZED FREE ENERGY PREDICTED BY IDOCK:   -4.19 KCAL/MOL
REMARK 922        TOTAL FREE ENERGY PREDICTED BY IDOCK:   -7.28 KCAL/MOL
REMARK 923 INTER-LIGAND FREE ENERGY PREDICTED BY IDOCK:   -6.70 KCAL/MOL
REMARK 924 INTRA-LIGAND FREE ENERGY PREDICTED BY IDOCK:   -0.57 KCAL/MOL
REMARK 927      BINDING AFFINITY PREDICTED BY RF-SCORE:    0.00 PKD
ROOT
HETATM    1  C   UNL     1      -6.798  19.898  69.401  1.00  0.00    -0.329 C  
HETATM    2  C   UNL     1      -7.097  19.702  67.924  1.00  0.00    -0.301 C  
ENDROOT
BRANCH   2   3
HETATM    3  C   UNL     1      -8.545  20.052  67.586  1.00  0.00    -0.385 C  
BRANCH   3   4
HETATM    4  C   UNL     1      -9.511  19.001  68.132  1.00  0.00    -0.335 C  
BRANCH   4   5
HETATM    5  O   UNL     1      -8.873  17.721  68.069  1.00  0.00    -0.246 OA 
BRANCH   5   6
HETATM    6  C   UNL     1      -9.589  16.745  67.425  1.00  0.00    -0.236 A  
HETATM    7  C   UNL     1      -9.407  16.373  66.092  1.00  0.00    -0.360 A  
HETATM    8  C   UNL     1     -10.199  15.361  65.534  1.00  0.00    -0.411 A  
HETATM    9  C   UNL     1     -11.187  14.732  66.299  1.00  0.00    -0.343 A  
HETATM   10  C   UNL     1     -10.529  16.068  68.206  1.00  0.00    -0.269 A  
HETATM   11  C   UNL     1     -11.336  15.072  67.647  1.00  0.00    -0.342 A  
BRANCH   9  12
HETATM   12  C   UNL     1     -12.086  13.741  65.627  1.00  0.00    -0.418 C  
HETATM   13  O   UNL     1     -13.160  14.136  65.167  1.00  0.00    -0.757 OA 
BRANCH  12  14
HETATM   14  C   UNL     1     -11.688  12.280  65.580  1.00  0.00    -0.433 C  
BRANCH  14  15
HETATM   15  C   UNL     1     -10.736  12.040  64.405  1.00  0.00    -0.323 C  
BRANCH  15  16
HETATM   16  N   UNL     1     -10.420  10.636  64.109  1.00  0.00    -0.255 NA 
HETATM   17  C   UNL     1      -9.877  10.503  62.743  1.00  0.00    -0.131 C  
HETATM   18  C   UNL     1      -8.411  10.930  62.625  1.00  0.00    -0.235 C  
HETATM   19  C   UNL     1      -7.551  10.085  63.551  1.00  0.00    -0.146 C  
HETATM   20  C   UNL     1      -8.066  10.187  64.983  1.00  0.00    -0.149 C  
HETATM   21  C   UNL     1      -9.575   9.935  65.086  1.00  0.00    -0.300 C  
ENDBRANCH  15  16
ENDBRANCH  14  15
ENDBRANCH  12  14
ENDBRANCH   9  12
ENDBRANCH   5   6
ENDBRANCH   4   5
ENDBRANCH   3   4
ENDBRANCH   2   3
TORSDOF 8
ENDMDL
MODEL      105
REMARK 921   NORMALIZED FREE ENERGY PREDICTED BY IDOCK:   -4.19 KCAL/MOL
REMARK 922        TOTAL FREE ENERGY PREDICTED BY IDOCK:   -7.27 KCAL/MOL
REMARK 923 INTER-LIGAND FREE ENERGY PREDICTED BY IDOCK:   -6.47 KCAL/MOL
REMARK 924 INTRA-LIGAND FREE ENERGY PREDICTED BY IDOCK:   -0.80 KCAL/MOL
REMARK 927      BINDING AFFINITY PREDICTED BY RF-SCORE:    0.00 PKD
ROOT
HETATM    1  C   UNL     1     -11.275   6.637  71.461  1.00  0.00    -0.313 C  
HETATM    2  C   UNL     1     -12.467   7.550  71.693  1.00  0.00    -0.371 C  
ENDROOT
BRANCH   2   3
HETATM    3  C   UNL     1     -12.036   8.942  72.150  1.00  0.00    -0.430 C  
BRANCH   3   4
HETATM    4  C   UNL     1     -12.667  10.030  71.282  1.00  0.00    -0.399 C  
BRANCH   4   5
HETATM    5  O   UNL     1     -11.668  11.011  70.984  1.00  0.00    -0.232 OA 
BRANCH   5   6
HETATM    6  C   UNL     1     -11.664  11.462  69.690  1.00  0.00    -0.345 A  
HETATM    7  C   UNL     1     -11.878  12.787  69.308  1.00  0.00    -0.358 A  
HETATM    8  C   UNL     1     -11.854  13.136  67.951  1.00  0.00    -0.390 A  
HETATM    9  C   UNL     1     -11.633  12.162  66.973  1.00  0.00    -0.406 A  
HETATM   10  C   UNL     1     -11.375  10.502  68.715  1.00  0.00    -0.310 A  
HETATM   11  C   UNL     1     -11.370  10.844  67.358  1.00  0.00    -0.273 A  
BRANCH   9  12
HETATM   12  C   UNL     1     -11.733  12.561  65.532  1.00  0.00    -0.409 C  
HETATM   13  O   UNL     1     -12.852  12.731  65.043  1.00  0.00    -0.743 OA 
BRANCH  12  14
HETATM   14  C   UNL     1     -10.472  12.689  64.701  1.00  0.00    -0.361 C  
BRANCH  14  15
HETATM   15  C   UNL     1     -10.113  11.329  64.094  1.00  0.00    -0.320 C  
BRANCH  15  16
HETATM   16  N   UNL     1      -8.683  10.996  64.063  1.00  0.00     0.008 NA 
HETATM   17  C   UNL     1      -8.310  10.202  65.249  1.00  0.00    -0.159 C  
HETATM   18  C   UNL     1      -8.725   8.731  65.153  1.00  0.00    -0.202 C  
HETATM   19  C   UNL     1      -8.073   8.088  63.940  1.00  0.00    -0.097 C  
HETATM   20  C   UNL     1      -8.427   8.870  62.679  1.00  0.00    -0.200 C  
HETATM   21  C   UNL     1      -8.181  10.376  62.830  1.00  0.00    -0.157 C  
ENDBRANCH  15  16
ENDBRANCH  14  15
ENDBRANCH  12  14
ENDBRANCH   9  12
ENDBRANCH   5   6
ENDBRANCH   4   5
ENDBRANCH   3   4
ENDBRANCH   2   3
TORSDOF 8
ENDMDL
MODEL      106
REMARK 921   NORMALIZED FREE ENERGY PREDICTED BY IDOCK:   -4.19 KCAL/MOL
REMARK 922        TOTAL FREE ENERGY PREDICTED BY IDOCK:   -7.26 KCAL/MOL
REMARK 923 INTER-LIGAND FREE ENERGY PREDICTED BY IDOCK:   -6.27 KCAL/MOL
REMARK 924 INTRA-LIGAND FREE ENERGY PREDICTED BY IDOCK:   -0.99 KCAL/MOL
REMARK 927      BINDING AFFINITY PREDICTED BY RF-SCORE:    0.00 PKD
ROOT
HETATM    1  C   UNL     1     -13.489  14.349  72.510  1.00  0.00    -0.593 C  
HETATM    2  C   UNL     1     -13.344  14.667  71.030  1.00  0.00    -0.410 C  
ENDROOT
BRANCH   2   3
HETATM    3  C   UNL     1     -11.883  14.640  70.585  1.00  0.00    -0.367 C  
BRANCH   3   4
HETATM    4  C   UNL     1     -11.770  14.539  69.065  1.00  0.00    -0.311 C  
BRANCH   4   5
HETATM    5  O   UNL     1     -12.278  13.265  68.654  1.00  0.00    -0.277 OA 
BRANCH   5   6
HETATM    6  C   UNL     1     -11.549  12.184  69.076  1.00  0.00    -0.319 A  
HETATM    7  C   UNL     1     -11.997  11.228  69.988  1.00  0.00    -0.447 A  
HETATM    8  C   UNL     1     -11.163  10.162  70.352  1.00  0.00    -0.402 A  
HETATM    9  C   UNL     1      -9.875  10.057  69.818  1.00  0.00    -0.270 A  
HETATM   10  C   UNL     1     -10.287  12.039  68.492  1.00  0.00    -0.228 A  
HETATM   11  C   UNL     1      -9.445  10.987  68.867  1.00  0.00    -0.166 A  
BRANCH   9  12
HETATM   12  C   UNL     1      -8.980   8.969  70.324  1.00  0.00    -0.198 C  
HETATM   13  O   UNL     1      -8.330   9.169  71.352  1.00  0.00    -0.321 OA 
BRANCH  12  14
HETATM   14  C   UNL     1      -8.848   7.680  69.536  1.00  0.00    -0.139 C  
BRANCH  14  15
HETATM   15  C   UNL     1      -8.515   6.525  70.485  1.00  0.00    -0.138 C  
BRANCH  15  16
HETATM   16  N   UNL     1      -9.581   5.536  70.693  1.00  0.00    -0.164 NA 
HETATM   17  C   UNL     1      -9.992   5.506  72.110  1.00  0.00    -0.178 C  
HETATM   18  C   UNL     1     -10.902   6.673  72.506  1.00  0.00    -0.270 C  
HETATM   19  C   UNL     1     -12.162   6.656  71.656  1.00  0.00    -0.401 C  
HETATM   20  C   UNL     1     -11.797   6.688  70.175  1.00  0.00    -0.347 C  
HETATM   21  C   UNL     1     -10.747   5.633  69.805  1.00  0.00    -0.331 C  
ENDBRANCH  15  16
ENDBRANCH  14  15
ENDBRANCH  12  14
ENDBRANCH   9  12
ENDBRANCH   5   6
ENDBRANCH   4   5
ENDBRANCH   3   4
ENDBRANCH   2   3
TORSDOF 8
ENDMDL
MODEL      107
REMARK 921   NORMALIZED FREE ENERGY PREDICTED BY IDOCK:   -4.18 KCAL/MOL
REMARK 922        TOTAL FREE ENERGY PREDICTED BY IDOCK:   -7.26 KCAL/MOL
REMARK 923 INTER-LIGAND FREE ENERGY PREDICTED BY IDOCK:   -6.53 KCAL/MOL
REMARK 924 INTRA-LIGAND FREE ENERGY PREDICTED BY IDOCK:   -0.73 KCAL/MOL
REMARK 927      BINDING AFFINITY PREDICTED BY RF-SCORE:    0.00 PKD
ROOT
HETATM    1  C   UNL     1      -5.910  20.697  65.504  1.00  0.00    -0.254 C  
HETATM    2  C   UNL     1      -5.849  20.396  66.993  1.00  0.00    -0.210 C  
ENDROOT
BRANCH   2   3
HETATM    3  C   UNL     1      -5.202  19.041  67.271  1.00  0.00    -0.159 C  
BRANCH   3   4
HETATM    4  C   UNL     1      -6.251  17.992  67.636  1.00  0.00    -0.169 C  
BRANCH   4   5
HETATM    5  O   UNL     1      -7.550  18.568  67.462  1.00  0.00    -0.225 OA 
BRANCH   5   6
HETATM    6  C   UNL     1      -8.448  17.785  66.783  1.00  0.00    -0.248 A  
HETATM    7  C   UNL     1      -8.185  16.497  66.313  1.00  0.00    -0.360 A  
HETATM    8  C   UNL     1      -9.179  15.787  65.626  1.00  0.00    -0.123 A  
HETATM    9  C   UNL     1     -10.430  16.366  65.393  1.00  0.00    -0.333 A  
HETATM   10  C   UNL     1      -9.721  18.335  66.609  1.00  0.00    -0.339 A  
HETATM   11  C   UNL     1     -10.709  17.636  65.907  1.00  0.00    -0.113 A  
BRANCH   9  12
HETATM   12  C   UNL     1     -11.418  15.616  64.554  1.00  0.00    -0.300 C  
HETATM   13  O   UNL     1     -12.141  16.251  63.784  1.00  0.00    -0.959 OA 
BRANCH  12  14
HETATM   14  C   UNL     1     -11.547  14.114  64.713  1.00  0.00    -0.400 C  
BRANCH  14  15
HETATM   15  C   UNL     1     -12.256  13.792  66.032  1.00  0.00    -0.457 C  
BRANCH  15  16
HETATM   16  N   UNL     1     -12.088  12.421  66.534  1.00  0.00    -0.598 NA 
HETATM   17  C   UNL     1     -11.028  11.720  65.784  1.00  0.00    -0.301 C  
HETATM   18  C   UNL     1      -9.612  12.123  66.208  1.00  0.00    -0.246 C  
HETATM   19  C   UNL     1      -9.412  11.825  67.685  1.00  0.00    -0.180 C  
HETATM   20  C   UNL     1     -10.483  12.529  68.513  1.00  0.00    -0.246 C  
HETATM   21  C   UNL     1     -11.899  12.273  67.983  1.00  0.00    -0.305 C  
ENDBRANCH  15  16
ENDBRANCH  14  15
ENDBRANCH  12  14
ENDBRANCH   9  12
ENDBRANCH   5   6
ENDBRANCH   4   5
ENDBRANCH   3   4
ENDBRANCH   2   3
TORSDOF 8
ENDMDL
MODEL      108
REMARK 921   NORMALIZED FREE ENERGY PREDICTED BY IDOCK:   -4.16 KCAL/MOL
REMARK 922        TOTAL FREE ENERGY PREDICTED BY IDOCK:   -7.23 KCAL/MOL
REMARK 923 INTER-LIGAND FREE ENERGY PREDICTED BY IDOCK:   -6.61 KCAL/MOL
REMARK 924 INTRA-LIGAND FREE ENERGY PREDICTED BY IDOCK:   -0.62 KCAL/MOL
REMARK 927      BINDING AFFINITY PREDICTED BY RF-SCORE:    0.00 PKD
ROOT
HETATM    1  C   UNL     1      -9.418   4.984  68.676  1.00  0.00    -0.188 C  
HETATM    2  C   UNL     1      -9.971   5.641  67.422  1.00  0.00    -0.180 C  
ENDROOT
BRANCH   2   3
HETATM    3  C   UNL     1     -10.907   6.802  67.754  1.00  0.00    -0.339 C  
BRANCH   3   4
HETATM    4  C   UNL     1     -10.398   8.112  67.157  1.00  0.00    -0.321 C  
BRANCH   4   5
HETATM    5  O   UNL     1     -10.473   9.130  68.160  1.00  0.00    -0.211 OA 
BRANCH   5   6
HETATM    6  C   UNL     1     -10.581  10.411  67.683  1.00  0.00    -0.257 A  
HETATM    7  C   UNL     1     -11.701  11.228  67.845  1.00  0.00    -0.289 A  
HETATM    8  C   UNL     1     -11.704  12.524  67.311  1.00  0.00    -0.431 A  
HETATM    9  C   UNL     1     -10.597  13.000  66.601  1.00  0.00    -0.275 A  
HETATM   10  C   UNL     1      -9.451  10.912  67.033  1.00  0.00    -0.184 A  
HETATM   11  C   UNL     1      -9.457  12.199  66.482  1.00  0.00    -0.235 A  
BRANCH   9  12
HETATM   12  C   UNL     1     -10.692  14.345  65.950  1.00  0.00    -0.306 C  
HETATM   13  O   UNL     1     -10.522  14.424  64.731  1.00  0.00    -0.430 OA 
BRANCH  12  14
HETATM   14  C   UNL     1     -10.932  15.575  66.802  1.00  0.00    -0.257 C  
BRANCH  14  15
HETATM   15  C   UNL     1      -9.626  16.358  66.961  1.00  0.00    -0.237 C  
BRANCH  15  16
HETATM   16  N   UNL     1      -9.460  17.518  66.074  1.00  0.00    -0.506 NA 
HETATM   17  C   UNL     1     -10.656  18.381  66.119  1.00  0.00    -0.315 C  
HETATM   18  C   UNL     1     -10.727  19.260  67.371  1.00  0.00    -0.594 C  
HETATM   19  C   UNL     1      -9.503  20.159  67.440  1.00  0.00    -0.531 C  
HETATM   20  C   UNL     1      -8.231  19.317  67.399  1.00  0.00    -0.311 C  
HETATM   21  C   UNL     1      -8.232  18.305  66.247  1.00  0.00    -0.212 C  
ENDBRANCH  15  16
ENDBRANCH  14  15
ENDBRANCH  12  14
ENDBRANCH   9  12
ENDBRANCH   5   6
ENDBRANCH   4   5
ENDBRANCH   3   4
ENDBRANCH   2   3
TORSDOF 8
ENDMDL
MODEL      109
REMARK 921   NORMALIZED FREE ENERGY PREDICTED BY IDOCK:   -4.15 KCAL/MOL
REMARK 922        TOTAL FREE ENERGY PREDICTED BY IDOCK:   -7.21 KCAL/MOL
REMARK 923 INTER-LIGAND FREE ENERGY PREDICTED BY IDOCK:   -6.06 KCAL/MOL
REMARK 924 INTRA-LIGAND FREE ENERGY PREDICTED BY IDOCK:   -1.15 KCAL/MOL
REMARK 927      BINDING AFFINITY PREDICTED BY RF-SCORE:    0.00 PKD
ROOT
HETATM    1  C   UNL     1     -10.340  11.890  63.210  1.00  0.00    -0.432 C  
HETATM    2  C   UNL     1      -9.628  10.565  63.430  1.00  0.00    -0.376 C  
ENDROOT
BRANCH   2   3
HETATM    3  C   UNL     1      -9.769  10.077  64.870  1.00  0.00    -0.377 C  
BRANCH   3   4
HETATM    4  C   UNL     1      -9.184  11.086  65.856  1.00  0.00    -0.199 C  
BRANCH   4   5
HETATM    5  O   UNL     1     -10.213  11.477  66.772  1.00  0.00    -0.210 OA 
BRANCH   5   6
HETATM    6  C   UNL     1     -10.346  12.829  66.955  1.00  0.00    -0.234 A  
HETATM    7  C   UNL     1     -11.379  13.438  67.669  1.00  0.00    -0.321 A  
HETATM    8  C   UNL     1     -11.418  14.834  67.791  1.00  0.00    -0.363 A  
HETATM    9  C   UNL     1     -10.436  15.624  67.186  1.00  0.00    -0.303 A  
HETATM   10  C   UNL     1      -9.328  13.617  66.411  1.00  0.00    -0.203 A  
HETATM   11  C   UNL     1      -9.374  15.012  66.514  1.00  0.00    -0.309 A  
BRANCH   9  12
HETATM   12  C   UNL     1     -10.583  17.114  67.245  1.00  0.00    -0.270 C  
HETATM   13  O   UNL     1     -10.969  17.627  68.297  1.00  0.00    -0.259 OA 
BRANCH  12  14
HETATM   14  C   UNL     1     -10.316  17.942  66.004  1.00  0.00    -0.318 C  
BRANCH  14  15
HETATM   15  C   UNL     1      -9.561  19.219  66.387  1.00  0.00    -0.371 C  
BRANCH  15  16
HETATM   16  N   UNL     1      -8.188  19.331  65.878  1.00  0.00    -0.447 NA 
HETATM   17  C   UNL     1      -7.449  20.381  66.606  1.00  0.00    -0.248 C  
HETATM   18  C   UNL     1      -6.973  19.940  67.994  1.00  0.00    -0.316 C  
HETATM   19  C   UNL     1      -6.059  18.732  67.866  1.00  0.00    -0.193 C  
HETATM   20  C   UNL     1      -6.774  17.610  67.120  1.00  0.00    -0.192 C  
HETATM   21  C   UNL     1      -7.411  18.087  65.809  1.00  0.00    -0.126 C  
ENDBRANCH  15  16
ENDBRANCH  14  15
ENDBRANCH  12  14
ENDBRANCH   9  12
ENDBRANCH   5   6
ENDBRANCH   4   5
ENDBRANCH   3   4
ENDBRANCH   2   3
TORSDOF 8
ENDMDL
MODEL      110
REMARK 921   NORMALIZED FREE ENERGY PREDICTED BY IDOCK:   -4.14 KCAL/MOL
REMARK 922        TOTAL FREE ENERGY PREDICTED BY IDOCK:   -7.20 KCAL/MOL
REMARK 923 INTER-LIGAND FREE ENERGY PREDICTED BY IDOCK:   -5.86 KCAL/MOL
REMARK 924 INTRA-LIGAND FREE ENERGY PREDICTED BY IDOCK:   -1.34 KCAL/MOL
REMARK 927      BINDING AFFINITY PREDICTED BY RF-SCORE:    0.00 PKD
ROOT
HETATM    1  C   UNL     1     -10.061  19.823  69.434  1.00  0.00    -0.211 C  
HETATM    2  C   UNL     1     -10.254  20.493  68.084  1.00  0.00    -0.180 C  
ENDROOT
BRANCH   2   3
HETATM    3  C   UNL     1      -9.303  19.930  67.029  1.00  0.00    -0.486 C  
BRANCH   3   4
HETATM    4  C   UNL     1     -10.073  19.339  65.849  1.00  0.00    -0.289 C  
BRANCH   4   5
HETATM    5  O   UNL     1     -10.854  18.236  66.322  1.00  0.00    -0.214 OA 
BRANCH   5   6
HETATM    6  C   UNL     1     -10.133  17.137  66.712  1.00  0.00    -0.303 A  
HETATM    7  C   UNL     1      -8.952  16.705  66.108  1.00  0.00    -0.321 A  
HETATM    8  C   UNL     1      -8.298  15.563  66.589  1.00  0.00    -0.286 A  
HETATM    9  C   UNL     1      -8.830  14.842  67.662  1.00  0.00    -0.182 A  
HETATM   10  C   UNL     1     -10.626  16.455  67.828  1.00  0.00    -0.321 A  
HETATM   11  C   UNL     1      -9.986  15.303  68.299  1.00  0.00    -0.222 A  
BRANCH   9  12
HETATM   12  C   UNL     1      -8.160  13.564  68.066  1.00  0.00    -0.156 C  
HETATM   13  O   UNL     1      -6.975  13.601  68.405  1.00  0.00    -0.086 OA 
BRANCH  12  14
HETATM   14  C   UNL     1      -8.927  12.260  67.991  1.00  0.00    -0.190 C  
BRANCH  14  15
HETATM   15  C   UNL     1      -8.883  11.714  66.561  1.00  0.00    -0.188 C  
BRANCH  15  16
HETATM   16  N   UNL     1     -10.129  11.118  66.061  1.00  0.00    -0.236 NA 
HETATM   17  C   UNL     1     -11.283  11.977  66.389  1.00  0.00    -0.337 C  
HETATM   18  C   UNL     1     -11.417  13.196  65.473  1.00  0.00    -0.343 C  
HETATM   19  C   UNL     1     -11.571  12.743  64.030  1.00  0.00    -0.488 C  
HETATM   20  C   UNL     1     -10.399  11.850  63.633  1.00  0.00    -0.477 C  
HETATM   21  C   UNL     1     -10.146  10.726  64.645  1.00  0.00    -0.344 C  
ENDBRANCH  15  16
ENDBRANCH  14  15
ENDBRANCH  12  14
ENDBRANCH   9  12
ENDBRANCH   5   6
ENDBRANCH   4   5
ENDBRANCH   3   4
ENDBRANCH   2   3
TORSDOF 8
ENDMDL
MODEL      111
REMARK 921   NORMALIZED FREE ENERGY PREDICTED BY IDOCK:   -4.14 KCAL/MOL
REMARK 922        TOTAL FREE ENERGY PREDICTED BY IDOCK:   -7.20 KCAL/MOL
REMARK 923 INTER-LIGAND FREE ENERGY PREDICTED BY IDOCK:   -6.43 KCAL/MOL
REMARK 924 INTRA-LIGAND FREE ENERGY PREDICTED BY IDOCK:   -0.77 KCAL/MOL
REMARK 927      BINDING AFFINITY PREDICTED BY RF-SCORE:    0.00 PKD
ROOT
HETATM    1  C   UNL     1      -7.685  14.050  68.357  1.00  0.00    -0.138 C  
HETATM    2  C   UNL     1      -8.566  14.460  67.188  1.00  0.00    -0.237 C  
ENDROOT
BRANCH   2   3
HETATM    3  C   UNL     1      -9.645  15.455  67.611  1.00  0.00    -0.210 C  
BRANCH   3   4
HETATM    4  C   UNL     1     -10.897  15.315  66.746  1.00  0.00    -0.312 C  
BRANCH   4   5
HETATM    5  O   UNL     1     -12.031  15.169  67.608  1.00  0.00    -0.236 OA 
BRANCH   5   6
HETATM    6  C   UNL     1     -12.009  14.062  68.417  1.00  0.00    -0.343 A  
HETATM    7  C   UNL     1     -11.805  12.755  67.972  1.00  0.00    -0.386 A  
HETATM    8  C   UNL     1     -11.804  11.696  68.890  1.00  0.00    -0.392 A  
HETATM    9  C   UNL     1     -12.024  11.938  70.249  1.00  0.00    -0.416 A  
HETATM   10  C   UNL     1     -12.159  14.309  69.784  1.00  0.00    -0.401 A  
HETATM   11  C   UNL     1     -12.179  13.252  70.701  1.00  0.00    -0.417 A  
BRANCH   9  12
HETATM   12  C   UNL     1     -12.131  10.764  71.174  1.00  0.00    -0.309 C  
HETATM   13  O   UNL     1     -12.988  10.788  72.060  1.00  0.00    -0.463 OA 
BRANCH  12  14
HETATM   14  C   UNL     1     -11.156   9.612  71.039  1.00  0.00    -0.438 C  
BRANCH  14  15
HETATM   15  C   UNL     1     -11.509   8.514  72.045  1.00  0.00    -0.361 C  
BRANCH  15  16
HETATM   16  N   UNL     1     -10.769   7.252  71.907  1.00  0.00    -0.214 NA 
HETATM   17  C   UNL     1      -9.343   7.515  71.632  1.00  0.00    -0.145 C  
HETATM   18  C   UNL     1      -8.548   7.925  72.875  1.00  0.00    -0.236 C  
HETATM   19  C   UNL     1      -8.625   6.827  73.923  1.00  0.00    -0.154 C  
HETATM   20  C   UNL     1     -10.082   6.514  74.249  1.00  0.00    -0.379 C  
HETATM   21  C   UNL     1     -10.929   6.276  72.993  1.00  0.00    -0.242 C  
ENDBRANCH  15  16
ENDBRANCH  14  15
ENDBRANCH  12  14
ENDBRANCH   9  12
ENDBRANCH   5   6
ENDBRANCH   4   5
ENDBRANCH   3   4
ENDBRANCH   2   3
TORSDOF 8
ENDMDL
MODEL      112
REMARK 921   NORMALIZED FREE ENERGY PREDICTED BY IDOCK:   -4.13 KCAL/MOL
REMARK 922        TOTAL FREE ENERGY PREDICTED BY IDOCK:   -7.19 KCAL/MOL
REMARK 923 INTER-LIGAND FREE ENERGY PREDICTED BY IDOCK:   -6.06 KCAL/MOL
REMARK 924 INTRA-LIGAND FREE ENERGY PREDICTED BY IDOCK:   -1.13 KCAL/MOL
REMARK 927      BINDING AFFINITY PREDICTED BY RF-SCORE:    0.00 PKD
ROOT
HETATM    1  C   UNL     1     -11.286  15.971  68.757  1.00  0.00    -0.380 C  
HETATM    2  C   UNL     1     -10.831  14.913  67.765  1.00  0.00    -0.286 C  
ENDROOT
BRANCH   2   3
HETATM    3  C   UNL     1     -12.011  14.269  67.039  1.00  0.00    -0.463 C  
BRANCH   3   4
HETATM    4  C   UNL     1     -11.534  13.293  65.965  1.00  0.00    -0.330 C  
BRANCH   4   5
HETATM    5  O   UNL     1     -11.999  11.982  66.303  1.00  0.00    -0.596 OA 
BRANCH   5   6
HETATM    6  C   UNL     1     -11.185  11.276  67.151  1.00  0.00    -0.275 A  
HETATM    7  C   UNL     1     -11.532  10.884  68.444  1.00  0.00    -0.374 A  
HETATM    8  C   UNL     1     -10.618  10.166  69.227  1.00  0.00    -0.254 A  
HETATM    9  C   UNL     1      -9.350   9.853  68.726  1.00  0.00    -0.157 A  
HETATM   10  C   UNL     1      -9.944  10.903  66.628  1.00  0.00    -0.250 A  
HETATM   11  C   UNL     1      -9.021  10.203  67.413  1.00  0.00    -0.142 A  
BRANCH   9  12
HETATM   12  C   UNL     1      -8.367   9.188  69.639  1.00  0.00    -0.130 C  
HETATM   13  O   UNL     1      -7.295   9.754  69.866  1.00  0.00    -0.097 OA 
BRANCH  12  14
HETATM   14  C   UNL     1      -8.681   7.820  70.211  1.00  0.00    -0.143 C  
BRANCH  14  15
HETATM   15  C   UNL     1      -9.083   7.955  71.683  1.00  0.00    -0.138 C  
BRANCH  15  16
HETATM   16  N   UNL     1     -10.054   6.969  72.177  1.00  0.00    -0.180 NA 
HETATM   17  C   UNL     1     -11.068   7.620  73.028  1.00  0.00    -0.381 C  
HETATM   18  C   UNL     1     -12.136   8.376  72.233  1.00  0.00    -0.456 C  
HETATM   19  C   UNL     1     -12.859   7.419  71.299  1.00  0.00    -0.365 C  
HETATM   20  C   UNL     1     -11.855   6.715  70.390  1.00  0.00    -0.407 C  
HETATM   21  C   UNL     1     -10.683   6.106  71.168  1.00  0.00    -0.256 C  
ENDBRANCH  15  16
ENDBRANCH  14  15
ENDBRANCH  12  14
ENDBRANCH   9  12
ENDBRANCH   5   6
ENDBRANCH   4   5
ENDBRANCH   3   4
ENDBRANCH   2   3
TORSDOF 8
ENDMDL
MODEL      113
REMARK 921   NORMALIZED FREE ENERGY PREDICTED BY IDOCK:   -4.13 KCAL/MOL
REMARK 922        TOTAL FREE ENERGY PREDICTED BY IDOCK:   -7.18 KCAL/MOL
REMARK 923 INTER-LIGAND FREE ENERGY PREDICTED BY IDOCK:   -6.62 KCAL/MOL
REMARK 924 INTRA-LIGAND FREE ENERGY PREDICTED BY IDOCK:   -0.56 KCAL/MOL
REMARK 927      BINDING AFFINITY PREDICTED BY RF-SCORE:    0.00 PKD
ROOT
HETATM    1  C   UNL     1      -9.152  17.251  66.998  1.00  0.00    -0.247 C  
HETATM    2  C   UNL     1     -10.235  16.185  67.011  1.00  0.00    -0.285 C  
ENDROOT
BRANCH   2   3
HETATM    3  C   UNL     1     -10.814  15.981  68.410  1.00  0.00    -0.310 C  
BRANCH   3   4
HETATM    4  C   UNL     1     -11.637  14.696  68.486  1.00  0.00    -0.317 C  
BRANCH   4   5
HETATM    5  O   UNL     1     -12.105  14.534  69.830  1.00  0.00    -0.303 OA 
BRANCH   5   6
HETATM    6  C   UNL     1     -12.176  13.237  70.269  1.00  0.00    -0.321 A  
HETATM    7  C   UNL     1     -12.832  12.824  71.429  1.00  0.00    -0.371 A  
HETATM    8  C   UNL     1     -12.838  11.469  71.785  1.00  0.00    -0.441 A  
HETATM    9  C   UNL     1     -12.174  10.526  70.993  1.00  0.00    -0.505 A  
HETATM   10  C   UNL     1     -11.572  12.285  69.443  1.00  0.00    -0.378 A  
HETATM   11  C   UNL     1     -11.559  10.933  69.805  1.00  0.00    -0.399 A  
BRANCH   9  12
HETATM   12  C   UNL     1     -12.109   9.110  71.475  1.00  0.00    -0.351 C  
HETATM   13  O   UNL     1     -13.091   8.384  71.307  1.00  0.00    -0.259 OA 
BRANCH  12  14
HETATM   14  C   UNL     1     -10.872   8.622  72.202  1.00  0.00    -0.424 C  
BRANCH  14  15
HETATM   15  C   UNL     1     -11.157   7.268  72.857  1.00  0.00    -0.325 C  
BRANCH  15  16
HETATM   16  N   UNL     1      -9.981   6.513  73.312  1.00  0.00    -0.172 NA 
HETATM   17  C   UNL     1     -10.384   5.418  74.215  1.00  0.00    -0.276 C  
HETATM   18  C   UNL     1     -10.966   4.206  73.483  1.00  0.00    -0.360 C  
HETATM   19  C   UNL     1      -9.939   3.650  72.509  1.00  0.00    -0.227 C  
HETATM   20  C   UNL     1      -9.487   4.742  71.544  1.00  0.00    -0.209 C  
HETATM   21  C   UNL     1      -9.070   6.029  72.266  1.00  0.00    -0.141 C  
ENDBRANCH  15  16
ENDBRANCH  14  15
ENDBRANCH  12  14
ENDBRANCH   9  12
ENDBRANCH   5   6
ENDBRANCH   4   5
ENDBRANCH   3   4
ENDBRANCH   2   3
TORSDOF 8
ENDMDL
MODEL      114
REMARK 921   NORMALIZED FREE ENERGY PREDICTED BY IDOCK:   -4.11 KCAL/MOL
REMARK 922        TOTAL FREE ENERGY PREDICTED BY IDOCK:   -7.16 KCAL/MOL
REMARK 923 INTER-LIGAND FREE ENERGY PREDICTED BY IDOCK:   -6.15 KCAL/MOL
REMARK 924 INTRA-LIGAND FREE ENERGY PREDICTED BY IDOCK:   -1.00 KCAL/MOL
REMARK 927      BINDING AFFINITY PREDICTED BY RF-SCORE:    0.00 PKD
ROOT
HETATM    1  C   UNL     1      -9.847   7.976  72.844  1.00  0.00    -0.357 C  
HETATM    2  C   UNL     1     -11.206   7.383  72.509  1.00  0.00    -0.363 C  
ENDROOT
BRANCH   2   3
HETATM    3  C   UNL     1     -11.104   5.904  72.142  1.00  0.00    -0.333 C  
BRANCH   3   4
HETATM    4  C   UNL     1     -10.598   5.722  70.712  1.00  0.00    -0.269 C  
BRANCH   4   5
HETATM    5  O   UNL     1     -11.455   6.454  69.829  1.00  0.00    -0.412 OA 
BRANCH   5   6
HETATM    6  C   UNL     1     -10.811   7.177  68.859  1.00  0.00    -0.129 A  
HETATM    7  C   UNL     1     -10.413   6.670  67.621  1.00  0.00    -0.282 A  
HETATM    8  C   UNL     1      -9.756   7.501  66.703  1.00  0.00    -0.273 A  
HETATM    9  C   UNL     1      -9.481   8.833  67.026  1.00  0.00    -0.218 A  
HETATM   10  C   UNL     1     -10.596   8.526  69.151  1.00  0.00    -0.188 A  
HETATM   11  C   UNL     1      -9.923   9.354  68.245  1.00  0.00    -0.197 A  
BRANCH   9  12
HETATM   12  C   UNL     1      -8.674   9.648  66.062  1.00  0.00    -0.138 C  
HETATM   13  O   UNL     1      -7.579  10.081  66.427  1.00  0.00    -0.099 OA 
BRANCH  12  14
HETATM   14  C   UNL     1      -9.243   9.969  64.694  1.00  0.00    -0.310 C  
BRANCH  14  15
HETATM   15  C   UNL     1     -10.441  10.912  64.840  1.00  0.00    -0.282 C  
BRANCH  15  16
HETATM   16  N   UNL     1     -10.125  12.308  65.170  1.00  0.00    -0.272 NA 
HETATM   17  C   UNL     1     -10.554  13.208  64.083  1.00  0.00    -0.361 C  
HETATM   18  C   UNL     1     -12.061  13.479  64.074  1.00  0.00    -0.494 C  
HETATM   19  C   UNL     1     -12.480  14.111  65.391  1.00  0.00    -0.488 C  
HETATM   20  C   UNL     1     -12.063  13.218  66.556  1.00  0.00    -0.435 C  
HETATM   21  C   UNL     1     -10.591  12.794  66.476  1.00  0.00    -0.254 C  
ENDBRANCH  15  16
ENDBRANCH  14  15
ENDBRANCH  12  14
ENDBRANCH   9  12
ENDBRANCH   5   6
ENDBRANCH   4   5
ENDBRANCH   3   4
ENDBRANCH   2   3
TORSDOF 8
ENDMDL
MODEL      115
REMARK 921   NORMALIZED FREE ENERGY PREDICTED BY IDOCK:   -4.10 KCAL/MOL
REMARK 922        TOTAL FREE ENERGY PREDICTED BY IDOCK:   -7.14 KCAL/MOL
REMARK 923 INTER-LIGAND FREE ENERGY PREDICTED BY IDOCK:   -6.30 KCAL/MOL
REMARK 924 INTRA-LIGAND FREE ENERGY PREDICTED BY IDOCK:   -0.84 KCAL/MOL
REMARK 927      BINDING AFFINITY PREDICTED BY RF-SCORE:    0.00 PKD
ROOT
HETATM    1  C   UNL     1      -6.693   9.018  69.897  1.00  0.00    -0.046 C  
HETATM    2  C   UNL     1      -7.347   7.653  69.753  1.00  0.00    -0.081 C  
ENDROOT
BRANCH   2   3
HETATM    3  C   UNL     1      -7.604   7.299  68.290  1.00  0.00    -0.118 C  
BRANCH   3   4
HETATM    4  C   UNL     1      -9.004   7.728  67.855  1.00  0.00    -0.125 C  
BRANCH   4   5
HETATM    5  O   UNL     1      -8.939   8.189  66.501  1.00  0.00    -0.141 OA 
BRANCH   5   6
HETATM    6  C   UNL     1      -9.676   9.313  66.232  1.00  0.00    -0.271 A  
HETATM    7  C   UNL     1      -9.671   9.997  65.015  1.00  0.00    -0.386 A  
HETATM    8  C   UNL     1     -10.464  11.140  64.852  1.00  0.00    -0.372 A  
HETATM    9  C   UNL     1     -11.249  11.614  65.907  1.00  0.00    -0.296 A  
HETATM   10  C   UNL     1     -10.515   9.748  67.262  1.00  0.00    -0.324 A  
HETATM   11  C   UNL     1     -11.292  10.901  67.109  1.00  0.00    -0.168 A  
BRANCH   9  12
HETATM   12  C   UNL     1     -11.988  12.904  65.724  1.00  0.00    -0.443 C  
HETATM   13  O   UNL     1     -13.103  12.876  65.199  1.00  0.00    -0.753 OA 
BRANCH  12  14
HETATM   14  C   UNL     1     -11.330  14.208  66.128  1.00  0.00    -0.337 C  
BRANCH  14  15
HETATM   15  C   UNL     1     -11.876  14.664  67.485  1.00  0.00    -0.347 C  
BRANCH  15  16
HETATM   16  N   UNL     1     -11.184  14.133  68.667  1.00  0.00    -0.252 NA 
HETATM   17  C   UNL     1     -10.325  15.167  69.274  1.00  0.00    -0.257 C  
HETATM   18  C   UNL     1     -11.100  16.195  70.103  1.00  0.00    -0.373 C  
HETATM   19  C   UNL     1     -11.847  15.495  71.227  1.00  0.00    -0.453 C  
HETATM   20  C   UNL     1     -12.757  14.412  70.655  1.00  0.00    -0.421 C  
HETATM   21  C   UNL     1     -12.025  13.482  69.681  1.00  0.00    -0.337 C  
ENDBRANCH  15  16
ENDBRANCH  14  15
ENDBRANCH  12  14
ENDBRANCH   9  12
ENDBRANCH   5   6
ENDBRANCH   4   5
ENDBRANCH   3   4
ENDBRANCH   2   3
TORSDOF 8
ENDMDL
MODEL      116
REMARK 921   NORMALIZED FREE ENERGY PREDICTED BY IDOCK:   -4.09 KCAL/MOL
REMARK 922        TOTAL FREE ENERGY PREDICTED BY IDOCK:   -7.13 KCAL/MOL
REMARK 923 INTER-LIGAND FREE ENERGY PREDICTED BY IDOCK:   -6.44 KCAL/MOL
REMARK 924 INTRA-LIGAND FREE ENERGY PREDICTED BY IDOCK:   -0.69 KCAL/MOL
REMARK 927      BINDING AFFINITY PREDICTED BY RF-SCORE:    0.00 PKD
ROOT
HETATM    1  C   UNL     1     -10.799   3.856  73.615  1.00  0.00    -0.331 C  
HETATM    2  C   UNL     1     -10.020   3.820  72.310  1.00  0.00    -0.239 C  
ENDROOT
BRANCH   2   3
HETATM    3  C   UNL     1      -8.819   4.764  72.340  1.00  0.00    -0.127 C  
BRANCH   3   4
HETATM    4  C   UNL     1      -8.760   5.542  73.653  1.00  0.00    -0.122 C  
BRANCH   4   5
HETATM    5  O   UNL     1      -8.388   6.895  73.365  1.00  0.00    -0.114 OA 
BRANCH   5   6
HETATM    6  C   UNL     1      -9.353   7.644  72.744  1.00  0.00    -0.182 A  
HETATM    7  C   UNL     1      -9.125   8.498  71.664  1.00  0.00    -0.296 A  
HETATM    8  C   UNL     1     -10.189   9.221  71.107  1.00  0.00    -0.387 A  
HETATM    9  C   UNL     1     -11.478   9.104  71.637  1.00  0.00    -0.451 A  
HETATM   10  C   UNL     1     -10.654   7.477  73.227  1.00  0.00    -0.438 A  
HETATM   11  C   UNL     1     -11.715   8.211  72.686  1.00  0.00    -0.419 A  
BRANCH   9  12
HETATM   12  C   UNL     1     -12.558   9.983  71.084  1.00  0.00    -0.381 C  
HETATM   13  O   UNL     1     -13.700   9.527  70.993  1.00  0.00    -0.265 OA 
BRANCH  12  14
HETATM   14  C   UNL     1     -12.215  11.377  70.600  1.00  0.00    -0.484 C  
BRANCH  14  15
HETATM   15  C   UNL     1     -11.932  11.347  69.095  1.00  0.00    -0.328 C  
BRANCH  15  16
HETATM   16  N   UNL     1     -10.944  12.319  68.608  1.00  0.00    -0.228 NA 
HETATM   17  C   UNL     1     -10.216  11.780  67.444  1.00  0.00    -0.199 C  
HETATM   18  C   UNL     1     -11.018  11.837  66.141  1.00  0.00    -0.355 C  
HETATM   19  C   UNL     1     -11.391  13.278  65.828  1.00  0.00    -0.328 C  
HETATM   20  C   UNL     1     -12.152  13.889  67.001  1.00  0.00    -0.451 C  
HETATM   21  C   UNL     1     -11.437  13.677  68.341  1.00  0.00    -0.311 C  
ENDBRANCH  15  16
ENDBRANCH  14  15
ENDBRANCH  12  14
ENDBRANCH   9  12
ENDBRANCH   5   6
ENDBRANCH   4   5
ENDBRANCH   3   4
ENDBRANCH   2   3
TORSDOF 8
ENDMDL
MODEL      117
REMARK 921   NORMALIZED FREE ENERGY PREDICTED BY IDOCK:   -4.09 KCAL/MOL
REMARK 922        TOTAL FREE ENERGY PREDICTED BY IDOCK:   -7.12 KCAL/MOL
REMARK 923 INTER-LIGAND FREE ENERGY PREDICTED BY IDOCK:   -6.54 KCAL/MOL
REMARK 924 INTRA-LIGAND FREE ENERGY PREDICTED BY IDOCK:   -0.58 KCAL/MOL
REMARK 927      BINDING AFFINITY PREDICTED BY RF-SCORE:    0.00 PKD
ROOT
HETATM    1  C   UNL     1     -11.766   6.096  72.159  1.00  0.00    -0.361 C  
HETATM    2  C   UNL     1     -12.673   6.724  71.114  1.00  0.00    -0.254 C  
ENDROOT
BRANCH   2   3
HETATM    3  C   UNL     1     -13.641   7.731  71.732  1.00  0.00    -0.390 C  
BRANCH   3   4
HETATM    4  C   UNL     1     -12.890   8.848  72.455  1.00  0.00    -0.380 C  
BRANCH   4   5
HETATM    5  O   UNL     1     -13.731  10.006  72.502  1.00  0.00    -0.233 OA 
BRANCH   5   6
HETATM    6  C   UNL     1     -13.219  11.122  71.893  1.00  0.00    -0.382 A  
HETATM    7  C   UNL     1     -13.529  12.436  72.249  1.00  0.00    -0.428 A  
HETATM    8  C   UNL     1     -12.947  13.504  71.554  1.00  0.00    -0.440 A  
HETATM    9  C   UNL     1     -12.070  13.264  70.492  1.00  0.00    -0.391 A  
HETATM   10  C   UNL     1     -12.289  10.885  70.877  1.00  0.00    -0.501 A  
HETATM   11  C   UNL     1     -11.722  11.949  70.168  1.00  0.00    -0.337 A  
BRANCH   9  12
HETATM   12  C   UNL     1     -11.565  14.434  69.704  1.00  0.00    -0.292 C  
HETATM   13  O   UNL     1     -11.997  14.607  68.563  1.00  0.00    -0.315 OA 
BRANCH  12  14
HETATM   14  C   UNL     1     -10.503  15.336  70.300  1.00  0.00    -0.217 C  
BRANCH  14  15
HETATM   15  C   UNL     1     -10.667  16.758  69.756  1.00  0.00    -0.186 C  
BRANCH  15  16
HETATM   16  N   UNL     1      -9.443  17.402  69.259  1.00  0.00    -0.011 NA 
HETATM   17  C   UNL     1      -8.460  16.387  68.833  1.00  0.00    -0.247 C  
HETATM   18  C   UNL     1      -8.772  15.770  67.467  1.00  0.00    -0.187 C  
HETATM   19  C   UNL     1      -8.807  16.858  66.405  1.00  0.00    -0.322 C  
HETATM   20  C   UNL     1      -9.813  17.937  66.793  1.00  0.00    -0.333 C  
HETATM   21  C   UNL     1      -9.617  18.435  68.230  1.00  0.00    -0.334 C  
ENDBRANCH  15  16
ENDBRANCH  14  15
ENDBRANCH  12  14
ENDBRANCH   9  12
ENDBRANCH   5   6
ENDBRANCH   4   5
ENDBRANCH   3   4
ENDBRANCH   2   3
TORSDOF 8
ENDMDL
MODEL      118
REMARK 921   NORMALIZED FREE ENERGY PREDICTED BY IDOCK:   -4.09 KCAL/MOL
REMARK 922        TOTAL FREE ENERGY PREDICTED BY IDOCK:   -7.12 KCAL/MOL
REMARK 923 INTER-LIGAND FREE ENERGY PREDICTED BY IDOCK:   -6.42 KCAL/MOL
REMARK 924 INTRA-LIGAND FREE ENERGY PREDICTED BY IDOCK:   -0.69 KCAL/MOL
REMARK 927      BINDING AFFINITY PREDICTED BY RF-SCORE:    0.00 PKD
ROOT
HETATM    1  C   UNL     1     -13.890  15.154  72.446  1.00  0.00    -0.617 C  
HETATM    2  C   UNL     1     -13.144  15.302  71.130  1.00  0.00    -0.546 C  
ENDROOT
BRANCH   2   3
HETATM    3  C   UNL     1     -11.750  15.895  71.331  1.00  0.00    -0.530 C  
BRANCH   3   4
HETATM    4  C   UNL     1     -10.880  15.695  70.091  1.00  0.00    -0.343 C  
BRANCH   4   5
HETATM    5  O   UNL     1     -11.683  15.932  68.929  1.00  0.00    -0.390 OA 
BRANCH   5   6
HETATM    6  C   UNL     1     -11.413  15.117  67.860  1.00  0.00    -0.332 A  
HETATM    7  C   UNL     1     -10.666  15.491  66.742  1.00  0.00    -0.305 A  
HETATM    8  C   UNL     1     -10.454  14.575  65.703  1.00  0.00    -0.351 A  
HETATM    9  C   UNL     1     -11.003  13.290  65.770  1.00  0.00    -0.284 A  
HETATM   10  C   UNL     1     -11.902  13.811  67.956  1.00  0.00    -0.408 A  
HETATM   11  C   UNL     1     -11.710  12.900  66.911  1.00  0.00    -0.445 A  
BRANCH   9  12
HETATM   12  C   UNL     1     -10.849  12.387  64.585  1.00  0.00    -0.309 C  
HETATM   13  O   UNL     1     -11.047  12.851  63.460  1.00  0.00    -0.398 OA 
BRANCH  12  14
HETATM   14  C   UNL     1     -10.516  10.924  64.797  1.00  0.00    -0.373 C  
BRANCH  14  15
HETATM   15  C   UNL     1      -9.123  10.795  65.421  1.00  0.00    -0.194 C  
BRANCH  15  16
HETATM   16  N   UNL     1      -7.998  10.744  64.478  1.00  0.00     0.086 NA 
HETATM   17  C   UNL     1      -6.947   9.835  64.973  1.00  0.00    -0.119 C  
HETATM   18  C   UNL     1      -7.276   8.353  64.769  1.00  0.00    -0.082 C  
HETATM   19  C   UNL     1      -7.477   8.069  63.289  1.00  0.00    -0.118 C  
HETATM   20  C   UNL     1      -8.559   8.982  62.722  1.00  0.00    -0.191 C  
HETATM   21  C   UNL     1      -8.331  10.456  63.077  1.00  0.00    -0.174 C  
ENDBRANCH  15  16
ENDBRANCH  14  15
ENDBRANCH  12  14
ENDBRANCH   9  12
ENDBRANCH   5   6
ENDBRANCH   4   5
ENDBRANCH   3   4
ENDBRANCH   2   3
TORSDOF 8
ENDMDL
MODEL      119
REMARK 921   NORMALIZED FREE ENERGY PREDICTED BY IDOCK:   -4.08 KCAL/MOL
REMARK 922        TOTAL FREE ENERGY PREDICTED BY IDOCK:   -7.12 KCAL/MOL
REMARK 923 INTER-LIGAND FREE ENERGY PREDICTED BY IDOCK:   -6.32 KCAL/MOL
REMARK 924 INTRA-LIGAND FREE ENERGY PREDICTED BY IDOCK:   -0.80 KCAL/MOL
REMARK 927      BINDING AFFINITY PREDICTED BY RF-SCORE:    0.00 PKD
ROOT
HETATM    1  C   UNL     1     -10.137  18.223  68.663  1.00  0.00    -0.407 C  
HETATM    2  C   UNL     1     -10.311  19.194  67.507  1.00  0.00    -0.524 C  
ENDROOT
BRANCH   2   3
HETATM    3  C   UNL     1     -10.325  18.475  66.159  1.00  0.00    -0.457 C  
BRANCH   3   4
HETATM    4  C   UNL     1      -9.659  17.103  66.257  1.00  0.00    -0.252 C  
BRANCH   4   5
HETATM    5  O   UNL     1     -10.504  16.140  65.617  1.00  0.00    -0.356 OA 
BRANCH   5   6
HETATM    6  C   UNL     1     -10.764  15.014  66.354  1.00  0.00    -0.322 A  
HETATM    7  C   UNL     1     -11.504  14.989  67.537  1.00  0.00    -0.339 A  
HETATM    8  C   UNL     1     -11.706  13.777  68.211  1.00  0.00    -0.394 A  
HETATM    9  C   UNL     1     -11.155  12.591  67.715  1.00  0.00    -0.291 A  
HETATM   10  C   UNL     1     -10.273  13.817  65.824  1.00  0.00    -0.322 A  
HETATM   11  C   UNL     1     -10.456  12.608  66.504  1.00  0.00    -0.264 A  
BRANCH   9  12
HETATM   12  C   UNL     1     -11.298  11.343  68.530  1.00  0.00    -0.271 C  
HETATM   13  O   UNL     1     -12.428  10.886  68.716  1.00  0.00    -0.431 OA 
BRANCH  12  14
HETATM   14  C   UNL     1     -10.070  10.709  69.151  1.00  0.00    -0.234 C  
BRANCH  14  15
HETATM   15  C   UNL     1     -10.212   9.185  69.140  1.00  0.00    -0.207 C  
BRANCH  15  16
HETATM   16  N   UNL     1      -9.721   8.502  67.936  1.00  0.00    -0.156 NA 
HETATM   17  C   UNL     1      -8.469   7.777  68.224  1.00  0.00    -0.124 C  
HETATM   18  C   UNL     1      -8.686   6.456  68.968  1.00  0.00    -0.123 C  
HETATM   19  C   UNL     1      -9.575   5.539  68.144  1.00  0.00    -0.144 C  
HETATM   20  C   UNL     1     -10.890   6.238  67.817  1.00  0.00    -0.424 C  
HETATM   21  C   UNL     1     -10.682   7.641  67.233  1.00  0.00    -0.274 C  
ENDBRANCH  15  16
ENDBRANCH  14  15
ENDBRANCH  12  14
ENDBRANCH   9  12
ENDBRANCH   5   6
ENDBRANCH   4   5
ENDBRANCH   3   4
ENDBRANCH   2   3
TORSDOF 8
ENDMDL
MODEL      120
REMARK 921   NORMALIZED FREE ENERGY PREDICTED BY IDOCK:   -4.07 KCAL/MOL
REMARK 922        TOTAL FREE ENERGY PREDICTED BY IDOCK:   -7.10 KCAL/MOL
REMARK 923 INTER-LIGAND FREE ENERGY PREDICTED BY IDOCK:   -6.20 KCAL/MOL
REMARK 924 INTRA-LIGAND FREE ENERGY PREDICTED BY IDOCK:   -0.90 KCAL/MOL
REMARK 927      BINDING AFFINITY PREDICTED BY RF-SCORE:    0.00 PKD
ROOT
HETATM    1  C   UNL     1      -7.074  17.217  67.457  1.00  0.00    -0.181 C  
HETATM    2  C   UNL     1      -7.821  18.092  66.463  1.00  0.00    -0.292 C  
ENDROOT
BRANCH   2   3
HETATM    3  C   UNL     1      -8.783  19.051  67.162  1.00  0.00    -0.305 C  
BRANCH   3   4
HETATM    4  C   UNL     1      -9.476  18.377  68.344  1.00  0.00    -0.332 C  
BRANCH   4   5
HETATM    5  O   UNL     1     -10.765  17.922  67.918  1.00  0.00    -0.392 OA 
BRANCH   5   6
HETATM    6  C   UNL     1     -10.906  16.560  67.843  1.00  0.00    -0.326 A  
HETATM    7  C   UNL     1     -10.647  15.795  66.705  1.00  0.00    -0.309 A  
HETATM    8  C   UNL     1     -10.829  14.405  66.741  1.00  0.00    -0.301 A  
HETATM    9  C   UNL     1     -11.286  13.781  67.906  1.00  0.00    -0.328 A  
HETATM   10  C   UNL     1     -11.296  15.926  69.026  1.00  0.00    -0.371 A  
HETATM   11  C   UNL     1     -11.498  14.542  69.059  1.00  0.00    -0.318 A  
BRANCH   9  12
HETATM   12  C   UNL     1     -11.577  12.313  67.860  1.00  0.00    -0.354 C  
HETATM   13  O   UNL     1     -12.094  11.845  66.844  1.00  0.00    -0.599 OA 
BRANCH  12  14
HETATM   14  C   UNL     1     -11.288  11.454  69.075  1.00  0.00    -0.345 C  
BRANCH  14  15
HETATM   15  C   UNL     1     -10.912  10.037  68.630  1.00  0.00    -0.204 C  
BRANCH  15  16
HETATM   16  N   UNL     1     -10.960   9.002  69.672  1.00  0.00    -0.186 NA 
HETATM   17  C   UNL     1     -10.453   7.718  69.151  1.00  0.00    -0.211 C  
HETATM   18  C   UNL     1      -8.925   7.657  69.062  1.00  0.00    -0.137 C  
HETATM   19  C   UNL     1      -8.318   7.871  70.439  1.00  0.00    -0.121 C  
HETATM   20  C   UNL     1      -8.808   9.191  71.027  1.00  0.00    -0.267 C  
HETATM   21  C   UNL     1     -10.332   9.337  70.957  1.00  0.00    -0.318 C  
ENDBRANCH  15  16
ENDBRANCH  14  15
ENDBRANCH  12  14
ENDBRANCH   9  12
ENDBRANCH   5   6
ENDBRANCH   4   5
ENDBRANCH   3   4
ENDBRANCH   2   3
TORSDOF 8
ENDMDL
MODEL      121
REMARK 921   NORMALIZED FREE ENERGY PREDICTED BY IDOCK:   -4.06 KCAL/MOL
REMARK 922        TOTAL FREE ENERGY PREDICTED BY IDOCK:   -7.08 KCAL/MOL
REMARK 923 INTER-LIGAND FREE ENERGY PREDICTED BY IDOCK:   -5.94 KCAL/MOL
REMARK 924 INTRA-LIGAND FREE ENERGY PREDICTED BY IDOCK:   -1.14 KCAL/MOL
REMARK 927      BINDING AFFINITY PREDICTED BY RF-SCORE:    0.00 PKD
ROOT
HETATM    1  C   UNL     1      -5.779   9.226  64.135  1.00  0.00    -0.070 C  
HETATM    2  C   UNL     1      -6.174   8.158  65.142  1.00  0.00    -0.045 C  
ENDROOT
BRANCH   2   3
HETATM    3  C   UNL     1      -7.408   7.379  64.689  1.00  0.00    -0.082 C  
BRANCH   3   4
HETATM    4  C   UNL     1      -8.610   7.678  65.584  1.00  0.00    -0.123 C  
BRANCH   4   5
HETATM    5  O   UNL     1      -8.470   9.004  66.107  1.00  0.00    -0.119 OA 
BRANCH   5   6
HETATM    6  C   UNL     1      -9.416   9.900  65.682  1.00  0.00    -0.235 A  
HETATM    7  C   UNL     1      -9.654  10.234  64.348  1.00  0.00    -0.378 A  
HETATM    8  C   UNL     1     -10.649  11.168  64.028  1.00  0.00    -0.436 A  
HETATM    9  C   UNL     1     -11.395  11.783  65.039  1.00  0.00    -0.288 A  
HETATM   10  C   UNL     1     -10.210  10.463  66.685  1.00  0.00    -0.292 A  
HETATM   11  C   UNL     1     -11.190  11.411  66.371  1.00  0.00    -0.250 A  
BRANCH   9  12
HETATM   12  C   UNL     1     -12.364  12.859  64.656  1.00  0.00    -0.439 C  
HETATM   13  O   UNL     1     -12.960  12.761  63.581  1.00  0.00    -0.663 OA 
BRANCH  12  14
HETATM   14  C   UNL     1     -12.544  14.061  65.561  1.00  0.00    -0.543 C  
BRANCH  14  15
HETATM   15  C   UNL     1     -11.351  15.010  65.404  1.00  0.00    -0.328 C  
BRANCH  15  16
HETATM   16  N   UNL     1     -10.915  15.700  66.625  1.00  0.00    -0.264 NA 
HETATM   17  C   UNL     1     -10.414  14.732  67.619  1.00  0.00    -0.254 C  
HETATM   18  C   UNL     1      -9.000  14.224  67.317  1.00  0.00    -0.221 C  
HETATM   19  C   UNL     1      -8.030  15.393  67.279  1.00  0.00    -0.231 C  
HETATM   20  C   UNL     1      -8.498  16.430  66.262  1.00  0.00    -0.372 C  
HETATM   21  C   UNL     1      -9.971  16.812  66.447  1.00  0.00    -0.304 C  
ENDBRANCH  15  16
ENDBRANCH  14  15
ENDBRANCH  12  14
ENDBRANCH   9  12
ENDBRANCH   5   6
ENDBRANCH   4   5
ENDBRANCH   3   4
ENDBRANCH   2   3
TORSDOF 8
ENDMDL
MODEL      122
REMARK 921   NORMALIZED FREE ENERGY PREDICTED BY IDOCK:   -4.06 KCAL/MOL
REMARK 922        TOTAL FREE ENERGY PREDICTED BY IDOCK:   -7.07 KCAL/MOL
REMARK 923 INTER-LIGAND FREE ENERGY PREDICTED BY IDOCK:   -6.44 KCAL/MOL
REMARK 924 INTRA-LIGAND FREE ENERGY PREDICTED BY IDOCK:   -0.64 KCAL/MOL
REMARK 927      BINDING AFFINITY PREDICTED BY RF-SCORE:    0.00 PKD
ROOT
HETATM    1  C   UNL     1     -10.498   8.887  67.101  1.00  0.00    -0.344 C  
HETATM    2  C   UNL     1     -10.223  10.157  67.890  1.00  0.00    -0.217 C  
ENDROOT
BRANCH   2   3
HETATM    3  C   UNL     1     -11.515  10.856  68.308  1.00  0.00    -0.376 C  
BRANCH   3   4
HETATM    4  C   UNL     1     -11.237  11.992  69.291  1.00  0.00    -0.229 C  
BRANCH   4   5
HETATM    5  O   UNL     1     -12.187  13.038  69.060  1.00  0.00    -0.227 OA 
BRANCH   5   6
HETATM    6  C   UNL     1     -11.646  14.282  68.864  1.00  0.00    -0.305 A  
HETATM    7  C   UNL     1     -11.460  15.236  69.866  1.00  0.00    -0.325 A  
HETATM    8  C   UNL     1     -10.899  16.481  69.551  1.00  0.00    -0.315 A  
HETATM    9  C   UNL     1     -10.539  16.782  68.233  1.00  0.00    -0.352 A  
HETATM   10  C   UNL     1     -11.223  14.560  67.562  1.00  0.00    -0.333 A  
HETATM   11  C   UNL     1     -10.681  15.809  67.240  1.00  0.00    -0.313 A  
BRANCH   9  12
HETATM   12  C   UNL     1     -10.054  18.165  67.925  1.00  0.00    -0.357 C  
HETATM   13  O   UNL     1     -10.185  19.041  68.783  1.00  0.00    -0.384 OA 
BRANCH  12  14
HETATM   14  C   UNL     1      -9.471  18.468  66.559  1.00  0.00    -0.322 C  
BRANCH  14  15
HETATM   15  C   UNL     1      -9.027  19.932  66.499  1.00  0.00    -0.366 C  
BRANCH  15  16
HETATM   16  N   UNL     1      -7.609  20.161  66.188  1.00  0.00    -0.290 NA 
HETATM   17  C   UNL     1      -6.969  20.964  67.248  1.00  0.00    -0.376 C  
HETATM   18  C   UNL     1      -6.634  20.158  68.506  1.00  0.00    -0.337 C  
HETATM   19  C   UNL     1      -5.692  19.018  68.154  1.00  0.00    -0.208 C  
HETATM   20  C   UNL     1      -6.306  18.149  67.060  1.00  0.00    -0.195 C  
HETATM   21  C   UNL     1      -6.808  18.972  65.868  1.00  0.00    -0.264 C  
ENDBRANCH  15  16
ENDBRANCH  14  15
ENDBRANCH  12  14
ENDBRANCH   9  12
ENDBRANCH   5   6
ENDBRANCH   4   5
ENDBRANCH   3   4
ENDBRANCH   2   3
TORSDOF 8
ENDMDL
MODEL      123
REMARK 921   NORMALIZED FREE ENERGY PREDICTED BY IDOCK:   -4.05 KCAL/MOL
REMARK 922        TOTAL FREE ENERGY PREDICTED BY IDOCK:   -7.07 KCAL/MOL
REMARK 923 INTER-LIGAND FREE ENERGY PREDICTED BY IDOCK:   -5.98 KCAL/MOL
REMARK 924 INTRA-LIGAND FREE ENERGY PREDICTED BY IDOCK:   -1.09 KCAL/MOL
REMARK 927      BINDING AFFINITY PREDICTED BY RF-SCORE:    0.00 PKD
ROOT
HETATM    1  C   UNL     1      -7.331  12.715  68.730  1.00  0.00    -0.066 C  
HETATM    2  C   UNL     1      -8.242  11.715  68.038  1.00  0.00    -0.146 C  
ENDROOT
BRANCH   2   3
HETATM    3  C   UNL     1      -8.555  12.130  66.602  1.00  0.00    -0.122 C  
BRANCH   3   4
HETATM    4  C   UNL     1     -10.058  12.097  66.331  1.00  0.00    -0.220 C  
BRANCH   4   5
HETATM    5  O   UNL     1     -10.720  12.864  67.342  1.00  0.00    -0.234 OA 
BRANCH   5   6
HETATM    6  C   UNL     1     -10.633  14.224  67.190  1.00  0.00    -0.279 A  
HETATM    7  C   UNL     1     -10.467  15.133  68.237  1.00  0.00    -0.241 A  
HETATM    8  C   UNL     1     -10.392  16.506  67.966  1.00  0.00    -0.294 A  
HETATM    9  C   UNL     1     -10.502  16.975  66.653  1.00  0.00    -0.253 A  
HETATM   10  C   UNL     1     -10.673  14.690  65.874  1.00  0.00    -0.312 A  
HETATM   11  C   UNL     1     -10.619  16.062  65.601  1.00  0.00    -0.392 A  
BRANCH   9  12
HETATM   12  C   UNL     1     -10.535  18.455  66.426  1.00  0.00    -0.383 C  
HETATM   13  O   UNL     1     -10.814  18.873  65.300  1.00  0.00    -0.559 OA 
BRANCH  12  14
HETATM   14  C   UNL     1     -10.169  19.395  67.557  1.00  0.00    -0.536 C  
BRANCH  14  15
HETATM   15  C   UNL     1      -9.047  20.336  67.105  1.00  0.00    -0.378 C  
BRANCH  15  16
HETATM   16  N   UNL     1      -7.776  20.216  67.832  1.00  0.00    -0.285 NA 
HETATM   17  C   UNL     1      -7.341  18.807  67.887  1.00  0.00    -0.241 C  
HETATM   18  C   UNL     1      -6.721  18.308  66.579  1.00  0.00    -0.241 C  
HETATM   19  C   UNL     1      -5.508  19.154  66.226  1.00  0.00    -0.172 C  
HETATM   20  C   UNL     1      -5.901  20.627  66.152  1.00  0.00    -0.240 C  
HETATM   21  C   UNL     1      -6.683  21.091  67.387  1.00  0.00    -0.383 C  
ENDBRANCH  15  16
ENDBRANCH  14  15
ENDBRANCH  12  14
ENDBRANCH   9  12
ENDBRANCH   5   6
ENDBRANCH   4   5
ENDBRANCH   3   4
ENDBRANCH   2   3
TORSDOF 8
ENDMDL
MODEL      124
REMARK 921   NORMALIZED FREE ENERGY PREDICTED BY IDOCK:   -4.04 KCAL/MOL
REMARK 922        TOTAL FREE ENERGY PREDICTED BY IDOCK:   -7.06 KCAL/MOL
REMARK 923 INTER-LIGAND FREE ENERGY PREDICTED BY IDOCK:   -6.20 KCAL/MOL
REMARK 924 INTRA-LIGAND FREE ENERGY PREDICTED BY IDOCK:   -0.86 KCAL/MOL
REMARK 927      BINDING AFFINITY PREDICTED BY RF-SCORE:    0.00 PKD
ROOT
HETATM    1  C   UNL     1     -12.624  13.966  65.812  1.00  0.00    -0.533 C  
HETATM    2  C   UNL     1     -12.127  14.167  64.390  1.00  0.00    -0.486 C  
ENDROOT
BRANCH   2   3
HETATM    3  C   UNL     1     -11.515  12.891  63.816  1.00  0.00    -0.519 C  
BRANCH   3   4
HETATM    4  C   UNL     1     -10.325  12.424  64.652  1.00  0.00    -0.307 C  
BRANCH   4   5
HETATM    5  O   UNL     1     -10.072  11.046  64.354  1.00  0.00    -0.280 OA 
BRANCH   5   6
HETATM    6  C   UNL     1      -9.928  10.232  65.448  1.00  0.00    -0.302 A  
HETATM    7  C   UNL     1      -9.110   9.102  65.496  1.00  0.00    -0.275 A  
HETATM    8  C   UNL     1      -9.040   8.338  66.669  1.00  0.00    -0.204 A  
HETATM    9  C   UNL     1      -9.801   8.690  67.789  1.00  0.00    -0.218 A  
HETATM   10  C   UNL     1     -10.633  10.621  66.590  1.00  0.00    -0.276 A  
HETATM   11  C   UNL     1     -10.582   9.849  67.756  1.00  0.00    -0.313 A  
BRANCH   9  12
HETATM   12  C   UNL     1      -9.784   7.779  68.977  1.00  0.00    -0.157 C  
HETATM   13  O   UNL     1      -8.772   7.744  69.680  1.00  0.00    -0.134 OA 
BRANCH  12  14
HETATM   14  C   UNL     1     -10.976   6.885  69.253  1.00  0.00    -0.260 C  
BRANCH  14  15
HETATM   15  C   UNL     1     -10.575   5.773  70.226  1.00  0.00    -0.299 C  
BRANCH  15  16
HETATM   16  N   UNL     1     -11.344   5.705  71.476  1.00  0.00    -0.125 NA 
HETATM   17  C   UNL     1     -10.517   5.148  72.564  1.00  0.00    -0.214 C  
HETATM   18  C   UNL     1      -9.522   6.154  73.150  1.00  0.00    -0.138 C  
HETATM   19  C   UNL     1     -10.268   7.357  73.703  1.00  0.00    -0.380 C  
HETATM   20  C   UNL     1     -11.142   7.977  72.616  1.00  0.00    -0.453 C  
HETATM   21  C   UNL     1     -12.016   6.940  71.900  1.00  0.00    -0.327 C  
ENDBRANCH  15  16
ENDBRANCH  14  15
ENDBRANCH  12  14
ENDBRANCH   9  12
ENDBRANCH   5   6
ENDBRANCH   4   5
ENDBRANCH   3   4
ENDBRANCH   2   3
TORSDOF 8
ENDMDL
MODEL      125
REMARK 921   NORMALIZED FREE ENERGY PREDICTED BY IDOCK:   -4.04 KCAL/MOL
REMARK 922        TOTAL FREE ENERGY PREDICTED BY IDOCK:   -7.05 KCAL/MOL
REMARK 923 INTER-LIGAND FREE ENERGY PREDICTED BY IDOCK:   -6.41 KCAL/MOL
REMARK 924 INTRA-LIGAND FREE ENERGY PREDICTED BY IDOCK:   -0.64 KCAL/MOL
REMARK 927      BINDING AFFINITY PREDICTED BY RF-SCORE:    0.00 PKD
ROOT
HETATM    1  C   UNL     1     -13.639  13.160  72.256  1.00  0.00    -0.677 C  
HETATM    2  C   UNL     1     -13.299  14.571  72.707  1.00  0.00    -0.600 C  
ENDROOT
BRANCH   2   3
HETATM    3  C   UNL     1     -13.258  15.547  71.533  1.00  0.00    -0.589 C  
BRANCH   3   4
HETATM    4  C   UNL     1     -11.940  15.436  70.767  1.00  0.00    -0.359 C  
BRANCH   4   5
HETATM    5  O   UNL     1     -12.227  15.439  69.364  1.00  0.00    -0.300 OA 
BRANCH   5   6
HETATM    6  C   UNL     1     -11.782  14.339  68.677  1.00  0.00    -0.345 A  
HETATM    7  C   UNL     1     -11.047  14.386  67.492  1.00  0.00    -0.312 A  
HETATM    8  C   UNL     1     -10.645  13.195  66.871  1.00  0.00    -0.265 A  
HETATM    9  C   UNL     1     -10.991  11.958  67.422  1.00  0.00    -0.315 A  
HETATM   10  C   UNL     1     -12.067  13.103  69.263  1.00  0.00    -0.270 A  
HETATM   11  C   UNL     1     -11.684  11.912  68.635  1.00  0.00    -0.380 A  
BRANCH   9  12
HETATM   12  C   UNL     1     -10.641  10.715  66.662  1.00  0.00    -0.214 C  
HETATM   13  O   UNL     1     -10.107  10.831  65.557  1.00  0.00    -0.248 OA 
BRANCH  12  14
HETATM   14  C   UNL     1     -11.000   9.360  67.236  1.00  0.00    -0.022 C  
BRANCH  14  15
HETATM   15  C   UNL     1      -9.764   8.455  67.239  1.00  0.00    -0.184 C  
BRANCH  15  16
HETATM   16  N   UNL     1      -9.275   8.040  68.561  1.00  0.00    -0.136 NA 
HETATM   17  C   UNL     1     -10.404   7.777  69.473  1.00  0.00    -0.219 C  
HETATM   18  C   UNL     1     -11.087   6.428  69.226  1.00  0.00    -0.437 C  
HETATM   19  C   UNL     1     -10.080   5.301  69.395  1.00  0.00    -0.311 C  
HETATM   20  C   UNL     1      -8.887   5.521  68.470  1.00  0.00    -0.104 C  
HETATM   21  C   UNL     1      -8.306   6.935  68.584  1.00  0.00    -0.121 C  
ENDBRANCH  15  16
ENDBRANCH  14  15
ENDBRANCH  12  14
ENDBRANCH   9  12
ENDBRANCH   5   6
ENDBRANCH   4   5
ENDBRANCH   3   4
ENDBRANCH   2   3
TORSDOF 8
ENDMDL
MODEL      126
REMARK 921   NORMALIZED FREE ENERGY PREDICTED BY IDOCK:   -4.02 KCAL/MOL
REMARK 922        TOTAL FREE ENERGY PREDICTED BY IDOCK:   -7.03 KCAL/MOL
REMARK 923 INTER-LIGAND FREE ENERGY PREDICTED BY IDOCK:   -6.13 KCAL/MOL
REMARK 924 INTRA-LIGAND FREE ENERGY PREDICTED BY IDOCK:   -0.89 KCAL/MOL
REMARK 927      BINDING AFFINITY PREDICTED BY RF-SCORE:    0.00 PKD
ROOT
HETATM    1  C   UNL     1     -12.041  13.847  64.846  1.00  0.00    -0.434 C  
HETATM    2  C   UNL     1     -12.399  13.091  63.576  1.00  0.00    -0.500 C  
ENDROOT
BRANCH   2   3
HETATM    3  C   UNL     1     -11.585  11.806  63.433  1.00  0.00    -0.419 C  
BRANCH   3   4
HETATM    4  C   UNL     1     -10.109  12.048  63.742  1.00  0.00    -0.394 C  
BRANCH   4   5
HETATM    5  O   UNL     1      -9.560  10.852  64.307  1.00  0.00    -0.231 OA 
BRANCH   5   6
HETATM    6  C   UNL     1      -9.837  10.657  65.635  1.00  0.00    -0.251 A  
HETATM    7  C   UNL     1     -10.276   9.453  66.188  1.00  0.00    -0.264 A  
HETATM    8  C   UNL     1     -10.531   9.366  67.563  1.00  0.00    -0.343 A  
HETATM    9  C   UNL     1     -10.366  10.485  68.386  1.00  0.00    -0.199 A  
HETATM   10  C   UNL     1      -9.606  11.754  66.470  1.00  0.00    -0.225 A  
HETATM   11  C   UNL     1      -9.880  11.677  67.840  1.00  0.00    -0.189 A  
BRANCH   9  12
HETATM   12  C   UNL     1     -10.764  10.377  69.826  1.00  0.00    -0.278 C  
HETATM   13  O   UNL     1     -11.686  11.083  70.238  1.00  0.00    -0.309 OA 
BRANCH  12  14
HETATM   14  C   UNL     1      -9.992   9.454  70.748  1.00  0.00    -0.358 C  
BRANCH  14  15
HETATM   15  C   UNL     1     -10.804   8.181  71.004  1.00  0.00    -0.235 C  
BRANCH  15  16
HETATM   16  N   UNL     1     -10.028   6.982  71.350  1.00  0.00    -0.185 NA 
HETATM   17  C   UNL     1      -9.075   7.277  72.437  1.00  0.00    -0.131 C  
HETATM   18  C   UNL     1      -9.729   7.338  73.821  1.00  0.00    -0.344 C  
HETATM   19  C   UNL     1     -10.396   6.009  74.136  1.00  0.00    -0.301 C  
HETATM   20  C   UNL     1     -11.398   5.653  73.042  1.00  0.00    -0.288 C  
HETATM   21  C   UNL     1     -10.797   5.764  71.635  1.00  0.00    -0.255 C  
ENDBRANCH  15  16
ENDBRANCH  14  15
ENDBRANCH  12  14
ENDBRANCH   9  12
ENDBRANCH   5   6
ENDBRANCH   4   5
ENDBRANCH   3   4
ENDBRANCH   2   3
TORSDOF 8
ENDMDL
MODEL      127
REMARK 921   NORMALIZED FREE ENERGY PREDICTED BY IDOCK:   -4.02 KCAL/MOL
REMARK 922        TOTAL FREE ENERGY PREDICTED BY IDOCK:   -7.02 KCAL/MOL
REMARK 923 INTER-LIGAND FREE ENERGY PREDICTED BY IDOCK:   -6.45 KCAL/MOL
REMARK 924 INTRA-LIGAND FREE ENERGY PREDICTED BY IDOCK:   -0.57 KCAL/MOL
REMARK 927      BINDING AFFINITY PREDICTED BY RF-SCORE:    0.00 PKD
ROOT
HETATM    1  C   UNL     1     -10.647   7.651  67.080  1.00  0.00    -0.410 C  
HETATM    2  C   UNL     1     -10.476   8.642  68.220  1.00  0.00    -0.234 C  
ENDROOT
BRANCH   2   3
HETATM    3  C   UNL     1      -9.945   9.987  67.728  1.00  0.00    -0.203 C  
BRANCH   3   4
HETATM    4  C   UNL     1      -9.702   9.968  66.220  1.00  0.00    -0.214 C  
BRANCH   4   5
HETATM    5  O   UNL     1     -10.635  10.859  65.598  1.00  0.00    -0.236 OA 
BRANCH   5   6
HETATM    6  C   UNL     1     -10.681  12.120  66.133  1.00  0.00    -0.272 A  
HETATM    7  C   UNL     1      -9.567  12.929  66.360  1.00  0.00    -0.252 A  
HETATM    8  C   UNL     1      -9.730  14.205  66.916  1.00  0.00    -0.272 A  
HETATM    9  C   UNL     1     -11.003  14.667  67.264  1.00  0.00    -0.317 A  
HETATM   10  C   UNL     1     -11.958  12.611  66.418  1.00  0.00    -0.425 A  
HETATM   11  C   UNL     1     -12.123  13.876  66.992  1.00  0.00    -0.451 A  
BRANCH   9  12
HETATM   12  C   UNL     1     -11.116  15.987  67.963  1.00  0.00    -0.334 C  
HETATM   13  O   UNL     1     -11.806  16.058  68.982  1.00  0.00    -0.362 OA 
BRANCH  12  14
HETATM   14  C   UNL     1     -10.436  17.207  67.375  1.00  0.00    -0.334 C  
BRANCH  14  15
HETATM   15  C   UNL     1      -9.288  17.650  68.288  1.00  0.00    -0.290 C  
BRANCH  15  16
HETATM   16  N   UNL     1      -7.989  17.856  67.633  1.00  0.00    -0.217 NA 
HETATM   17  C   UNL     1      -8.122  18.789  66.498  1.00  0.00    -0.289 C  
HETATM   18  C   UNL     1      -8.219  20.257  66.923  1.00  0.00    -0.345 C  
HETATM   19  C   UNL     1      -6.976  20.651  67.705  1.00  0.00    -0.376 C  
HETATM   20  C   UNL     1      -6.789  19.718  68.897  1.00  0.00    -0.373 C  
HETATM   21  C   UNL     1      -6.870  18.238  68.505  1.00  0.00    -0.249 C  
ENDBRANCH  15  16
ENDBRANCH  14  15
ENDBRANCH  12  14
ENDBRANCH   9  12
ENDBRANCH   5   6
ENDBRANCH   4   5
ENDBRANCH   3   4
ENDBRANCH   2   3
TORSDOF 8
ENDMDL
MODEL      128
REMARK 921   NORMALIZED FREE ENERGY PREDICTED BY IDOCK:   -4.01 KCAL/MOL
REMARK 922        TOTAL FREE ENERGY PREDICTED BY IDOCK:   -7.00 KCAL/MOL
REMARK 923 INTER-LIGAND FREE ENERGY PREDICTED BY IDOCK:   -6.16 KCAL/MOL
REMARK 924 INTRA-LIGAND FREE ENERGY PREDICTED BY IDOCK:   -0.84 KCAL/MOL
REMARK 927      BINDING AFFINITY PREDICTED BY RF-SCORE:    0.00 PKD
ROOT
HETATM    1  C   UNL     1     -12.198  10.697  71.102  1.00  0.00    -0.479 C  
HETATM    2  C   UNL     1     -11.536   9.412  70.632  1.00  0.00    -0.344 C  
ENDROOT
BRANCH   2   3
HETATM    3  C   UNL     1     -10.376   9.688  69.677  1.00  0.00    -0.245 C  
BRANCH   3   4
HETATM    4  C   UNL     1     -10.882  10.117  68.301  1.00  0.00    -0.252 C  
BRANCH   4   5
HETATM    5  O   UNL     1      -9.885  10.940  67.686  1.00  0.00    -0.168 OA 
BRANCH   5   6
HETATM    6  C   UNL     1     -10.138  12.287  67.724  1.00  0.00    -0.201 A  
HETATM    7  C   UNL     1     -11.400  12.865  67.580  1.00  0.00    -0.354 A  
HETATM    8  C   UNL     1     -11.542  14.258  67.633  1.00  0.00    -0.396 A  
HETATM    9  C   UNL     1     -10.423  15.077  67.813  1.00  0.00    -0.249 A  
HETATM   10  C   UNL     1      -9.031  13.104  67.973  1.00  0.00    -0.195 A  
HETATM   11  C   UNL     1      -9.167  14.496  68.007  1.00  0.00    -0.190 A  
BRANCH   9  12
HETATM   12  C   UNL     1     -10.608  16.562  67.746  1.00  0.00    -0.332 C  
HETATM   13  O   UNL     1     -10.945  17.161  68.769  1.00  0.00    -0.258 OA 
BRANCH  12  14
HETATM   14  C   UNL     1     -10.437  17.279  66.422  1.00  0.00    -0.263 C  
BRANCH  14  15
HETATM   15  C   UNL     1      -9.665  18.584  66.636  1.00  0.00    -0.341 C  
BRANCH  15  16
HETATM   16  N   UNL     1      -8.239  18.553  66.283  1.00  0.00    -0.406 NA 
HETATM   17  C   UNL     1      -7.751  19.911  65.977  1.00  0.00    -0.325 C  
HETATM   18  C   UNL     1      -7.494  20.763  67.223  1.00  0.00    -0.381 C  
HETATM   19  C   UNL     1      -6.460  20.086  68.107  1.00  0.00    -0.301 C  
HETATM   20  C   UNL     1      -6.915  18.673  68.459  1.00  0.00    -0.285 C  
HETATM   21  C   UNL     1      -7.345  17.869  67.227  1.00  0.00    -0.192 C  
ENDBRANCH  15  16
ENDBRANCH  14  15
ENDBRANCH  12  14
ENDBRANCH   9  12
ENDBRANCH   5   6
ENDBRANCH   4   5
ENDBRANCH   3   4
ENDBRANCH   2   3
TORSDOF 8
ENDMDL
MODEL      129
REMARK 921   NORMALIZED FREE ENERGY PREDICTED BY IDOCK:   -3.99 KCAL/MOL
REMARK 922        TOTAL FREE ENERGY PREDICTED BY IDOCK:   -6.98 KCAL/MOL
REMARK 923 INTER-LIGAND FREE ENERGY PREDICTED BY IDOCK:   -6.06 KCAL/MOL
REMARK 924 INTRA-LIGAND FREE ENERGY PREDICTED BY IDOCK:   -0.92 KCAL/MOL
REMARK 927      BINDING AFFINITY PREDICTED BY RF-SCORE:    0.00 PKD
ROOT
HETATM    1  C   UNL     1      -9.232   4.598  69.583  1.00  0.00    -0.186 C  
HETATM    2  C   UNL     1      -8.694   3.799  70.759  1.00  0.00    -0.121 C  
ENDROOT
BRANCH   2   3
HETATM    3  C   UNL     1      -9.755   3.596  71.840  1.00  0.00    -0.236 C  
BRANCH   3   4
HETATM    4  C   UNL     1      -9.465   4.458  73.068  1.00  0.00    -0.128 C  
BRANCH   4   5
HETATM    5  O   UNL     1     -10.675   5.117  73.458  1.00  0.00    -0.236 OA 
BRANCH   5   6
HETATM    6  C   UNL     1     -10.952   6.276  72.780  1.00  0.00    -0.260 A  
HETATM    7  C   UNL     1     -10.090   7.369  72.689  1.00  0.00    -0.255 A  
HETATM    8  C   UNL     1     -10.477   8.508  71.969  1.00  0.00    -0.407 A  
HETATM    9  C   UNL     1     -11.732   8.563  71.355  1.00  0.00    -0.346 A  
HETATM   10  C   UNL     1     -12.176   6.307  72.107  1.00  0.00    -0.255 A  
HETATM   11  C   UNL     1     -12.575   7.449  71.405  1.00  0.00    -0.405 A  
BRANCH   9  12
HETATM   12  C   UNL     1     -12.148   9.843  70.698  1.00  0.00    -0.257 C  
HETATM   13  O   UNL     1     -13.336  10.172  70.746  1.00  0.00    -0.361 OA 
BRANCH  12  14
HETATM   14  C   UNL     1     -11.123  10.667  69.946  1.00  0.00    -0.364 C  
BRANCH  14  15
HETATM   15  C   UNL     1     -11.701  11.108  68.598  1.00  0.00    -0.320 C  
BRANCH  15  16
HETATM   16  N   UNL     1     -11.041  12.255  67.959  1.00  0.00    -0.224 NA 
HETATM   17  C   UNL     1      -9.834  11.819  67.230  1.00  0.00    -0.185 C  
HETATM   18  C   UNL     1     -10.140  11.156  65.884  1.00  0.00    -0.296 C  
HETATM   19  C   UNL     1     -10.896  12.127  64.991  1.00  0.00    -0.344 C  
HETATM   20  C   UNL     1     -12.160  12.611  65.695  1.00  0.00    -0.502 C  
HETATM   21  C   UNL     1     -11.886  13.113  67.118  1.00  0.00    -0.369 C  
ENDBRANCH  15  16
ENDBRANCH  14  15
ENDBRANCH  12  14
ENDBRANCH   9  12
ENDBRANCH   5   6
ENDBRANCH   4   5
ENDBRANCH   3   4
ENDBRANCH   2   3
TORSDOF 8
ENDMDL
MODEL      130
REMARK 921   NORMALIZED FREE ENERGY PREDICTED BY IDOCK:   -3.99 KCAL/MOL
REMARK 922        TOTAL FREE ENERGY PREDICTED BY IDOCK:   -6.97 KCAL/MOL
REMARK 923 INTER-LIGAND FREE ENERGY PREDICTED BY IDOCK:   -5.99 KCAL/MOL
REMARK 924 INTRA-LIGAND FREE ENERGY PREDICTED BY IDOCK:   -0.99 KCAL/MOL
REMARK 927      BINDING AFFINITY PREDICTED BY RF-SCORE:    0.00 PKD
ROOT
HETATM    1  C   UNL     1     -10.400  11.621  63.387  1.00  0.00    -0.482 C  
HETATM    2  C   UNL     1     -11.676  12.382  63.707  1.00  0.00    -0.566 C  
ENDROOT
BRANCH   2   3
HETATM    3  C   UNL     1     -11.518  13.258  64.949  1.00  0.00    -0.342 C  
BRANCH   3   4
HETATM    4  C   UNL     1     -10.367  12.770  65.827  1.00  0.00    -0.281 C  
BRANCH   4   5
HETATM    5  O   UNL     1     -10.819  12.721  67.185  1.00  0.00    -0.249 OA 
BRANCH   5   6
HETATM    6  C   UNL     1     -10.759  11.484  67.774  1.00  0.00    -0.207 A  
HETATM    7  C   UNL     1     -11.208  11.194  69.063  1.00  0.00    -0.318 A  
HETATM    8  C   UNL     1     -11.094   9.891  69.567  1.00  0.00    -0.255 A  
HETATM    9  C   UNL     1     -10.516   8.881  68.792  1.00  0.00    -0.223 A  
HETATM   10  C   UNL     1     -10.245  10.458  66.976  1.00  0.00    -0.277 A  
HETATM   11  C   UNL     1     -10.111   9.161  67.483  1.00  0.00    -0.284 A  
BRANCH   9  12
HETATM   12  C   UNL     1     -10.309   7.535  69.415  1.00  0.00    -0.213 C  
HETATM   13  O   UNL     1      -9.203   7.000  69.311  1.00  0.00    -0.141 OA 
BRANCH  12  14
HETATM   14  C   UNL     1     -11.468   6.841  70.101  1.00  0.00    -0.404 C  
BRANCH  14  15
HETATM   15  C   UNL     1     -10.937   5.856  71.147  1.00  0.00    -0.260 C  
BRANCH  15  16
HETATM   16  N   UNL     1     -11.060   6.278  72.549  1.00  0.00    -0.259 NA 
HETATM   17  C   UNL     1      -9.956   5.725  73.356  1.00  0.00    -0.177 C  
HETATM   18  C   UNL     1      -8.632   6.474  73.174  1.00  0.00    -0.126 C  
HETATM   19  C   UNL     1      -8.807   7.933  73.565  1.00  0.00    -0.333 C  
HETATM   20  C   UNL     1      -9.940   8.560  72.756  1.00  0.00    -0.193 C  
HETATM   21  C   UNL     1     -11.221   7.718  72.787  1.00  0.00    -0.398 C  
ENDBRANCH  15  16
ENDBRANCH  14  15
ENDBRANCH  12  14
ENDBRANCH   9  12
ENDBRANCH   5   6
ENDBRANCH   4   5
ENDBRANCH   3   4
ENDBRANCH   2   3
TORSDOF 8
ENDMDL
MODEL      131
REMARK 921   NORMALIZED FREE ENERGY PREDICTED BY IDOCK:   -3.96 KCAL/MOL
REMARK 922        TOTAL FREE ENERGY PREDICTED BY IDOCK:   -6.93 KCAL/MOL
REMARK 923 INTER-LIGAND FREE ENERGY PREDICTED BY IDOCK:   -5.52 KCAL/MOL
REMARK 924 INTRA-LIGAND FREE ENERGY PREDICTED BY IDOCK:   -1.42 KCAL/MOL
REMARK 927      BINDING AFFINITY PREDICTED BY RF-SCORE:    0.00 PKD
ROOT
HETATM    1  C   UNL     1     -10.199  16.056  68.496  1.00  0.00    -0.236 C  
HETATM    2  C   UNL     1     -10.217  14.675  67.861  1.00  0.00    -0.226 C  
ENDROOT
BRANCH   2   3
HETATM    3  C   UNL     1     -11.602  14.314  67.326  1.00  0.00    -0.401 C  
BRANCH   3   4
HETATM    4  C   UNL     1     -11.543  13.083  66.423  1.00  0.00    -0.363 C  
BRANCH   4   5
HETATM    5  O   UNL     1     -12.090  11.968  67.136  1.00  0.00    -0.587 OA 
BRANCH   5   6
HETATM    6  C   UNL     1     -11.189  11.261  67.889  1.00  0.00    -0.290 A  
HETATM    7  C   UNL     1     -11.423  10.800  69.186  1.00  0.00    -0.368 A  
HETATM    8  C   UNL     1     -10.427  10.087  69.866  1.00  0.00    -0.317 A  
HETATM    9  C   UNL     1      -9.189   9.848  69.260  1.00  0.00    -0.207 A  
HETATM   10  C   UNL     1      -9.977  10.961  67.261  1.00  0.00    -0.216 A  
HETATM   11  C   UNL     1      -8.972  10.267  67.944  1.00  0.00    -0.131 A  
BRANCH   9  12
HETATM   12  C   UNL     1      -8.116   9.185  70.068  1.00  0.00    -0.128 C  
HETATM   13  O   UNL     1      -7.651   9.787  71.038  1.00  0.00    -0.311 OA 
BRANCH  12  14
HETATM   14  C   UNL     1      -7.589   7.829  69.644  1.00  0.00    -0.092 C  
BRANCH  14  15
HETATM   15  C   UNL     1      -8.422   6.723  70.300  1.00  0.00    -0.135 C  
BRANCH  15  16
HETATM   16  N   UNL     1      -8.876   5.646  69.408  1.00  0.00    -0.111 NA 
HETATM   17  C   UNL     1     -10.287   5.311  69.677  1.00  0.00    -0.278 C  
HETATM   18  C   UNL     1     -11.277   6.316  69.081  1.00  0.00    -0.439 C  
HETATM   19  C   UNL     1     -11.096   6.387  67.574  1.00  0.00    -0.401 C  
HETATM   20  C   UNL     1      -9.649   6.735  67.236  1.00  0.00    -0.165 C  
HETATM   21  C   UNL     1      -8.642   5.843  67.972  1.00  0.00    -0.113 C  
ENDBRANCH  15  16
ENDBRANCH  14  15
ENDBRANCH  12  14
ENDBRANCH   9  12
ENDBRANCH   5   6
ENDBRANCH   4   5
ENDBRANCH   3   4
ENDBRANCH   2   3
TORSDOF 8
ENDMDL
MODEL      132
REMARK 921   NORMALIZED FREE ENERGY PREDICTED BY IDOCK:   -3.94 KCAL/MOL
REMARK 922        TOTAL FREE ENERGY PREDICTED BY IDOCK:   -6.90 KCAL/MOL
REMARK 923 INTER-LIGAND FREE ENERGY PREDICTED BY IDOCK:   -6.10 KCAL/MOL
REMARK 924 INTRA-LIGAND FREE ENERGY PREDICTED BY IDOCK:   -0.80 KCAL/MOL
REMARK 927      BINDING AFFINITY PREDICTED BY RF-SCORE:    0.00 PKD
ROOT
HETATM    1  C   UNL     1     -12.362  13.264  65.315  1.00  0.00    -0.525 C  
HETATM    2  C   UNL     1     -10.905  13.264  65.748  1.00  0.00    -0.286 C  
ENDROOT
BRANCH   2   3
HETATM    3  C   UNL     1     -10.751  13.628  67.223  1.00  0.00    -0.283 C  
BRANCH   3   4
HETATM    4  C   UNL     1     -12.006  13.266  68.016  1.00  0.00    -0.313 C  
BRANCH   4   5
HETATM    5  O   UNL     1     -11.643  13.098  69.391  1.00  0.00    -0.280 OA 
BRANCH   5   6
HETATM    6  C   UNL     1     -11.628  11.801  69.834  1.00  0.00    -0.274 A  
HETATM    7  C   UNL     1     -10.678  10.846  69.470  1.00  0.00    -0.251 A  
HETATM    8  C   UNL     1     -10.761   9.544  69.983  1.00  0.00    -0.278 A  
HETATM    9  C   UNL     1     -11.802   9.189  70.846  1.00  0.00    -0.327 A  
HETATM   10  C   UNL     1     -12.627  11.462  70.751  1.00  0.00    -0.409 A  
HETATM   11  C   UNL     1     -12.725  10.159  71.250  1.00  0.00    -0.509 A  
BRANCH   9  12
HETATM   12  C   UNL     1     -11.917   7.759  71.275  1.00  0.00    -0.302 C  
HETATM   13  O   UNL     1     -11.907   7.502  72.481  1.00  0.00    -0.285 OA 
BRANCH  12  14
HETATM   14  C   UNL     1     -11.982   6.666  70.228  1.00  0.00    -0.302 C  
BRANCH  14  15
HETATM   15  C   UNL     1     -10.733   5.784  70.321  1.00  0.00    -0.309 C  
BRANCH  15  16
HETATM   16  N   UNL     1      -9.684   6.048  69.327  1.00  0.00    -0.138 NA 
HETATM   17  C   UNL     1      -8.852   4.847  69.119  1.00  0.00    -0.092 C  
HETATM   18  C   UNL     1      -9.519   3.788  68.237  1.00  0.00    -0.215 C  
HETATM   19  C   UNL     1      -9.833   4.377  66.871  1.00  0.00    -0.235 C  
HETATM   20  C   UNL     1     -10.697   5.625  67.025  1.00  0.00    -0.332 C  
HETATM   21  C   UNL     1     -10.124   6.616  68.046  1.00  0.00    -0.154 C  
ENDBRANCH  15  16
ENDBRANCH  14  15
ENDBRANCH  12  14
ENDBRANCH   9  12
ENDBRANCH   5   6
ENDBRANCH   4   5
ENDBRANCH   3   4
ENDBRANCH   2   3
TORSDOF 8
ENDMDL
MODEL      133
REMARK 921   NORMALIZED FREE ENERGY PREDICTED BY IDOCK:   -3.93 KCAL/MOL
REMARK 922        TOTAL FREE ENERGY PREDICTED BY IDOCK:   -6.89 KCAL/MOL
REMARK 923 INTER-LIGAND FREE ENERGY PREDICTED BY IDOCK:   -6.12 KCAL/MOL
REMARK 924 INTRA-LIGAND FREE ENERGY PREDICTED BY IDOCK:   -0.77 KCAL/MOL
REMARK 927      BINDING AFFINITY PREDICTED BY RF-SCORE:    0.00 PKD
ROOT
HETATM    1  C   UNL     1      -9.753   4.469  69.189  1.00  0.00    -0.250 C  
HETATM    2  C   UNL     1      -9.178   4.255  70.580  1.00  0.00    -0.193 C  
ENDROOT
BRANCH   2   3
HETATM    3  C   UNL     1     -10.102   4.804  71.667  1.00  0.00    -0.264 C  
BRANCH   3   4
HETATM    4  C   UNL     1     -11.076   5.833  71.096  1.00  0.00    -0.187 C  
BRANCH   4   5
HETATM    5  O   UNL     1     -10.758   7.116  71.646  1.00  0.00    -0.213 OA 
BRANCH   5   6
HETATM    6  C   UNL     1     -10.805   8.158  70.757  1.00  0.00    -0.228 A  
HETATM    7  C   UNL     1     -11.248   9.446  71.063  1.00  0.00    -0.412 A  
HETATM    8  C   UNL     1     -11.257  10.437  70.072  1.00  0.00    -0.385 A  
HETATM    9  C   UNL     1     -10.840  10.140  68.771  1.00  0.00    -0.259 A  
HETATM   10  C   UNL     1     -10.325   7.883  69.474  1.00  0.00    -0.217 A  
HETATM   11  C   UNL     1     -10.351   8.864  68.477  1.00  0.00    -0.229 A  
BRANCH   9  12
HETATM   12  C   UNL     1     -10.978  11.198  67.719  1.00  0.00    -0.262 C  
HETATM   13  O   UNL     1     -11.936  11.971  67.782  1.00  0.00    -0.538 OA 
BRANCH  12  14
HETATM   14  C   UNL     1      -9.980  11.255  66.580  1.00  0.00    -0.247 C  
BRANCH  14  15
HETATM   15  C   UNL     1     -10.634  10.742  65.293  1.00  0.00    -0.160 C  
BRANCH  15  16
HETATM   16  N   UNL     1     -10.667  11.685  64.168  1.00  0.00    -0.332 NA 
HETATM   17  C   UNL     1     -12.048  11.866  63.682  1.00  0.00    -0.477 C  
HETATM   18  C   UNL     1     -12.891  12.787  64.570  1.00  0.00    -0.323 C  
HETATM   19  C   UNL     1     -12.244  14.160  64.650  1.00  0.00    -0.465 C  
HETATM   20  C   UNL     1     -10.808  14.035  65.151  1.00  0.00    -0.376 C  
HETATM   21  C   UNL     1     -10.006  12.980  64.379  1.00  0.00    -0.105 C  
ENDBRANCH  15  16
ENDBRANCH  14  15
ENDBRANCH  12  14
ENDBRANCH   9  12
ENDBRANCH   5   6
ENDBRANCH   4   5
ENDBRANCH   3   4
ENDBRANCH   2   3
TORSDOF 8
ENDMDL
MODEL      134
REMARK 921   NORMALIZED FREE ENERGY PREDICTED BY IDOCK:   -3.91 KCAL/MOL
REMARK 922        TOTAL FREE ENERGY PREDICTED BY IDOCK:   -6.85 KCAL/MOL
REMARK 923 INTER-LIGAND FREE ENERGY PREDICTED BY IDOCK:   -6.32 KCAL/MOL
REMARK 924 INTRA-LIGAND FREE ENERGY PREDICTED BY IDOCK:   -0.54 KCAL/MOL
REMARK 927      BINDING AFFINITY PREDICTED BY RF-SCORE:    0.00 PKD
ROOT
HETATM    1  C   UNL     1      -8.282   8.396  62.459  1.00  0.00    -0.179 C  
HETATM    2  C   UNL     1      -8.053   8.404  63.961  1.00  0.00    -0.142 C  
ENDROOT
BRANCH   2   3
HETATM    3  C   UNL     1      -8.395   9.759  64.580  1.00  0.00    -0.168 C  
BRANCH   3   4
HETATM    4  C   UNL     1      -9.906   9.979  64.630  1.00  0.00    -0.218 C  
BRANCH   4   5
HETATM    5  O   UNL     1     -10.214  10.759  65.790  1.00  0.00    -0.248 OA 
BRANCH   5   6
HETATM    6  C   UNL     1     -10.482  12.082  65.548  1.00  0.00    -0.269 A  
HETATM    7  C   UNL     1     -11.501  12.548  64.716  1.00  0.00    -0.369 A  
HETATM    8  C   UNL     1     -11.683  13.926  64.538  1.00  0.00    -0.430 A  
HETATM    9  C   UNL     1     -10.838  14.840  65.175  1.00  0.00    -0.417 A  
HETATM   10  C   UNL     1      -9.683  12.998  66.238  1.00  0.00    -0.265 A  
HETATM   11  C   UNL     1      -9.850  14.374  66.047  1.00  0.00    -0.342 A  
BRANCH   9  12
HETATM   12  C   UNL     1     -10.997  16.296  64.863  1.00  0.00    -0.307 C  
HETATM   13  O   UNL     1     -11.658  16.618  63.873  1.00  0.00    -1.204 OA 
BRANCH  12  14
HETATM   14  C   UNL     1     -10.300  17.328  65.726  1.00  0.00    -0.245 C  
BRANCH  14  15
HETATM   15  C   UNL     1     -10.879  17.293  67.144  1.00  0.00    -0.085 C  
BRANCH  15  16
HETATM   16  N   UNL     1     -10.087  17.973  68.178  1.00  0.00    -0.351 NA 
HETATM   17  C   UNL     1      -9.818  17.063  69.308  1.00  0.00    -0.126 C  
HETATM   18  C   UNL     1      -8.705  16.051  69.024  1.00  0.00    -0.245 C  
HETATM   19  C   UNL     1      -7.412  16.782  68.699  1.00  0.00    -0.219 C  
HETATM   20  C   UNL     1      -7.631  17.740  67.531  1.00  0.00    -0.214 C  
HETATM   21  C   UNL     1      -8.857  18.639  67.729  1.00  0.00    -0.275 C  
ENDBRANCH  15  16
ENDBRANCH  14  15
ENDBRANCH  12  14
ENDBRANCH   9  12
ENDBRANCH   5   6
ENDBRANCH   4   5
ENDBRANCH   3   4
ENDBRANCH   2   3
TORSDOF 8
ENDMDL
MODEL      135
REMARK 921   NORMALIZED FREE ENERGY PREDICTED BY IDOCK:   -3.88 KCAL/MOL
REMARK 922        TOTAL FREE ENERGY PREDICTED BY IDOCK:   -6.82 KCAL/MOL
REMARK 923 INTER-LIGAND FREE ENERGY PREDICTED BY IDOCK:   -6.44 KCAL/MOL
REMARK 924 INTRA-LIGAND FREE ENERGY PREDICTED BY IDOCK:   -0.38 KCAL/MOL
REMARK 927      BINDING AFFINITY PREDICTED BY RF-SCORE:    0.00 PKD
ROOT
HETATM    1  C   UNL     1      -7.751   8.436  62.337  1.00  0.00    -0.129 C  
HETATM    2  C   UNL     1      -7.657   8.409  63.854  1.00  0.00    -0.135 C  
ENDROOT
BRANCH   2   3
HETATM    3  C   UNL     1      -8.186   9.699  64.478  1.00  0.00    -0.151 C  
BRANCH   3   4
HETATM    4  C   UNL     1      -9.660   9.914  64.137  1.00  0.00    -0.108 C  
BRANCH   4   5
HETATM    5  O   UNL     1     -10.312  10.487  65.275  1.00  0.00    -0.287 OA 
BRANCH   5   6
HETATM    6  C   UNL     1     -10.491  11.845  65.221  1.00  0.00    -0.275 A  
HETATM    7  C   UNL     1     -11.081  12.528  64.156  1.00  0.00    -0.426 A  
HETATM    8  C   UNL     1     -11.211  13.922  64.206  1.00  0.00    -0.278 A  
HETATM    9  C   UNL     1     -10.739  14.639  65.310  1.00  0.00    -0.396 A  
HETATM   10  C   UNL     1     -10.083  12.556  66.353  1.00  0.00    -0.255 A  
HETATM   11  C   UNL     1     -10.194  13.950  66.397  1.00  0.00    -0.292 A  
BRANCH   9  12
HETATM   12  C   UNL     1     -10.794  16.135  65.266  1.00  0.00    -0.336 C  
HETATM   13  O   UNL     1     -11.374  16.676  64.322  1.00  0.00    -1.116 OA 
BRANCH  12  14
HETATM   14  C   UNL     1     -10.093  16.942  66.340  1.00  0.00    -0.331 C  
BRANCH  14  15
HETATM   15  C   UNL     1      -8.581  16.718  66.252  1.00  0.00    -0.305 C  
BRANCH  15  16
HETATM   16  N   UNL     1      -7.751  17.595  67.088  1.00  0.00    -0.201 NA 
HETATM   17  C   UNL     1      -6.403  17.744  66.506  1.00  0.00    -0.203 C  
HETATM   18  C   UNL     1      -6.354  18.712  65.321  1.00  0.00    -0.296 C  
HETATM   19  C   UNL     1      -6.825  20.089  65.759  1.00  0.00    -0.304 C  
HETATM   20  C   UNL     1      -8.220  19.996  66.369  1.00  0.00    -0.338 C  
HETATM   21  C   UNL     1      -8.324  18.901  67.438  1.00  0.00    -0.275 C  
ENDBRANCH  15  16
ENDBRANCH  14  15
ENDBRANCH  12  14
ENDBRANCH   9  12
ENDBRANCH   5   6
ENDBRANCH   4   5
ENDBRANCH   3   4
ENDBRANCH   2   3
TORSDOF 8
ENDMDL
MODEL      136
REMARK 921   NORMALIZED FREE ENERGY PREDICTED BY IDOCK:   -3.87 KCAL/MOL
REMARK 922        TOTAL FREE ENERGY PREDICTED BY IDOCK:   -6.81 KCAL/MOL
REMARK 923 INTER-LIGAND FREE ENERGY PREDICTED BY IDOCK:   -6.44 KCAL/MOL
REMARK 924 INTRA-LIGAND FREE ENERGY PREDICTED BY IDOCK:   -0.37 KCAL/MOL
REMARK 927      BINDING AFFINITY PREDICTED BY RF-SCORE:    0.00 PKD
ROOT
HETATM    1  C   UNL     1     -12.876  11.322  71.353  1.00  0.00    -0.515 C  
HETATM    2  C   UNL     1     -11.958  10.645  70.348  1.00  0.00    -0.436 C  
ENDROOT
BRANCH   2   3
HETATM    3  C   UNL     1     -12.125  11.225  68.945  1.00  0.00    -0.292 C  
BRANCH   3   4
HETATM    4  C   UNL     1     -11.384  12.554  68.804  1.00  0.00    -0.293 C  
BRANCH   4   5
HETATM    5  O   UNL     1     -11.042  12.740  67.427  1.00  0.00    -0.255 OA 
BRANCH   5   6
HETATM    6  C   UNL     1     -10.043  13.650  67.194  1.00  0.00    -0.245 A  
HETATM    7  C   UNL     1      -8.755  13.571  67.726  1.00  0.00    -0.189 A  
HETATM    8  C   UNL     1      -7.810  14.561  67.422  1.00  0.00    -0.221 A  
HETATM    9  C   UNL     1      -8.155  15.640  66.602  1.00  0.00    -0.239 A  
HETATM   10  C   UNL     1     -10.364  14.692  66.320  1.00  0.00    -0.301 A  
HETATM   11  C   UNL     1      -9.430  15.693  66.030  1.00  0.00    -0.390 A  
BRANCH   9  12
HETATM   12  C   UNL     1      -7.151  16.733  66.401  1.00  0.00    -0.151 C  
HETATM   13  O   UNL     1      -5.965  16.495  66.641  1.00  0.00    -0.319 OA 
BRANCH  12  14
HETATM   14  C   UNL     1      -7.617  18.109  65.970  1.00  0.00    -0.233 C  
BRANCH  14  15
HETATM   15  C   UNL     1      -7.095  19.163  66.951  1.00  0.00    -0.204 C  
BRANCH  15  16
HETATM   16  N   UNL     1      -8.117  19.961  67.641  1.00  0.00    -0.298 NA 
HETATM   17  C   UNL     1      -9.096  20.497  66.676  1.00  0.00    -0.118 C  
HETATM   18  C   UNL     1     -10.122  19.461  66.209  1.00  0.00    -0.539 C  
HETATM   19  C   UNL     1     -10.893  18.923  67.403  1.00  0.00    -0.449 C  
HETATM   20  C   UNL     1      -9.928  18.352  68.437  1.00  0.00    -0.406 C  
HETATM   21  C   UNL     1      -8.790  19.321  68.779  1.00  0.00    -0.346 C  
ENDBRANCH  15  16
ENDBRANCH  14  15
ENDBRANCH  12  14
ENDBRANCH   9  12
ENDBRANCH   5   6
ENDBRANCH   4   5
ENDBRANCH   3   4
ENDBRANCH   2   3
TORSDOF 8
ENDMDL
MODEL      137
REMARK 921   NORMALIZED FREE ENERGY PREDICTED BY IDOCK:   -3.87 KCAL/MOL
REMARK 922        TOTAL FREE ENERGY PREDICTED BY IDOCK:   -6.80 KCAL/MOL
REMARK 923 INTER-LIGAND FREE ENERGY PREDICTED BY IDOCK:   -6.16 KCAL/MOL
REMARK 924 INTRA-LIGAND FREE ENERGY PREDICTED BY IDOCK:   -0.64 KCAL/MOL
REMARK 927      BINDING AFFINITY PREDICTED BY RF-SCORE:    0.00 PKD
ROOT
HETATM    1  C   UNL     1      -7.959   5.987  63.594  1.00  0.00    -0.108 C  
HETATM    2  C   UNL     1      -7.134   7.255  63.748  1.00  0.00    -0.069 C  
ENDROOT
BRANCH   2   3
HETATM    3  C   UNL     1      -8.005   8.460  64.099  1.00  0.00    -0.151 C  
BRANCH   3   4
HETATM    4  C   UNL     1      -8.647   8.297  65.476  1.00  0.00    -0.159 C  
BRANCH   4   5
HETATM    5  O   UNL     1      -9.364   9.496  65.789  1.00  0.00    -0.194 OA 
BRANCH   5   6
HETATM    6  C   UNL     1      -9.866   9.558  67.063  1.00  0.00    -0.190 A  
HETATM    7  C   UNL     1      -9.657   8.592  68.048  1.00  0.00    -0.168 A  
HETATM    8  C   UNL     1     -10.222   8.756  69.320  1.00  0.00    -0.215 A  
HETATM    9  C   UNL     1     -11.011   9.876  69.605  1.00  0.00    -0.285 A  
HETATM   10  C   UNL     1     -10.597  10.709  67.371  1.00  0.00    -0.304 A  
HETATM   11  C   UNL     1     -11.179  10.867  68.633  1.00  0.00    -0.326 A  
BRANCH   9  12
HETATM   12  C   UNL     1     -11.689   9.950  70.938  1.00  0.00    -0.364 C  
HETATM   13  O   UNL     1     -11.200   9.329  71.884  1.00  0.00    -0.370 OA 
BRANCH  12  14
HETATM   14  C   UNL     1     -12.981  10.729  71.079  1.00  0.00    -0.425 C  
BRANCH  14  15
HETATM   15  C   UNL     1     -12.733  11.996  71.904  1.00  0.00    -0.102 C  
BRANCH  15  16
HETATM   16  N   UNL     1     -13.284  13.241  71.351  1.00  0.00    -0.274 NA 
HETATM   17  C   UNL     1     -13.950  14.027  72.407  1.00  0.00    -0.521 C  
HETATM   18  C   UNL     1     -12.974  14.781  73.315  1.00  0.00    -0.608 C  
HETATM   19  C   UNL     1     -12.131  15.737  72.486  1.00  0.00    -0.591 C  
HETATM   20  C   UNL     1     -11.413  14.975  71.376  1.00  0.00    -0.369 C  
HETATM   21  C   UNL     1     -12.360  14.076  70.572  1.00  0.00    -0.367 C  
ENDBRANCH  15  16
ENDBRANCH  14  15
ENDBRANCH  12  14
ENDBRANCH   9  12
ENDBRANCH   5   6
ENDBRANCH   4   5
ENDBRANCH   3   4
ENDBRANCH   2   3
TORSDOF 8
ENDMDL
MODEL      138
REMARK 921   NORMALIZED FREE ENERGY PREDICTED BY IDOCK:   -3.86 KCAL/MOL
REMARK 922        TOTAL FREE ENERGY PREDICTED BY IDOCK:   -6.79 KCAL/MOL
REMARK 923 INTER-LIGAND FREE ENERGY PREDICTED BY IDOCK:   -5.91 KCAL/MOL
REMARK 924 INTRA-LIGAND FREE ENERGY PREDICTED BY IDOCK:   -0.88 KCAL/MOL
REMARK 927      BINDING AFFINITY PREDICTED BY RF-SCORE:    0.00 PKD
ROOT
HETATM    1  C   UNL     1     -10.300  19.863  68.786  1.00  0.00    -0.356 C  
HETATM    2  C   UNL     1      -9.213  19.975  67.730  1.00  0.00    -0.435 C  
ENDROOT
BRANCH   2   3
HETATM    3  C   UNL     1      -9.796  20.044  66.320  1.00  0.00    -0.576 C  
BRANCH   3   4
HETATM    4  C   UNL     1     -10.503  18.742  65.948  1.00  0.00    -0.376 C  
BRANCH   4   5
HETATM    5  O   UNL     1      -9.518  17.712  65.814  1.00  0.00    -0.516 OA 
BRANCH   5   6
HETATM    6  C   UNL     1      -9.980  16.436  66.010  1.00  0.00    -0.345 A  
HETATM    7  C   UNL     1     -10.533  15.965  67.202  1.00  0.00    -0.313 A  
HETATM    8  C   UNL     1     -10.972  14.637  67.293  1.00  0.00    -0.317 A  
HETATM    9  C   UNL     1     -10.843  13.773  66.200  1.00  0.00    -0.279 A  
HETATM   10  C   UNL     1      -9.916  15.591  64.899  1.00  0.00     0.144 A  
HETATM   11  C   UNL     1     -10.335  14.259  64.992  1.00  0.00    -0.448 A  
BRANCH   9  12
HETATM   12  C   UNL     1     -11.218  12.334  66.381  1.00  0.00    -0.324 C  
HETATM   13  O   UNL     1     -12.091  12.051  67.204  1.00  0.00    -0.587 OA 
BRANCH  12  14
HETATM   14  C   UNL     1     -10.480  11.264  65.601  1.00  0.00    -0.317 C  
BRANCH  14  15
HETATM   15  C   UNL     1      -9.912  10.219  66.565  1.00  0.00    -0.224 C  
BRANCH  15  16
HETATM   16  N   UNL     1      -8.695  10.607  67.291  1.00  0.00    -0.129 NA 
HETATM   17  C   UNL     1      -8.208   9.490  68.123  1.00  0.00    -0.114 C  
HETATM   18  C   UNL     1      -7.471   8.411  67.324  1.00  0.00    -0.093 C  
HETATM   19  C   UNL     1      -6.272   9.020  66.617  1.00  0.00    -0.061 C  
HETATM   20  C   UNL     1      -6.718  10.184  65.736  1.00  0.00    -0.110 C  
HETATM   21  C   UNL     1      -7.608  11.182  66.486  1.00  0.00    -0.135 C  
ENDBRANCH  15  16
ENDBRANCH  14  15
ENDBRANCH  12  14
ENDBRANCH   9  12
ENDBRANCH   5   6
ENDBRANCH   4   5
ENDBRANCH   3   4
ENDBRANCH   2   3
TORSDOF 8
ENDMDL
MODEL      139
REMARK 921   NORMALIZED FREE ENERGY PREDICTED BY IDOCK:   -3.85 KCAL/MOL
REMARK 922        TOTAL FREE ENERGY PREDICTED BY IDOCK:   -6.77 KCAL/MOL
REMARK 923 INTER-LIGAND FREE ENERGY PREDICTED BY IDOCK:   -6.04 KCAL/MOL
REMARK 924 INTRA-LIGAND FREE ENERGY PREDICTED BY IDOCK:   -0.74 KCAL/MOL
REMARK 927      BINDING AFFINITY PREDICTED BY RF-SCORE:    0.00 PKD
ROOT
HETATM    1  C   UNL     1      -8.320   5.183  63.925  1.00  0.00    -0.131 C  
HETATM    2  C   UNL     1      -7.234   6.028  63.278  1.00  0.00    -0.055 C  
ENDROOT
BRANCH   2   3
HETATM    3  C   UNL     1      -7.787   7.346  62.738  1.00  0.00    -0.130 C  
BRANCH   3   4
HETATM    4  C   UNL     1      -8.158   8.297  63.875  1.00  0.00    -0.124 C  
BRANCH   4   5
HETATM    5  O   UNL     1      -8.928   9.376  63.332  1.00  0.00    -0.223 OA 
BRANCH   5   6
HETATM    6  C   UNL     1      -9.560  10.163  64.260  1.00  0.00    -0.290 A  
HETATM    7  C   UNL     1      -9.647   9.874  65.622  1.00  0.00    -0.320 A  
HETATM    8  C   UNL     1     -10.322  10.751  66.482  1.00  0.00    -0.300 A  
HETATM    9  C   UNL     1     -10.926  11.909  65.980  1.00  0.00    -0.355 A  
HETATM   10  C   UNL     1     -10.104  11.354  63.772  1.00  0.00    -0.408 A  
HETATM   11  C   UNL     1     -10.796  12.223  64.624  1.00  0.00    -0.349 A  
BRANCH   9  12
HETATM   12  C   UNL     1     -11.735  12.754  66.915  1.00  0.00    -0.380 C  
HETATM   13  O   UNL     1     -12.128  12.254  67.972  1.00  0.00    -0.439 OA 
BRANCH  12  14
HETATM   14  C   UNL     1     -12.099  14.171  66.520  1.00  0.00    -0.481 C  
BRANCH  14  15
HETATM   15  C   UNL     1     -11.380  15.165  67.436  1.00  0.00    -0.306 C  
BRANCH  15  16
HETATM   16  N   UNL     1     -10.652  16.249  66.763  1.00  0.00    -0.290 NA 
HETATM   17  C   UNL     1     -10.308  17.317  67.722  1.00  0.00    -0.356 C  
HETATM   18  C   UNL     1      -9.112  16.973  68.614  1.00  0.00    -0.271 C  
HETATM   19  C   UNL     1      -7.886  16.708  67.755  1.00  0.00    -0.175 C  
HETATM   20  C   UNL     1      -8.184  15.607  66.742  1.00  0.00    -0.300 C  
HETATM   21  C   UNL     1      -9.483  15.857  65.966  1.00  0.00    -0.354 C  
ENDBRANCH  15  16
ENDBRANCH  14  15
ENDBRANCH  12  14
ENDBRANCH   9  12
ENDBRANCH   5   6
ENDBRANCH   4   5
ENDBRANCH   3   4
ENDBRANCH   2   3
TORSDOF 8
ENDMDL
MODEL      140
REMARK 921   NORMALIZED FREE ENERGY PREDICTED BY IDOCK:   -3.84 KCAL/MOL
REMARK 922        TOTAL FREE ENERGY PREDICTED BY IDOCK:   -6.76 KCAL/MOL
REMARK 923 INTER-LIGAND FREE ENERGY PREDICTED BY IDOCK:   -5.80 KCAL/MOL
REMARK 924 INTRA-LIGAND FREE ENERGY PREDICTED BY IDOCK:   -0.96 KCAL/MOL
REMARK 927      BINDING AFFINITY PREDICTED BY RF-SCORE:    0.00 PKD
ROOT
HETATM    1  C   UNL     1     -13.577  14.535  72.648  1.00  0.00    -0.577 C  
HETATM    2  C   UNL     1     -13.078  15.702  71.811  1.00  0.00    -0.546 C  
ENDROOT
BRANCH   2   3
HETATM    3  C   UNL     1     -11.564  15.655  71.617  1.00  0.00    -0.519 C  
BRANCH   3   4
HETATM    4  C   UNL     1     -11.197  15.606  70.135  1.00  0.00    -0.336 C  
BRANCH   4   5
HETATM    5  O   UNL     1     -12.126  14.747  69.465  1.00  0.00    -0.307 OA 
BRANCH   5   6
HETATM    6  C   UNL     1     -11.667  13.481  69.208  1.00  0.00    -0.330 A  
HETATM    7  C   UNL     1     -10.798  13.145  68.168  1.00  0.00    -0.271 A  
HETATM    8  C   UNL     1     -10.395  11.815  67.996  1.00  0.00    -0.212 A  
HETATM    9  C   UNL     1     -10.871  10.815  68.849  1.00  0.00    -0.269 A  
HETATM   10  C   UNL     1     -12.087  12.492  70.101  1.00  0.00    -0.368 A  
HETATM   11  C   UNL     1     -11.701  11.159  69.920  1.00  0.00    -0.433 A  
BRANCH   9  12
HETATM   12  C   UNL     1     -10.505   9.392  68.555  1.00  0.00    -0.208 C  
HETATM   13  O   UNL     1      -9.983   8.721  69.447  1.00  0.00    -0.186 OA 
BRANCH  12  14
HETATM   14  C   UNL     1     -10.730   8.834  67.164  1.00  0.00    -0.204 C  
BRANCH  14  15
HETATM   15  C   UNL     1      -9.437   8.193  66.649  1.00  0.00    -0.213 C  
BRANCH  15  16
HETATM   16  N   UNL     1      -8.387   9.124  66.213  1.00  0.00    -0.117 NA 
HETATM   17  C   UNL     1      -7.178   8.386  65.801  1.00  0.00    -0.072 C  
HETATM   18  C   UNL     1      -7.293   7.755  64.410  1.00  0.00    -0.088 C  
HETATM   19  C   UNL     1      -7.554   8.836  63.373  1.00  0.00    -0.114 C  
HETATM   20  C   UNL     1      -8.800   9.633  63.749  1.00  0.00    -0.257 C  
HETATM   21  C   UNL     1      -8.772  10.118  65.203  1.00  0.00    -0.173 C  
ENDBRANCH  15  16
ENDBRANCH  14  15
ENDBRANCH  12  14
ENDBRANCH   9  12
ENDBRANCH   5   6
ENDBRANCH   4   5
ENDBRANCH   3   4
ENDBRANCH   2   3
TORSDOF 8
ENDMDL
MODEL      141
REMARK 921   NORMALIZED FREE ENERGY PREDICTED BY IDOCK:   -3.83 KCAL/MOL
REMARK 922        TOTAL FREE ENERGY PREDICTED BY IDOCK:   -6.75 KCAL/MOL
REMARK 923 INTER-LIGAND FREE ENERGY PREDICTED BY IDOCK:   -6.06 KCAL/MOL
REMARK 924 INTRA-LIGAND FREE ENERGY PREDICTED BY IDOCK:   -0.69 KCAL/MOL
REMARK 927      BINDING AFFINITY PREDICTED BY RF-SCORE:    0.00 PKD
ROOT
HETATM    1  C   UNL     1      -9.446   4.114  72.649  1.00  0.00    -0.168 C  
HETATM    2  C   UNL     1      -9.372   5.181  73.729  1.00  0.00    -0.132 C  
ENDROOT
BRANCH   2   3
HETATM    3  C   UNL     1     -10.653   6.010  73.796  1.00  0.00    -0.265 C  
BRANCH   3   4
HETATM    4  C   UNL     1     -10.446   7.398  73.192  1.00  0.00    -0.356 C  
BRANCH   4   5
HETATM    5  O   UNL     1     -11.674   7.821  72.590  1.00  0.00    -0.349 OA 
BRANCH   5   6
HETATM    6  C   UNL     1     -11.536   8.632  71.493  1.00  0.00    -0.295 A  
HETATM    7  C   UNL     1     -12.011   9.941  71.407  1.00  0.00    -0.489 A  
HETATM    8  C   UNL     1     -11.816  10.680  70.232  1.00  0.00    -0.430 A  
HETATM    9  C   UNL     1     -11.162  10.108  69.136  1.00  0.00    -0.234 A  
HETATM   10  C   UNL     1     -10.823   8.086  70.423  1.00  0.00    -0.247 A  
HETATM   11  C   UNL     1     -10.643   8.814  69.241  1.00  0.00    -0.210 A  
BRANCH   9  12
HETATM   12  C   UNL     1     -11.081  10.894  67.864  1.00  0.00    -0.302 C  
HETATM   13  O   UNL     1     -10.556  10.369  66.879  1.00  0.00    -0.248 OA 
BRANCH  12  14
HETATM   14  C   UNL     1     -11.586  12.322  67.832  1.00  0.00    -0.416 C  
BRANCH  14  15
HETATM   15  C   UNL     1     -10.431  13.286  68.124  1.00  0.00    -0.245 C  
BRANCH  15  16
HETATM   16  N   UNL     1      -9.509  13.540  67.009  1.00  0.00    -0.243 NA 
HETATM   17  C   UNL     1     -10.258  13.813  65.767  1.00  0.00    -0.311 C  
HETATM   18  C   UNL     1     -10.837  15.229  65.703  1.00  0.00    -0.371 C  
HETATM   19  C   UNL     1      -9.714  16.250  65.802  1.00  0.00    -0.299 C  
HETATM   20  C   UNL     1      -8.904  16.017  67.073  1.00  0.00    -0.235 C  
HETATM   21  C   UNL     1      -8.471  14.554  67.235  1.00  0.00    -0.215 C  
ENDBRANCH  15  16
ENDBRANCH  14  15
ENDBRANCH  12  14
ENDBRANCH   9  12
ENDBRANCH   5   6
ENDBRANCH   4   5
ENDBRANCH   3   4
ENDBRANCH   2   3
TORSDOF 8
ENDMDL
MODEL      142
REMARK 921   NORMALIZED FREE ENERGY PREDICTED BY IDOCK:   -3.83 KCAL/MOL
REMARK 922        TOTAL FREE ENERGY PREDICTED BY IDOCK:   -6.74 KCAL/MOL
REMARK 923 INTER-LIGAND FREE ENERGY PREDICTED BY IDOCK:   -5.99 KCAL/MOL
REMARK 924 INTRA-LIGAND FREE ENERGY PREDICTED BY IDOCK:   -0.74 KCAL/MOL
REMARK 927      BINDING AFFINITY PREDICTED BY RF-SCORE:    0.00 PKD
ROOT
HETATM    1  C   UNL     1      -9.627  18.945  66.860  1.00  0.00    -0.348 C  
HETATM    2  C   UNL     1     -10.412  18.075  65.891  1.00  0.00    -0.268 C  
ENDROOT
BRANCH   2   3
HETATM    3  C   UNL     1     -10.060  16.596  66.044  1.00  0.00    -0.359 C  
BRANCH   3   4
HETATM    4  C   UNL     1     -10.843  15.736  65.054  1.00  0.00    -0.443 C  
BRANCH   4   5
HETATM    5  O   UNL     1     -11.880  15.051  65.765  1.00  0.00    -0.198 OA 
BRANCH   5   6
HETATM    6  C   UNL     1     -11.550  13.797  66.208  1.00  0.00    -0.350 A  
HETATM    7  C   UNL     1     -11.821  13.307  67.487  1.00  0.00    -0.403 A  
HETATM    8  C   UNL     1     -11.436  12.005  67.834  1.00  0.00    -0.396 A  
HETATM    9  C   UNL     1     -10.763  11.197  66.912  1.00  0.00    -0.322 A  
HETATM   10  C   UNL     1     -10.939  12.963  65.267  1.00  0.00    -0.310 A  
HETATM   11  C   UNL     1     -10.535  11.670  65.617  1.00  0.00    -0.314 A  
BRANCH   9  12
HETATM   12  C   UNL     1     -10.267   9.858  67.366  1.00  0.00    -0.222 C  
HETATM   13  O   UNL     1     -10.616   8.856  66.739  1.00  0.00    -0.243 OA 
BRANCH  12  14
HETATM   14  C   UNL     1      -9.405   9.760  68.609  1.00  0.00    -0.147 C  
BRANCH  14  15
HETATM   15  C   UNL     1     -10.237   9.218  69.774  1.00  0.00    -0.211 C  
BRANCH  15  16
HETATM   16  N   UNL     1      -9.696   8.032  70.453  1.00  0.00    -0.178 NA 
HETATM   17  C   UNL     1     -10.784   7.114  70.840  1.00  0.00    -0.231 C  
HETATM   18  C   UNL     1     -11.327   6.284  69.673  1.00  0.00    -0.492 C  
HETATM   19  C   UNL     1     -10.208   5.450  69.069  1.00  0.00    -0.291 C  
HETATM   20  C   UNL     1      -9.052   6.351  68.646  1.00  0.00    -0.127 C  
HETATM   21  C   UNL     1      -8.619   7.314  69.758  1.00  0.00    -0.141 C  
ENDBRANCH  15  16
ENDBRANCH  14  15
ENDBRANCH  12  14
ENDBRANCH   9  12
ENDBRANCH   5   6
ENDBRANCH   4   5
ENDBRANCH   3   4
ENDBRANCH   2   3
TORSDOF 8
ENDMDL
MODEL      143
REMARK 921   NORMALIZED FREE ENERGY PREDICTED BY IDOCK:   -3.83 KCAL/MOL
REMARK 922        TOTAL FREE ENERGY PREDICTED BY IDOCK:   -6.74 KCAL/MOL
REMARK 923 INTER-LIGAND FREE ENERGY PREDICTED BY IDOCK:   -5.88 KCAL/MOL
REMARK 924 INTRA-LIGAND FREE ENERGY PREDICTED BY IDOCK:   -0.85 KCAL/MOL
REMARK 927      BINDING AFFINITY PREDICTED BY RF-SCORE:    0.00 PKD
ROOT
HETATM    1  C   UNL     1     -10.476  11.640  63.688  1.00  0.00    -0.483 C  
HETATM    2  C   UNL     1     -10.885  12.924  64.393  1.00  0.00    -0.404 C  
ENDROOT
BRANCH   2   3
HETATM    3  C   UNL     1     -10.084  13.147  65.674  1.00  0.00    -0.279 C  
BRANCH   3   4
HETATM    4  C   UNL     1      -9.628  11.821  66.281  1.00  0.00    -0.225 C  
BRANCH   4   5
HETATM    5  O   UNL     1      -9.253  12.048  67.644  1.00  0.00    -0.172 OA 
BRANCH   5   6
HETATM    6  C   UNL     1      -9.978  11.346  68.571  1.00  0.00    -0.201 A  
HETATM    7  C   UNL     1      -9.557  10.162  69.179  1.00  0.00    -0.222 A  
HETATM    8  C   UNL     1     -10.383   9.524  70.115  1.00  0.00    -0.300 A  
HETATM    9  C   UNL     1     -11.636  10.057  70.432  1.00  0.00    -0.379 A  
HETATM   10  C   UNL     1     -11.200  11.913  68.941  1.00  0.00    -0.310 A  
HETATM   11  C   UNL     1     -12.036  11.268  69.860  1.00  0.00    -0.440 A  
BRANCH   9  12
HETATM   12  C   UNL     1     -12.530   9.279  71.348  1.00  0.00    -0.341 C  
HETATM   13  O   UNL     1     -13.745   9.295  71.139  1.00  0.00    -0.296 OA 
BRANCH  12  14
HETATM   14  C   UNL     1     -11.934   8.547  72.533  1.00  0.00    -0.401 C  
BRANCH  14  15
HETATM   15  C   UNL     1     -11.777   7.061  72.197  1.00  0.00    -0.283 C  
BRANCH  15  16
HETATM   16  N   UNL     1     -10.805   6.317  73.010  1.00  0.00    -0.253 NA 
HETATM   17  C   UNL     1     -10.222   5.206  72.235  1.00  0.00    -0.202 C  
HETATM   18  C   UNL     1      -9.150   5.654  71.237  1.00  0.00    -0.156 C  
HETATM   19  C   UNL     1      -8.017   6.349  71.974  1.00  0.00    -0.108 C  
HETATM   20  C   UNL     1      -8.563   7.514  72.795  1.00  0.00    -0.159 C  
HETATM   21  C   UNL     1      -9.757   7.111  73.667  1.00  0.00    -0.269 C  
ENDBRANCH  15  16
ENDBRANCH  14  15
ENDBRANCH  12  14
ENDBRANCH   9  12
ENDBRANCH   5   6
ENDBRANCH   4   5
ENDBRANCH   3   4
ENDBRANCH   2   3
TORSDOF 8
ENDMDL
MODEL      144
REMARK 921   NORMALIZED FREE ENERGY PREDICTED BY IDOCK:   -3.80 KCAL/MOL
REMARK 922        TOTAL FREE ENERGY PREDICTED BY IDOCK:   -6.70 KCAL/MOL
REMARK 923 INTER-LIGAND FREE ENERGY PREDICTED BY IDOCK:   -6.10 KCAL/MOL
REMARK 924 INTRA-LIGAND FREE ENERGY PREDICTED BY IDOCK:   -0.59 KCAL/MOL
REMARK 927      BINDING AFFINITY PREDICTED BY RF-SCORE:    0.00 PKD
ROOT
HETATM    1  C   UNL     1      -8.749  19.395  67.650  1.00  0.00    -0.350 C  
HETATM    2  C   UNL     1      -9.727  20.070  66.702  1.00  0.00    -0.566 C  
ENDROOT
BRANCH   2   3
HETATM    3  C   UNL     1     -10.531  19.052  65.895  1.00  0.00    -0.468 C  
BRANCH   3   4
HETATM    4  C   UNL     1      -9.990  17.637  66.094  1.00  0.00    -0.272 C  
BRANCH   4   5
HETATM    5  O   UNL     1     -10.620  16.771  65.145  1.00  0.00    -0.663 OA 
BRANCH   5   6
HETATM    6  C   UNL     1     -10.548  15.434  65.439  1.00  0.00    -0.410 A  
HETATM    7  C   UNL     1     -11.378  14.453  64.894  1.00  0.00    -0.380 A  
HETATM    8  C   UNL     1     -11.216  13.112  65.270  1.00  0.00    -0.315 A  
HETATM    9  C   UNL     1     -10.238  12.751  66.202  1.00  0.00    -0.286 A  
HETATM   10  C   UNL     1      -9.527  15.061  66.317  1.00  0.00    -0.342 A  
HETATM   11  C   UNL     1      -9.375  13.726  66.710  1.00  0.00    -0.276 A  
BRANCH   9  12
HETATM   12  C   UNL     1     -10.181  11.326  66.660  1.00  0.00    -0.229 C  
HETATM   13  O   UNL     1     -10.353  11.084  67.856  1.00  0.00    -0.176 OA 
BRANCH  12  14
HETATM   14  C   UNL     1      -9.857  10.232  65.663  1.00  0.00    -0.332 C  
BRANCH  14  15
HETATM   15  C   UNL     1     -10.215   8.867  66.259  1.00  0.00    -0.133 C  
BRANCH  15  16
HETATM   16  N   UNL     1      -9.122   8.153  66.933  1.00  0.00    -0.147 NA 
HETATM   17  C   UNL     1      -9.657   7.220  67.943  1.00  0.00    -0.139 C  
HETATM   18  C   UNL     1     -10.222   5.929  67.343  1.00  0.00    -0.237 C  
HETATM   19  C   UNL     1      -9.135   5.202  66.568  1.00  0.00    -0.127 C  
HETATM   20  C   UNL     1      -8.545   6.122  65.503  1.00  0.00    -0.133 C  
HETATM   21  C   UNL     1      -8.140   7.489  66.066  1.00  0.00    -0.123 C  
ENDBRANCH  15  16
ENDBRANCH  14  15
ENDBRANCH  12  14
ENDBRANCH   9  12
ENDBRANCH   5   6
ENDBRANCH   4   5
ENDBRANCH   3   4
ENDBRANCH   2   3
TORSDOF 8
ENDMDL
MODEL      145
REMARK 921   NORMALIZED FREE ENERGY PREDICTED BY IDOCK:   -3.80 KCAL/MOL
REMARK 922        TOTAL FREE ENERGY PREDICTED BY IDOCK:   -6.69 KCAL/MOL
REMARK 923 INTER-LIGAND FREE ENERGY PREDICTED BY IDOCK:   -5.75 KCAL/MOL
REMARK 924 INTRA-LIGAND FREE ENERGY PREDICTED BY IDOCK:   -0.95 KCAL/MOL
REMARK 927      BINDING AFFINITY PREDICTED BY RF-SCORE:    0.00 PKD
ROOT
HETATM    1  C   UNL     1      -9.974   5.444  67.983  1.00  0.00    -0.199 C  
HETATM    2  C   UNL     1      -8.570   4.975  68.329  1.00  0.00    -0.103 C  
ENDROOT
BRANCH   2   3
HETATM    3  C   UNL     1      -8.409   4.724  69.827  1.00  0.00    -0.078 C  
BRANCH   3   4
HETATM    4  C   UNL     1      -9.282   5.675  70.644  1.00  0.00    -0.151 C  
BRANCH   4   5
HETATM    5  O   UNL     1      -8.590   6.920  70.786  1.00  0.00    -0.141 OA 
BRANCH   5   6
HETATM    6  C   UNL     1      -9.242   8.010  70.270  1.00  0.00    -0.155 A  
HETATM    7  C   UNL     1      -8.744   8.827  69.254  1.00  0.00    -0.135 A  
HETATM    8  C   UNL     1      -9.496   9.920  68.803  1.00  0.00    -0.157 A  
HETATM    9  C   UNL     1     -10.738  10.210  69.377  1.00  0.00    -0.266 A  
HETATM   10  C   UNL     1     -10.513   8.260  70.794  1.00  0.00    -0.223 A  
HETATM   11  C   UNL     1     -11.258   9.362  70.360  1.00  0.00    -0.309 A  
BRANCH   9  12
HETATM   12  C   UNL     1     -11.451  11.454  68.944  1.00  0.00    -0.298 C  
HETATM   13  O   UNL     1     -12.115  11.423  67.906  1.00  0.00    -0.646 OA 
BRANCH  12  14
HETATM   14  C   UNL     1     -11.294  12.726  69.752  1.00  0.00    -0.103 C  
BRANCH  14  15
HETATM   15  C   UNL     1     -12.486  12.887  70.701  1.00  0.00    -0.252 C  
BRANCH  15  16
HETATM   16  N   UNL     1     -13.228  14.150  70.593  1.00  0.00    -0.174 NA 
HETATM   17  C   UNL     1     -13.975  14.422  71.836  1.00  0.00    -0.487 C  
HETATM   18  C   UNL     1     -13.096  14.954  72.972  1.00  0.00    -0.605 C  
HETATM   19  C   UNL     1     -12.425  16.249  72.541  1.00  0.00    -0.424 C  
HETATM   20  C   UNL     1     -11.633  16.027  71.256  1.00  0.00    -0.506 C  
HETATM   21  C   UNL     1     -12.459  15.328  70.169  1.00  0.00    -0.334 C  
ENDBRANCH  15  16
ENDBRANCH  14  15
ENDBRANCH  12  14
ENDBRANCH   9  12
ENDBRANCH   5   6
ENDBRANCH   4   5
ENDBRANCH   3   4
ENDBRANCH   2   3
TORSDOF 8
ENDMDL
MODEL      146
REMARK 921   NORMALIZED FREE ENERGY PREDICTED BY IDOCK:   -3.79 KCAL/MOL
REMARK 922        TOTAL FREE ENERGY PREDICTED BY IDOCK:   -6.68 KCAL/MOL
REMARK 923 INTER-LIGAND FREE ENERGY PREDICTED BY IDOCK:   -5.80 KCAL/MOL
REMARK 924 INTRA-LIGAND FREE ENERGY PREDICTED BY IDOCK:   -0.88 KCAL/MOL
REMARK 927      BINDING AFFINITY PREDICTED BY RF-SCORE:    0.00 PKD
ROOT
HETATM    1  C   UNL     1     -10.020  15.031  68.152  1.00  0.00    -0.220 C  
HETATM    2  C   UNL     1      -9.926  14.639  66.686  1.00  0.00    -0.281 C  
ENDROOT
BRANCH   2   3
HETATM    3  C   UNL     1     -11.304  14.401  66.072  1.00  0.00    -0.335 C  
BRANCH   3   4
HETATM    4  C   UNL     1     -11.443  12.968  65.561  1.00  0.00    -0.321 C  
BRANCH   4   5
HETATM    5  O   UNL     1     -12.177  12.209  66.527  1.00  0.00    -0.584 OA 
BRANCH   5   6
HETATM    6  C   UNL     1     -11.409  11.516  67.428  1.00  0.00    -0.298 A  
HETATM    7  C   UNL     1     -11.545  11.593  68.815  1.00  0.00    -0.374 A  
HETATM    8  C   UNL     1     -10.702  10.840  69.643  1.00  0.00    -0.261 A  
HETATM    9  C   UNL     1      -9.711  10.022  69.089  1.00  0.00    -0.217 A  
HETATM   10  C   UNL     1     -10.465  10.646  66.875  1.00  0.00    -0.304 A  
HETATM   11  C   UNL     1      -9.609   9.907  67.699  1.00  0.00    -0.172 A  
BRANCH   9  12
HETATM   12  C   UNL     1      -8.760   9.329  70.014  1.00  0.00    -0.195 C  
HETATM   13  O   UNL     1      -7.845   9.983  70.519  1.00  0.00    -0.247 OA 
BRANCH  12  14
HETATM   14  C   UNL     1      -8.905   7.840  70.260  1.00  0.00    -0.144 C  
BRANCH  14  15
HETATM   15  C   UNL     1     -10.388   7.478  70.382  1.00  0.00    -0.214 C  
BRANCH  15  16
HETATM   16  N   UNL     1     -11.012   7.752  71.684  1.00  0.00    -0.231 NA 
HETATM   17  C   UNL     1     -12.012   6.717  72.008  1.00  0.00    -0.317 C  
HETATM   18  C   UNL     1     -11.395   5.405  72.501  1.00  0.00    -0.286 C  
HETATM   19  C   UNL     1     -10.570   5.661  73.752  1.00  0.00    -0.303 C  
HETATM   20  C   UNL     1      -9.513   6.726  73.474  1.00  0.00    -0.187 C  
HETATM   21  C   UNL     1     -10.099   7.979  72.812  1.00  0.00    -0.308 C  
ENDBRANCH  15  16
ENDBRANCH  14  15
ENDBRANCH  12  14
ENDBRANCH   9  12
ENDBRANCH   5   6
ENDBRANCH   4   5
ENDBRANCH   3   4
ENDBRANCH   2   3
TORSDOF 8
ENDMDL
MODEL      147
REMARK 921   NORMALIZED FREE ENERGY PREDICTED BY IDOCK:   -3.79 KCAL/MOL
REMARK 922        TOTAL FREE ENERGY PREDICTED BY IDOCK:   -6.68 KCAL/MOL
REMARK 923 INTER-LIGAND FREE ENERGY PREDICTED BY IDOCK:   -5.60 KCAL/MOL
REMARK 924 INTRA-LIGAND FREE ENERGY PREDICTED BY IDOCK:   -1.08 KCAL/MOL
REMARK 927      BINDING AFFINITY PREDICTED BY RF-SCORE:    0.00 PKD
ROOT
HETATM    1  C   UNL     1     -10.299   9.823  70.266  1.00  0.00    -0.348 C  
HETATM    2  C   UNL     1     -10.236   8.328  70.535  1.00  0.00    -0.213 C  
ENDROOT
BRANCH   2   3
HETATM    3  C   UNL     1      -8.809   7.793  70.437  1.00  0.00    -0.146 C  
BRANCH   3   4
HETATM    4  C   UNL     1      -8.432   7.482  68.990  1.00  0.00    -0.133 C  
BRANCH   4   5
HETATM    5  O   UNL     1      -7.621   8.551  68.491  1.00  0.00    -0.092 OA 
BRANCH   5   6
HETATM    6  C   UNL     1      -8.145   9.227  67.419  1.00  0.00    -0.110 A  
HETATM    7  C   UNL     1      -7.609  10.396  66.876  1.00  0.00    -0.107 A  
HETATM    8  C   UNL     1      -8.230  11.006  65.778  1.00  0.00    -0.064 A  
HETATM    9  C   UNL     1      -9.395  10.460  65.230  1.00  0.00    -0.263 A  
HETATM   10  C   UNL     1      -9.269   8.646  66.827  1.00  0.00    -0.211 A  
HETATM   11  C   UNL     1      -9.903   9.263  65.742  1.00  0.00    -0.302 A  
BRANCH   9  12
HETATM   12  C   UNL     1     -10.087  11.210  64.134  1.00  0.00    -0.333 C  
HETATM   13  O   UNL     1      -9.470  11.432  63.090  1.00  0.00    -0.329 OA 
BRANCH  12  14
HETATM   14  C   UNL     1     -11.495  11.727  64.353  1.00  0.00    -0.349 C  
BRANCH  14  15
HETATM   15  C   UNL     1     -11.605  12.354  65.746  1.00  0.00    -0.398 C  
BRANCH  15  16
HETATM   16  N   UNL     1     -12.279  13.658  65.812  1.00  0.00    -0.433 NA 
HETATM   17  C   UNL     1     -12.044  14.298  67.121  1.00  0.00    -0.377 C  
HETATM   18  C   UNL     1     -10.656  14.931  67.251  1.00  0.00    -0.272 C  
HETATM   19  C   UNL     1     -10.469  15.990  66.176  1.00  0.00    -0.334 C  
HETATM   20  C   UNL     1     -10.699  15.382  64.796  1.00  0.00    -0.339 C  
HETATM   21  C   UNL     1     -12.010  14.592  64.711  1.00  0.00    -0.442 C  
ENDBRANCH  15  16
ENDBRANCH  14  15
ENDBRANCH  12  14
ENDBRANCH   9  12
ENDBRANCH   5   6
ENDBRANCH   4   5
ENDBRANCH   3   4
ENDBRANCH   2   3
TORSDOF 8
ENDMDL
MODEL      148
REMARK 921   NORMALIZED FREE ENERGY PREDICTED BY IDOCK:   -3.78 KCAL/MOL
REMARK 922        TOTAL FREE ENERGY PREDICTED BY IDOCK:   -6.67 KCAL/MOL
REMARK 923 INTER-LIGAND FREE ENERGY PREDICTED BY IDOCK:   -6.13 KCAL/MOL
REMARK 924 INTRA-LIGAND FREE ENERGY PREDICTED BY IDOCK:   -0.54 KCAL/MOL
REMARK 927      BINDING AFFINITY PREDICTED BY RF-SCORE:    0.00 PKD
ROOT
HETATM    1  C   UNL     1      -5.821   6.442  64.990  1.00  0.00    -0.022 C  
HETATM    2  C   UNL     1      -6.273   6.995  63.648  1.00  0.00    -0.044 C  
ENDROOT
BRANCH   2   3
HETATM    3  C   UNL     1      -7.754   7.369  63.658  1.00  0.00    -0.125 C  
BRANCH   3   4
HETATM    4  C   UNL     1      -7.960   8.797  64.161  1.00  0.00    -0.154 C  
BRANCH   4   5
HETATM    5  O   UNL     1      -9.134   9.333  63.541  1.00  0.00    -0.140 OA 
BRANCH   5   6
HETATM    6  C   UNL     1      -9.625  10.477  64.116  1.00  0.00    -0.313 A  
HETATM    7  C   UNL     1      -9.665  10.724  65.489  1.00  0.00    -0.290 A  
HETATM    8  C   UNL     1     -10.192  11.931  65.968  1.00  0.00    -0.262 A  
HETATM    9  C   UNL     1     -10.697  12.885  65.079  1.00  0.00    -0.326 A  
HETATM   10  C   UNL     1     -10.066  11.461  63.226  1.00  0.00    -0.424 A  
HETATM   11  C   UNL     1     -10.612  12.658  63.702  1.00  0.00    -0.378 A  
BRANCH   9  12
HETATM   12  C   UNL     1     -11.356  14.106  65.642  1.00  0.00    -0.319 C  
HETATM   13  O   UNL     1     -12.489  13.999  66.116  1.00  0.00    -0.467 OA 
BRANCH  12  14
HETATM   14  C   UNL     1     -10.648  15.444  65.564  1.00  0.00    -0.400 C  
BRANCH  14  15
HETATM   15  C   UNL     1     -10.450  16.008  66.974  1.00  0.00    -0.307 C  
BRANCH  15  16
HETATM   16  N   UNL     1      -9.358  16.978  67.131  1.00  0.00    -0.232 NA 
HETATM   17  C   UNL     1      -9.430  18.015  66.083  1.00  0.00    -0.146 C  
HETATM   18  C   UNL     1     -10.503  19.075  66.348  1.00  0.00    -0.524 C  
HETATM   19  C   UNL     1     -10.227  19.770  67.671  1.00  0.00    -0.569 C  
HETATM   20  C   UNL     1     -10.144  18.743  68.796  1.00  0.00    -0.407 C  
HETATM   21  C   UNL     1      -9.203  17.579  68.462  1.00  0.00    -0.278 C  
ENDBRANCH  15  16
ENDBRANCH  14  15
ENDBRANCH  12  14
ENDBRANCH   9  12
ENDBRANCH   5   6
ENDBRANCH   4   5
ENDBRANCH   3   4
ENDBRANCH   2   3
TORSDOF 8
ENDMDL
MODEL      149
REMARK 921   NORMALIZED FREE ENERGY PREDICTED BY IDOCK:   -3.78 KCAL/MOL
REMARK 922        TOTAL FREE ENERGY PREDICTED BY IDOCK:   -6.66 KCAL/MOL
REMARK 923 INTER-LIGAND FREE ENERGY PREDICTED BY IDOCK:   -5.52 KCAL/MOL
REMARK 924 INTRA-LIGAND FREE ENERGY PREDICTED BY IDOCK:   -1.15 KCAL/MOL
REMARK 927      BINDING AFFINITY PREDICTED BY RF-SCORE:    0.00 PKD
ROOT
HETATM    1  C   UNL     1     -12.113  14.433  64.369  1.00  0.00    -0.491 C  
HETATM    2  C   UNL     1     -12.353  13.489  65.537  1.00  0.00    -0.524 C  
ENDROOT
BRANCH   2   3
HETATM    3  C   UNL     1     -12.250  14.210  66.880  1.00  0.00    -0.400 C  
BRANCH   3   4
HETATM    4  C   UNL     1     -10.964  13.832  67.613  1.00  0.00    -0.264 C  
BRANCH   4   5
HETATM    5  O   UNL     1     -10.507  12.571  67.111  1.00  0.00    -0.222 OA 
BRANCH   5   6
HETATM    6  C   UNL     1     -10.217  11.634  68.069  1.00  0.00    -0.190 A  
HETATM    7  C   UNL     1     -11.162  11.011  68.885  1.00  0.00    -0.326 A  
HETATM    8  C   UNL     1     -10.752  10.067  69.835  1.00  0.00    -0.328 A  
HETATM    9  C   UNL     1      -9.397   9.756  69.985  1.00  0.00    -0.274 A  
HETATM   10  C   UNL     1      -8.872  11.272  68.173  1.00  0.00    -0.159 A  
HETATM   11  C   UNL     1      -8.456  10.344  69.134  1.00  0.00    -0.168 A  
BRANCH   9  12
HETATM   12  C   UNL     1      -8.995   8.830  71.092  1.00  0.00    -0.222 C  
HETATM   13  O   UNL     1      -9.450   9.028  72.220  1.00  0.00    -0.315 OA 
BRANCH  12  14
HETATM   14  C   UNL     1      -8.003   7.719  70.815  1.00  0.00    -0.101 C  
BRANCH  14  15
HETATM   15  C   UNL     1      -8.635   6.365  71.153  1.00  0.00    -0.128 C  
BRANCH  15  16
HETATM   16  N   UNL     1      -8.884   5.470  70.014  1.00  0.00    -0.126 NA 
HETATM   17  C   UNL     1     -10.287   5.013  70.011  1.00  0.00    -0.233 C  
HETATM   18  C   UNL     1     -11.271   6.064  69.490  1.00  0.00    -0.416 C  
HETATM   19  C   UNL     1     -10.906   6.451  68.066  1.00  0.00    -0.396 C  
HETATM   20  C   UNL     1      -9.461   6.937  68.009  1.00  0.00    -0.124 C  
HETATM   21  C   UNL     1      -8.487   5.968  68.690  1.00  0.00    -0.113 C  
ENDBRANCH  15  16
ENDBRANCH  14  15
ENDBRANCH  12  14
ENDBRANCH   9  12
ENDBRANCH   5   6
ENDBRANCH   4   5
ENDBRANCH   3   4
ENDBRANCH   2   3
TORSDOF 8
ENDMDL
MODEL      150
REMARK 921   NORMALIZED FREE ENERGY PREDICTED BY IDOCK:   -3.77 KCAL/MOL
REMARK 922        TOTAL FREE ENERGY PREDICTED BY IDOCK:   -6.65 KCAL/MOL
REMARK 923 INTER-LIGAND FREE ENERGY PREDICTED BY IDOCK:   -4.86 KCAL/MOL
REMARK 924 INTRA-LIGAND FREE ENERGY PREDICTED BY IDOCK:   -1.79 KCAL/MOL
REMARK 927      BINDING AFFINITY PREDICTED BY RF-SCORE:    0.00 PKD
ROOT
HETATM    1  C   UNL     1      -7.432   6.397  64.652  1.00  0.00    -0.091 C  
HETATM    2  C   UNL     1      -8.394   5.457  63.944  1.00  0.00    -0.109 C  
ENDROOT
BRANCH   2   3
HETATM    3  C   UNL     1      -8.779   4.269  64.824  1.00  0.00    -0.135 C  
BRANCH   3   4
HETATM    4  C   UNL     1     -10.246   4.344  65.244  1.00  0.00    -0.210 C  
BRANCH   4   5
HETATM    5  O   UNL     1     -10.309   4.375  66.674  1.00  0.00    -0.180 OA 
BRANCH   5   6
HETATM    6  C   UNL     1     -10.018   5.588  67.243  1.00  0.00    -0.165 A  
HETATM    7  C   UNL     1      -8.955   5.823  68.115  1.00  0.00    -0.114 A  
HETATM    8  C   UNL     1      -8.752   7.106  68.641  1.00  0.00    -0.127 A  
HETATM    9  C   UNL     1      -9.620   8.152  68.311  1.00  0.00    -0.154 A  
HETATM   10  C   UNL     1     -10.843   6.649  66.861  1.00  0.00    -0.415 A  
HETATM   11  C   UNL     1     -10.656   7.927  67.399  1.00  0.00    -0.342 A  
BRANCH   9  12
HETATM   12  C   UNL     1      -9.434   9.474  68.989  1.00  0.00    -0.158 C  
HETATM   13  O   UNL     1      -9.107  10.447  68.304  1.00  0.00    -0.138 OA 
BRANCH  12  14
HETATM   14  C   UNL     1      -9.590   9.575  70.493  1.00  0.00    -0.312 C  
BRANCH  14  15
HETATM   15  C   UNL     1     -11.077   9.593  70.858  1.00  0.00    -0.352 C  
BRANCH  15  16
HETATM   16  N   UNL     1     -11.488   8.671  71.926  1.00  0.00    -0.324 NA 
HETATM   17  C   UNL     1     -12.500   7.720  71.428  1.00  0.00    -0.320 C  
HETATM   18  C   UNL     1     -11.910   6.588  70.582  1.00  0.00    -0.398 C  
HETATM   19  C   UNL     1     -10.899   5.803  71.403  1.00  0.00    -0.316 C  
HETATM   20  C   UNL     1      -9.823   6.740  71.944  1.00  0.00    -0.173 C  
HETATM   21  C   UNL     1     -10.411   7.973  72.639  1.00  0.00    -0.329 C  
ENDBRANCH  15  16
ENDBRANCH  14  15
ENDBRANCH  12  14
ENDBRANCH   9  12
ENDBRANCH   5   6
ENDBRANCH   4   5
ENDBRANCH   3   4
ENDBRANCH   2   3
TORSDOF 8
ENDMDL
MODEL      151
REMARK 921   NORMALIZED FREE ENERGY PREDICTED BY IDOCK:   -3.77 KCAL/MOL
REMARK 922        TOTAL FREE ENERGY PREDICTED BY IDOCK:   -6.65 KCAL/MOL
REMARK 923 INTER-LIGAND FREE ENERGY PREDICTED BY IDOCK:   -6.11 KCAL/MOL
REMARK 924 INTRA-LIGAND FREE ENERGY PREDICTED BY IDOCK:   -0.54 KCAL/MOL
REMARK 927      BINDING AFFINITY PREDICTED BY RF-SCORE:    0.00 PKD
ROOT
HETATM    1  C   UNL     1      -8.569   7.983  66.811  1.00  0.00    -0.133 C  
HETATM    2  C   UNL     1      -9.385   6.763  67.207  1.00  0.00    -0.148 C  
ENDROOT
BRANCH   2   3
HETATM    3  C   UNL     1     -10.407   7.091  68.294  1.00  0.00    -0.223 C  
BRANCH   3   4
HETATM    4  C   UNL     1      -9.752   7.139  69.673  1.00  0.00    -0.158 C  
BRANCH   4   5
HETATM    5  O   UNL     1     -10.656   7.773  70.585  1.00  0.00    -0.215 OA 
BRANCH   5   6
HETATM    6  C   UNL     1     -10.945   9.083  70.302  1.00  0.00    -0.244 A  
HETATM    7  C   UNL     1     -10.119   9.940  69.574  1.00  0.00    -0.240 A  
HETATM    8  C   UNL     1     -10.514  11.266  69.347  1.00  0.00    -0.089 A  
HETATM    9  C   UNL     1     -11.724  11.742  69.860  1.00  0.00    -0.399 A  
HETATM   10  C   UNL     1     -12.185   9.541  70.756  1.00  0.00    -0.269 A  
HETATM   11  C   UNL     1     -12.573  10.869  70.547  1.00  0.00    -0.409 A  
BRANCH   9  12
HETATM   12  C   UNL     1     -12.048  13.194  69.692  1.00  0.00    -0.255 C  
HETATM   13  O   UNL     1     -12.744  13.746  70.547  1.00  0.00    -0.298 OA 
BRANCH  12  14
HETATM   14  C   UNL     1     -11.568  13.931  68.458  1.00  0.00    -0.367 C  
BRANCH  14  15
HETATM   15  C   UNL     1     -11.983  13.160  67.201  1.00  0.00    -0.341 C  
BRANCH  15  16
HETATM   16  N   UNL     1     -11.389  13.621  65.939  1.00  0.00    -0.306 NA 
HETATM   17  C   UNL     1     -10.151  12.874  65.646  1.00  0.00    -0.272 C  
HETATM   18  C   UNL     1     -10.402  11.468  65.095  1.00  0.00    -0.329 C  
HETATM   19  C   UNL     1     -11.208  11.553  63.809  1.00  0.00    -0.456 C  
HETATM   20  C   UNL     1     -12.506  12.316  64.054  1.00  0.00    -0.556 C  
HETATM   21  C   UNL     1     -12.278  13.653  64.770  1.00  0.00    -0.403 C  
ENDBRANCH  15  16
ENDBRANCH  14  15
ENDBRANCH  12  14
ENDBRANCH   9  12
ENDBRANCH   5   6
ENDBRANCH   4   5
ENDBRANCH   3   4
ENDBRANCH   2   3
TORSDOF 8
ENDMDL
MODEL      152
REMARK 921   NORMALIZED FREE ENERGY PREDICTED BY IDOCK:   -3.76 KCAL/MOL
REMARK 922        TOTAL FREE ENERGY PREDICTED BY IDOCK:   -6.64 KCAL/MOL
REMARK 923 INTER-LIGAND FREE ENERGY PREDICTED BY IDOCK:   -4.88 KCAL/MOL
REMARK 924 INTRA-LIGAND FREE ENERGY PREDICTED BY IDOCK:   -1.76 KCAL/MOL
REMARK 927      BINDING AFFINITY PREDICTED BY RF-SCORE:    0.00 PKD
ROOT
HETATM    1  C   UNL     1     -10.496  10.819  65.311  1.00  0.00    -0.282 C  
HETATM    2  C   UNL     1     -10.401  12.321  65.527  1.00  0.00    -0.296 C  
ENDROOT
BRANCH   2   3
HETATM    3  C   UNL     1      -9.124  12.708  66.271  1.00  0.00    -0.053 C  
BRANCH   3   4
HETATM    4  C   UNL     1      -8.440  11.481  66.872  1.00  0.00    -0.165 C  
BRANCH   4   5
HETATM    5  O   UNL     1      -8.192  11.732  68.259  1.00  0.00    -0.144 OA 
BRANCH   5   6
HETATM    6  C   UNL     1      -8.762  10.834  69.124  1.00  0.00    -0.091 A  
HETATM    7  C   UNL     1      -8.053  10.035  70.022  1.00  0.00    -0.154 A  
HETATM    8  C   UNL     1      -8.740   9.147  70.861  1.00  0.00    -0.277 A  
HETATM    9  C   UNL     1     -10.133   9.043  70.792  1.00  0.00    -0.303 A  
HETATM   10  C   UNL     1     -10.158  10.779  69.106  1.00  0.00    -0.224 A  
HETATM   11  C   UNL     1     -10.846   9.879  69.928  1.00  0.00    -0.316 A  
BRANCH   9  12
HETATM   12  C   UNL     1     -10.812   7.998  71.624  1.00  0.00    -0.237 C  
HETATM   13  O   UNL     1     -11.259   8.320  72.726  1.00  0.00    -0.371 OA 
BRANCH  12  14
HETATM   14  C   UNL     1     -10.881   6.570  71.122  1.00  0.00    -0.296 C  
BRANCH  14  15
HETATM   15  C   UNL     1     -11.513   6.541  69.727  1.00  0.00    -0.379 C  
BRANCH  15  16
HETATM   16  N   UNL     1     -10.818   5.724  68.723  1.00  0.00    -0.255 NA 
HETATM   17  C   UNL     1     -11.015   6.285  67.372  1.00  0.00    -0.356 C  
HETATM   18  C   UNL     1     -10.138   7.507  67.085  1.00  0.00    -0.317 C  
HETATM   19  C   UNL     1      -8.671   7.134  67.225  1.00  0.00    -0.120 C  
HETATM   20  C   UNL     1      -8.408   6.549  68.609  1.00  0.00    -0.122 C  
HETATM   21  C   UNL     1      -9.400   5.440  68.977  1.00  0.00    -0.127 C  
ENDBRANCH  15  16
ENDBRANCH  14  15
ENDBRANCH  12  14
ENDBRANCH   9  12
ENDBRANCH   5   6
ENDBRANCH   4   5
ENDBRANCH   3   4
ENDBRANCH   2   3
TORSDOF 8
ENDMDL
MODEL      153
REMARK 921   NORMALIZED FREE ENERGY PREDICTED BY IDOCK:   -3.76 KCAL/MOL
REMARK 922        TOTAL FREE ENERGY PREDICTED BY IDOCK:   -6.64 KCAL/MOL
REMARK 923 INTER-LIGAND FREE ENERGY PREDICTED BY IDOCK:   -5.92 KCAL/MOL
REMARK 924 INTRA-LIGAND FREE ENERGY PREDICTED BY IDOCK:   -0.71 KCAL/MOL
REMARK 927      BINDING AFFINITY PREDICTED BY RF-SCORE:    0.00 PKD
ROOT
HETATM    1  C   UNL     1     -10.899  19.094  66.845  1.00  0.00    -0.440 C  
HETATM    2  C   UNL     1      -9.706  20.009  67.071  1.00  0.00    -0.555 C  
ENDROOT
BRANCH   2   3
HETATM    3  C   UNL     1      -8.403  19.371  66.592  1.00  0.00    -0.326 C  
BRANCH   3   4
HETATM    4  C   UNL     1      -7.387  19.268  67.729  1.00  0.00    -0.254 C  
BRANCH   4   5
HETATM    5  O   UNL     1      -8.014  18.622  68.842  1.00  0.00    -0.301 OA 
BRANCH   5   6
HETATM    6  C   UNL     1      -8.355  17.310  68.637  1.00  0.00    -0.255 A  
HETATM    7  C   UNL     1      -7.566  16.379  67.960  1.00  0.00    -0.158 A  
HETATM    8  C   UNL     1      -8.016  15.061  67.806  1.00  0.00    -0.155 A  
HETATM    9  C   UNL     1      -9.261  14.674  68.311  1.00  0.00    -0.198 A  
HETATM   10  C   UNL     1      -9.568  16.904  69.201  1.00  0.00    -0.158 A  
HETATM   11  C   UNL     1     -10.029  15.594  69.031  1.00  0.00    -0.233 A  
BRANCH   9  12
HETATM   12  C   UNL     1      -9.750  13.289  68.020  1.00  0.00    -0.223 C  
HETATM   13  O   UNL     1      -8.927  12.427  67.704  1.00  0.00    -0.167 OA 
BRANCH  12  14
HETATM   14  C   UNL     1     -11.236  12.995  68.061  1.00  0.00    -0.310 C  
BRANCH  14  15
HETATM   15  C   UNL     1     -11.607  12.394  69.420  1.00  0.00    -0.307 C  
BRANCH  15  16
HETATM   16  N   UNL     1     -12.197  11.049  69.390  1.00  0.00    -0.360 NA 
HETATM   17  C   UNL     1     -11.144  10.023  69.260  1.00  0.00    -0.206 C  
HETATM   18  C   UNL     1     -10.401   9.743  70.569  1.00  0.00    -0.348 C  
HETATM   19  C   UNL     1     -11.383   9.269  71.629  1.00  0.00    -0.467 C  
HETATM   20  C   UNL     1     -12.497  10.296  71.808  1.00  0.00    -0.431 C  
HETATM   21  C   UNL     1     -13.129  10.717  70.476  1.00  0.00    -0.071 C  
ENDBRANCH  15  16
ENDBRANCH  14  15
ENDBRANCH  12  14
ENDBRANCH   9  12
ENDBRANCH   5   6
ENDBRANCH   4   5
ENDBRANCH   3   4
ENDBRANCH   2   3
TORSDOF 8
ENDMDL
MODEL      154
REMARK 921   NORMALIZED FREE ENERGY PREDICTED BY IDOCK:   -3.73 KCAL/MOL
REMARK 922        TOTAL FREE ENERGY PREDICTED BY IDOCK:   -6.60 KCAL/MOL
REMARK 923 INTER-LIGAND FREE ENERGY PREDICTED BY IDOCK:   -4.92 KCAL/MOL
REMARK 924 INTRA-LIGAND FREE ENERGY PREDICTED BY IDOCK:   -1.68 KCAL/MOL
REMARK 927      BINDING AFFINITY PREDICTED BY RF-SCORE:    0.00 PKD
ROOT
HETATM    1  C   UNL     1     -12.753  13.870  65.685  1.00  0.00    -0.534 C  
HETATM    2  C   UNL     1     -12.125  13.962  64.304  1.00  0.00    -0.477 C  
ENDROOT
BRANCH   2   3
HETATM    3  C   UNL     1     -12.147  12.618  63.579  1.00  0.00    -0.648 C  
BRANCH   3   4
HETATM    4  C   UNL     1     -10.756  11.987  63.542  1.00  0.00    -0.455 C  
BRANCH   4   5
HETATM    5  O   UNL     1     -10.732  10.885  64.456  1.00  0.00    -0.327 OA 
BRANCH   5   6
HETATM    6  C   UNL     1      -9.787  10.971  65.446  1.00  0.00    -0.251 A  
HETATM    7  C   UNL     1      -8.447  10.610  65.300  1.00  0.00    -0.152 A  
HETATM    8  C   UNL     1      -7.567  10.737  66.383  1.00  0.00    -0.141 A  
HETATM    9  C   UNL     1      -8.026  11.208  67.617  1.00  0.00    -0.116 A  
HETATM   10  C   UNL     1     -10.228  11.506  66.659  1.00  0.00    -0.254 A  
HETATM   11  C   UNL     1      -9.357  11.615  67.748  1.00  0.00    -0.178 A  
BRANCH   9  12
HETATM   12  C   UNL     1      -7.077  11.215  68.776  1.00  0.00    -0.093 C  
HETATM   13  O   UNL     1      -6.599  12.292  69.140  1.00  0.00    -0.095 OA 
BRANCH  12  14
HETATM   14  C   UNL     1      -6.684   9.906  69.431  1.00  0.00    -0.057 C  
BRANCH  14  15
HETATM   15  C   UNL     1      -7.756   9.491  70.442  1.00  0.00    -0.163 C  
BRANCH  15  16
HETATM   16  N   UNL     1      -8.261   8.116  70.316  1.00  0.00    -0.119 NA 
HETATM   17  C   UNL     1      -9.686   8.050  70.691  1.00  0.00    -0.173 C  
HETATM   18  C   UNL     1     -10.628   8.570  69.602  1.00  0.00    -0.221 C  
HETATM   19  C   UNL     1     -10.445   7.758  68.330  1.00  0.00    -0.215 C  
HETATM   20  C   UNL     1      -8.984   7.793  67.892  1.00  0.00    -0.125 C  
HETATM   21  C   UNL     1      -8.019   7.445  69.032  1.00  0.00    -0.122 C  
ENDBRANCH  15  16
ENDBRANCH  14  15
ENDBRANCH  12  14
ENDBRANCH   9  12
ENDBRANCH   5   6
ENDBRANCH   4   5
ENDBRANCH   3   4
ENDBRANCH   2   3
TORSDOF 8
ENDMDL
MODEL      155
REMARK 921   NORMALIZED FREE ENERGY PREDICTED BY IDOCK:   -3.71 KCAL/MOL
REMARK 922        TOTAL FREE ENERGY PREDICTED BY IDOCK:   -6.57 KCAL/MOL
REMARK 923 INTER-LIGAND FREE ENERGY PREDICTED BY IDOCK:   -5.65 KCAL/MOL
REMARK 924 INTRA-LIGAND FREE ENERGY PREDICTED BY IDOCK:   -0.92 KCAL/MOL
REMARK 927      BINDING AFFINITY PREDICTED BY RF-SCORE:    0.00 PKD
ROOT
HETATM    1  C   UNL     1      -9.757   4.708  68.301  1.00  0.00    -0.193 C  
HETATM    2  C   UNL     1      -8.282   4.882  68.625  1.00  0.00    -0.084 C  
ENDROOT
BRANCH   2   3
HETATM    3  C   UNL     1      -7.985   4.588  70.094  1.00  0.00    -0.063 C  
BRANCH   3   4
HETATM    4  C   UNL     1      -8.919   5.372  71.015  1.00  0.00    -0.139 C  
BRANCH   4   5
HETATM    5  O   UNL     1      -8.384   6.688  71.191  1.00  0.00    -0.122 OA 
BRANCH   5   6
HETATM    6  C   UNL     1      -9.230   7.711  70.847  1.00  0.00    -0.149 A  
HETATM    7  C   UNL     1      -9.284   8.309  69.587  1.00  0.00    -0.158 A  
HETATM    8  C   UNL     1     -10.189   9.352  69.346  1.00  0.00    -0.214 A  
HETATM    9  C   UNL     1     -11.028   9.811  70.366  1.00  0.00    -0.371 A  
HETATM   10  C   UNL     1     -10.118   8.125  71.844  1.00  0.00    -0.285 A  
HETATM   11  C   UNL     1     -11.008   9.179  71.613  1.00  0.00    -0.445 A  
BRANCH   9  12
HETATM   12  C   UNL     1     -11.894  11.003  70.095  1.00  0.00    -0.357 C  
HETATM   13  O   UNL     1     -12.683  11.369  70.968  1.00  0.00    -0.374 OA 
BRANCH  12  14
HETATM   14  C   UNL     1     -11.823  11.688  68.745  1.00  0.00    -0.387 C  
BRANCH  14  15
HETATM   15  C   UNL     1     -11.350  13.134  68.924  1.00  0.00    -0.289 C  
BRANCH  15  16
HETATM   16  N   UNL     1     -11.999  14.134  68.065  1.00  0.00    -0.357 NA 
HETATM   17  C   UNL     1     -11.385  15.461  68.258  1.00  0.00    -0.348 C  
HETATM   18  C   UNL     1     -10.039  15.620  67.543  1.00  0.00    -0.253 C  
HETATM   19  C   UNL     1     -10.220  15.404  66.049  1.00  0.00    -0.343 C  
HETATM   20  C   UNL     1     -10.853  14.040  65.789  1.00  0.00    -0.291 C  
HETATM   21  C   UNL     1     -12.107  13.801  66.638  1.00  0.00    -0.429 C  
ENDBRANCH  15  16
ENDBRANCH  14  15
ENDBRANCH  12  14
ENDBRANCH   9  12
ENDBRANCH   5   6
ENDBRANCH   4   5
ENDBRANCH   3   4
ENDBRANCH   2   3
TORSDOF 8
ENDMDL
MODEL      156
REMARK 921   NORMALIZED FREE ENERGY PREDICTED BY IDOCK:   -3.71 KCAL/MOL
REMARK 922        TOTAL FREE ENERGY PREDICTED BY IDOCK:   -6.56 KCAL/MOL
REMARK 923 INTER-LIGAND FREE ENERGY PREDICTED BY IDOCK:   -5.96 KCAL/MOL
REMARK 924 INTRA-LIGAND FREE ENERGY PREDICTED BY IDOCK:   -0.60 KCAL/MOL
REMARK 927      BINDING AFFINITY PREDICTED BY RF-SCORE:    0.00 PKD
ROOT
HETATM    1  C   UNL     1      -6.876  19.418  66.593  1.00  0.00    -0.202 C  
HETATM    2  C   UNL     1      -8.146  19.911  67.267  1.00  0.00    -0.341 C  
ENDROOT
BRANCH   2   3
HETATM    3  C   UNL     1      -9.392  19.565  66.452  1.00  0.00    -0.443 C  
BRANCH   3   4
HETATM    4  C   UNL     1     -10.634  19.508  67.340  1.00  0.00    -0.485 C  
BRANCH   4   5
HETATM    5  O   UNL     1     -10.281  18.883  68.578  1.00  0.00    -0.381 OA 
BRANCH   5   6
HETATM    6  C   UNL     1     -10.516  17.534  68.637  1.00  0.00    -0.338 A  
HETATM    7  C   UNL     1     -11.133  16.789  67.631  1.00  0.00    -0.089 A  
HETATM    8  C   UNL     1     -11.326  15.411  67.798  1.00  0.00    -0.308 A  
HETATM    9  C   UNL     1     -10.919  14.778  68.977  1.00  0.00    -0.257 A  
HETATM   10  C   UNL     1     -10.049  16.887  69.784  1.00  0.00     0.140 A  
HETATM   11  C   UNL     1     -10.257  15.515  69.964  1.00  0.00    -0.286 A  
BRANCH   9  12
HETATM   12  C   UNL     1     -11.252  13.329  69.160  1.00  0.00    -0.251 C  
HETATM   13  O   UNL     1     -11.986  13.005  70.095  1.00  0.00    -0.336 OA 
BRANCH  12  14
HETATM   14  C   UNL     1     -10.636  12.297  68.236  1.00  0.00    -0.243 C  
BRANCH  14  15
HETATM   15  C   UNL     1     -11.670  11.848  67.200  1.00  0.00    -0.236 C  
BRANCH  15  16
HETATM   16  N   UNL     1     -11.223  11.854  65.800  1.00  0.00    -0.325 NA 
HETATM   17  C   UNL     1     -12.320  12.269  64.906  1.00  0.00    -0.299 C  
HETATM   18  C   UNL     1     -12.569  13.780  64.906  1.00  0.00    -0.380 C  
HETATM   19  C   UNL     1     -11.310  14.510  64.466  1.00  0.00    -0.323 C  
HETATM   20  C   UNL     1     -10.138  14.120  65.360  1.00  0.00    -0.359 C  
HETATM   21  C   UNL     1      -9.991  12.601  65.509  1.00  0.00    -0.224 C  
ENDBRANCH  15  16
ENDBRANCH  14  15
ENDBRANCH  12  14
ENDBRANCH   9  12
ENDBRANCH   5   6
ENDBRANCH   4   5
ENDBRANCH   3   4
ENDBRANCH   2   3
TORSDOF 8
ENDMDL
MODEL      157
REMARK 921   NORMALIZED FREE ENERGY PREDICTED BY IDOCK:   -3.70 KCAL/MOL
REMARK 922        TOTAL FREE ENERGY PREDICTED BY IDOCK:   -6.56 KCAL/MOL
REMARK 923 INTER-LIGAND FREE ENERGY PREDICTED BY IDOCK:   -5.54 KCAL/MOL
REMARK 924 INTRA-LIGAND FREE ENERGY PREDICTED BY IDOCK:   -1.02 KCAL/MOL
REMARK 927      BINDING AFFINITY PREDICTED BY RF-SCORE:    0.00 PKD
ROOT
HETATM    1  C   UNL     1      -8.375  19.531  67.547  1.00  0.00    -0.333 C  
HETATM    2  C   UNL     1      -9.533  20.001  66.682  1.00  0.00    -0.524 C  
ENDROOT
BRANCH   2   3
HETATM    3  C   UNL     1     -10.754  19.094  66.825  1.00  0.00    -0.488 C  
BRANCH   3   4
HETATM    4  C   UNL     1     -10.394  17.791  67.536  1.00  0.00    -0.369 C  
BRANCH   4   5
HETATM    5  O   UNL     1     -10.476  16.719  66.590  1.00  0.00    -0.304 OA 
BRANCH   5   6
HETATM    6  C   UNL     1     -10.792  15.496  67.123  1.00  0.00    -0.316 A  
HETATM    7  C   UNL     1     -11.762  14.632  66.612  1.00  0.00    -0.345 A  
HETATM    8  C   UNL     1     -12.005  13.403  67.240  1.00  0.00    -0.393 A  
HETATM    9  C   UNL     1     -11.294  13.043  68.389  1.00  0.00    -0.326 A  
HETATM   10  C   UNL     1     -10.035  15.103  68.230  1.00  0.00    -0.223 A  
HETATM   11  C   UNL     1     -10.289  13.886  68.872  1.00  0.00    -0.163 A  
BRANCH   9  12
HETATM   12  C   UNL     1     -11.670  11.775  69.092  1.00  0.00    -0.325 C  
HETATM   13  O   UNL     1     -12.111  11.846  70.241  1.00  0.00    -0.337 OA 
BRANCH  12  14
HETATM   14  C   UNL     1     -11.446  10.442  68.405  1.00  0.00    -0.227 C  
BRANCH  14  15
HETATM   15  C   UNL     1      -9.984  10.015  68.570  1.00  0.00    -0.162 C  
BRANCH  15  16
HETATM   16  N   UNL     1      -9.273   9.668  67.332  1.00  0.00    -0.130 NA 
HETATM   17  C   UNL     1      -8.891  10.887  66.594  1.00  0.00    -0.159 C  
HETATM   18  C   UNL     1      -7.668  11.598  67.181  1.00  0.00    -0.159 C  
HETATM   19  C   UNL     1      -6.473  10.658  67.175  1.00  0.00    -0.075 C  
HETATM   20  C   UNL     1      -6.810   9.376  67.929  1.00  0.00    -0.075 C  
HETATM   21  C   UNL     1      -8.132   8.752  67.467  1.00  0.00    -0.106 C  
ENDBRANCH  15  16
ENDBRANCH  14  15
ENDBRANCH  12  14
ENDBRANCH   9  12
ENDBRANCH   5   6
ENDBRANCH   4   5
ENDBRANCH   3   4
ENDBRANCH   2   3
TORSDOF 8
ENDMDL
MODEL      158
REMARK 921   NORMALIZED FREE ENERGY PREDICTED BY IDOCK:   -3.69 KCAL/MOL
REMARK 922        TOTAL FREE ENERGY PREDICTED BY IDOCK:   -6.54 KCAL/MOL
REMARK 923 INTER-LIGAND FREE ENERGY PREDICTED BY IDOCK:   -6.17 KCAL/MOL
REMARK 924 INTRA-LIGAND FREE ENERGY PREDICTED BY IDOCK:   -0.38 KCAL/MOL
REMARK 927      BINDING AFFINITY PREDICTED BY RF-SCORE:    0.00 PKD
ROOT
HETATM    1  C   UNL     1      -8.129  18.741  66.341  1.00  0.00    -0.296 C  
HETATM    2  C   UNL     1      -8.644  18.306  67.703  1.00  0.00    -0.261 C  
ENDROOT
BRANCH   2   3
HETATM    3  C   UNL     1     -10.028  17.665  67.609  1.00  0.00    -0.323 C  
BRANCH   3   4
HETATM    4  C   UNL     1     -10.626  17.433  68.996  1.00  0.00    -0.207 C  
BRANCH   4   5
HETATM    5  O   UNL     1      -9.821  16.469  69.683  1.00  0.00    -0.147 OA 
BRANCH   5   6
HETATM    6  C   UNL     1     -10.121  15.159  69.409  1.00  0.00    -0.240 A  
HETATM    7  C   UNL     1      -9.256  14.258  68.786  1.00  0.00    -0.112 A  
HETATM    8  C   UNL     1      -9.669  12.940  68.552  1.00  0.00    -0.129 A  
HETATM    9  C   UNL     1     -10.952  12.524  68.922  1.00  0.00    -0.272 A  
HETATM   10  C   UNL     1     -11.376  14.722  69.840  1.00  0.00    -0.310 A  
HETATM   11  C   UNL     1     -11.800  13.412  69.590  1.00  0.00    -0.394 A  
BRANCH   9  12
HETATM   12  C   UNL     1     -11.389  11.142  68.546  1.00  0.00    -0.282 C  
HETATM   13  O   UNL     1     -11.910  10.432  69.409  1.00  0.00    -0.211 OA 
BRANCH  12  14
HETATM   14  C   UNL     1     -11.131  10.630  67.143  1.00  0.00    -0.267 C  
BRANCH  14  15
HETATM   15  C   UNL     1     -11.050  11.809  66.169  1.00  0.00    -0.307 C  
BRANCH  15  16
HETATM   16  N   UNL     1     -12.328  12.449  65.827  1.00  0.00    -0.603 NA 
HETATM   17  C   UNL     1     -12.347  13.850  66.291  1.00  0.00    -0.449 C  
HETATM   18  C   UNL     1     -11.550  14.800  65.392  1.00  0.00    -0.316 C  
HETATM   19  C   UNL     1     -12.115  14.771  63.981  1.00  0.00    -0.189 C  
HETATM   20  C   UNL     1     -12.118  13.341  63.447  1.00  0.00    -0.508 C  
HETATM   21  C   UNL     1     -12.757  12.349  64.426  1.00  0.00    -0.342 C  
ENDBRANCH  15  16
ENDBRANCH  14  15
ENDBRANCH  12  14
ENDBRANCH   9  12
ENDBRANCH   5   6
ENDBRANCH   4   5
ENDBRANCH   3   4
ENDBRANCH   2   3
TORSDOF 8
ENDMDL
MODEL      159
REMARK 921   NORMALIZED FREE ENERGY PREDICTED BY IDOCK:   -3.67 KCAL/MOL
REMARK 922        TOTAL FREE ENERGY PREDICTED BY IDOCK:   -6.50 KCAL/MOL
REMARK 923 INTER-LIGAND FREE ENERGY PREDICTED BY IDOCK:   -6.01 KCAL/MOL
REMARK 924 INTRA-LIGAND FREE ENERGY PREDICTED BY IDOCK:   -0.49 KCAL/MOL
REMARK 927      BINDING AFFINITY PREDICTED BY RF-SCORE:    0.00 PKD
ROOT
HETATM    1  C   UNL     1      -9.913  17.636  68.477  1.00  0.00    -0.368 C  
HETATM    2  C   UNL     1      -9.929  17.673  66.958  1.00  0.00    -0.320 C  
ENDROOT
BRANCH   2   3
HETATM    3  C   UNL     1     -10.186  16.291  66.359  1.00  0.00    -0.322 C  
BRANCH   3   4
HETATM    4  C   UNL     1     -10.282  15.225  67.449  1.00  0.00    -0.243 C  
BRANCH   4   5
HETATM    5  O   UNL     1     -11.535  14.546  67.313  1.00  0.00    -0.335 OA 
BRANCH   5   6
HETATM    6  C   UNL     1     -11.822  13.649  68.309  1.00  0.00    -0.369 A  
HETATM    7  C   UNL     1     -12.174  13.996  69.615  1.00  0.00    -0.383 A  
HETATM    8  C   UNL     1     -12.444  12.993  70.556  1.00  0.00    -0.306 A  
HETATM    9  C   UNL     1     -12.348  11.644  70.200  1.00  0.00    -0.297 A  
HETATM   10  C   UNL     1     -11.794  12.302  67.938  1.00  0.00    -0.358 A  
HETATM   11  C   UNL     1     -12.044  11.298  68.880  1.00  0.00    -0.292 A  
BRANCH   9  12
HETATM   12  C   UNL     1     -12.531  10.610  71.268  1.00  0.00    -0.410 C  
HETATM   13  O   UNL     1     -13.131  10.925  72.297  1.00  0.00    -0.376 OA 
BRANCH  12  14
HETATM   14  C   UNL     1     -11.930   9.230  71.086  1.00  0.00    -0.394 C  
BRANCH  14  15
HETATM   15  C   UNL     1     -10.933   8.948  72.214  1.00  0.00    -0.175 C  
BRANCH  15  16
HETATM   16  N   UNL     1      -9.524   8.835  71.812  1.00  0.00    -0.284 NA 
HETATM   17  C   UNL     1      -9.112   7.419  71.759  1.00  0.00    -0.129 C  
HETATM   18  C   UNL     1      -9.600   6.688  70.505  1.00  0.00    -0.177 C  
HETATM   19  C   UNL     1      -9.058   7.377  69.262  1.00  0.00    -0.135 C  
HETATM   20  C   UNL     1      -9.457   8.850  69.263  1.00  0.00    -0.161 C  
HETATM   21  C   UNL     1      -9.132   9.547  70.589  1.00  0.00    -0.174 C  
ENDBRANCH  15  16
ENDBRANCH  14  15
ENDBRANCH  12  14
ENDBRANCH   9  12
ENDBRANCH   5   6
ENDBRANCH   4   5
ENDBRANCH   3   4
ENDBRANCH   2   3
TORSDOF 8
ENDMDL
MODEL      160
REMARK 921   NORMALIZED FREE ENERGY PREDICTED BY IDOCK:   -3.65 KCAL/MOL
REMARK 922        TOTAL FREE ENERGY PREDICTED BY IDOCK:   -6.48 KCAL/MOL
REMARK 923 INTER-LIGAND FREE ENERGY PREDICTED BY IDOCK:   -5.73 KCAL/MOL
REMARK 924 INTRA-LIGAND FREE ENERGY PREDICTED BY IDOCK:   -0.75 KCAL/MOL
REMARK 927      BINDING AFFINITY PREDICTED BY RF-SCORE:    0.00 PKD
ROOT
HETATM    1  C   UNL     1      -9.132  14.623  66.853  1.00  0.00    -0.272 C  
HETATM    2  C   UNL     1     -10.476  14.477  67.549  1.00  0.00    -0.253 C  
ENDROOT
BRANCH   2   3
HETATM    3  C   UNL     1     -11.451  13.633  66.731  1.00  0.00    -0.370 C  
BRANCH   3   4
HETATM    4  C   UNL     1     -11.826  12.349  67.468  1.00  0.00    -0.284 C  
BRANCH   4   5
HETATM    5  O   UNL     1     -10.642  11.564  67.645  1.00  0.00    -0.186 OA 
BRANCH   5   6
HETATM    6  C   UNL     1     -10.592  10.839  68.807  1.00  0.00    -0.200 A  
HETATM    7  C   UNL     1     -11.642  10.723  69.719  1.00  0.00    -0.393 A  
HETATM    8  C   UNL     1     -11.480   9.956  70.880  1.00  0.00    -0.456 A  
HETATM    9  C   UNL     1     -10.263   9.318  71.142  1.00  0.00    -0.387 A  
HETATM   10  C   UNL     1      -9.401  10.145  69.038  1.00  0.00    -0.192 A  
HETATM   11  C   UNL     1      -9.228   9.394  70.206  1.00  0.00    -0.285 A  
BRANCH   9  12
HETATM   12  C   UNL     1     -10.098   8.608  72.451  1.00  0.00    -0.250 C  
HETATM   13  O   UNL     1      -9.029   8.722  73.053  1.00  0.00    -0.309 OA 
BRANCH  12  14
HETATM   14  C   UNL     1     -11.216   7.726  72.971  1.00  0.00    -0.380 C  
BRANCH  14  15
HETATM   15  C   UNL     1     -11.028   6.296  72.456  1.00  0.00    -0.251 C  
BRANCH  15  16
HETATM   16  N   UNL     1      -9.897   5.551  73.026  1.00  0.00    -0.161 NA 
HETATM   17  C   UNL     1     -10.372   4.551  74.002  1.00  0.00    -0.230 C  
HETATM   18  C   UNL     1     -10.961   3.296  73.350  1.00  0.00    -0.301 C  
HETATM   19  C   UNL     1      -9.912   2.629  72.475  1.00  0.00    -0.226 C  
HETATM   20  C   UNL     1      -9.384   3.619  71.442  1.00  0.00    -0.211 C  
HETATM   21  C   UNL     1      -8.957   4.952  72.069  1.00  0.00    -0.131 C  
ENDBRANCH  15  16
ENDBRANCH  14  15
ENDBRANCH  12  14
ENDBRANCH   9  12
ENDBRANCH   5   6
ENDBRANCH   4   5
ENDBRANCH   3   4
ENDBRANCH   2   3
TORSDOF 8
ENDMDL
MODEL      161
REMARK 921   NORMALIZED FREE ENERGY PREDICTED BY IDOCK:   -3.65 KCAL/MOL
REMARK 922        TOTAL FREE ENERGY PREDICTED BY IDOCK:   -6.47 KCAL/MOL
REMARK 923 INTER-LIGAND FREE ENERGY PREDICTED BY IDOCK:   -5.35 KCAL/MOL
REMARK 924 INTRA-LIGAND FREE ENERGY PREDICTED BY IDOCK:   -1.12 KCAL/MOL
REMARK 927      BINDING AFFINITY PREDICTED BY RF-SCORE:    0.00 PKD
ROOT
HETATM    1  C   UNL     1      -8.803   7.564  66.872  1.00  0.00    -0.145 C  
HETATM    2  C   UNL     1      -7.449   7.224  67.472  1.00  0.00    -0.101 C  
ENDROOT
BRANCH   2   3
HETATM    3  C   UNL     1      -7.463   5.867  68.173  1.00  0.00    -0.081 C  
BRANCH   3   4
HETATM    4  C   UNL     1      -8.824   5.586  68.808  1.00  0.00    -0.107 C  
BRANCH   4   5
HETATM    5  O   UNL     1      -8.806   6.068  70.156  1.00  0.00    -0.140 OA 
BRANCH   5   6
HETATM    6  C   UNL     1      -9.685   7.086  70.422  1.00  0.00    -0.176 A  
HETATM    7  C   UNL     1     -11.058   6.924  70.608  1.00  0.00    -0.322 A  
HETATM    8  C   UNL     1     -11.865   8.039  70.872  1.00  0.00    -0.236 A  
HETATM    9  C   UNL     1     -11.305   9.319  70.935  1.00  0.00    -0.373 A  
HETATM   10  C   UNL     1      -9.117   8.357  70.553  1.00  0.00    -0.163 A  
HETATM   11  C   UNL     1      -9.922   9.475  70.798  1.00  0.00    -0.334 A  
BRANCH   9  12
HETATM   12  C   UNL     1     -12.222  10.491  71.103  1.00  0.00    -0.391 C  
HETATM   13  O   UNL     1     -13.105  10.431  71.961  1.00  0.00    -0.455 OA 
BRANCH  12  14
HETATM   14  C   UNL     1     -12.083  11.689  70.184  1.00  0.00    -0.414 C  
BRANCH  14  15
HETATM   15  C   UNL     1     -12.044  11.221  68.727  1.00  0.00    -0.190 C  
BRANCH  15  16
HETATM   16  N   UNL     1     -10.813  11.529  67.985  1.00  0.00    -0.201 NA 
HETATM   17  C   UNL     1     -11.055  11.470  66.531  1.00  0.00    -0.282 C  
HETATM   18  C   UNL     1     -11.778  12.703  65.982  1.00  0.00    -0.470 C  
HETATM   19  C   UNL     1     -10.958  13.951  66.266  1.00  0.00    -0.298 C  
HETATM   20  C   UNL     1     -10.679  14.066  67.761  1.00  0.00    -0.248 C  
HETATM   21  C   UNL     1     -10.118  12.769  68.357  1.00  0.00    -0.226 C  
ENDBRANCH  15  16
ENDBRANCH  14  15
ENDBRANCH  12  14
ENDBRANCH   9  12
ENDBRANCH   5   6
ENDBRANCH   4   5
ENDBRANCH   3   4
ENDBRANCH   2   3
TORSDOF 8
ENDMDL
MODEL      162
REMARK 921   NORMALIZED FREE ENERGY PREDICTED BY IDOCK:   -3.64 KCAL/MOL
REMARK 922        TOTAL FREE ENERGY PREDICTED BY IDOCK:   -6.46 KCAL/MOL
REMARK 923 INTER-LIGAND FREE ENERGY PREDICTED BY IDOCK:   -5.60 KCAL/MOL
REMARK 924 INTRA-LIGAND FREE ENERGY PREDICTED BY IDOCK:   -0.87 KCAL/MOL
REMARK 927      BINDING AFFINITY PREDICTED BY RF-SCORE:    0.00 PKD
ROOT
HETATM    1  C   UNL     1     -13.026  14.869  71.756  1.00  0.00    -0.417 C  
HETATM    2  C   UNL     1     -12.061  14.463  70.654  1.00  0.00    -0.404 C  
ENDROOT
BRANCH   2   3
HETATM    3  C   UNL     1     -11.994  15.509  69.543  1.00  0.00    -0.372 C  
BRANCH   3   4
HETATM    4  C   UNL     1     -10.649  15.463  68.820  1.00  0.00    -0.235 C  
BRANCH   4   5
HETATM    5  O   UNL     1     -10.827  14.790  67.569  1.00  0.00    -0.274 OA 
BRANCH   5   6
HETATM    6  C   UNL     1     -10.518  13.454  67.578  1.00  0.00    -0.236 A  
HETATM    7  C   UNL     1      -9.255  12.932  67.861  1.00  0.00    -0.208 A  
HETATM    8  C   UNL     1      -9.050  11.545  67.839  1.00  0.00    -0.167 A  
HETATM    9  C   UNL     1     -10.101  10.680  67.518  1.00  0.00    -0.217 A  
HETATM   10  C   UNL     1     -11.582  12.584  67.325  1.00  0.00    -0.434 A  
HETATM   11  C   UNL     1     -11.377  11.201  67.283  1.00  0.00    -0.302 A  
BRANCH   9  12
HETATM   12  C   UNL     1      -9.806   9.217  67.392  1.00  0.00    -0.184 C  
HETATM   13  O   UNL     1     -10.211   8.617  66.394  1.00  0.00    -0.282 OA 
BRANCH  12  14
HETATM   14  C   UNL     1      -9.077   8.501  68.511  1.00  0.00    -0.135 C  
BRANCH  14  15
HETATM   15  C   UNL     1     -10.055   8.178  69.644  1.00  0.00    -0.199 C  
BRANCH  15  16
HETATM   16  N   UNL     1     -10.597   6.813  69.656  1.00  0.00    -0.220 NA 
HETATM   17  C   UNL     1      -9.547   5.842  70.021  1.00  0.00    -0.164 C  
HETATM   18  C   UNL     1      -9.241   5.808  71.521  1.00  0.00    -0.159 C  
HETATM   19  C   UNL     1     -10.497   5.447  72.296  1.00  0.00    -0.272 C  
HETATM   20  C   UNL     1     -11.620   6.423  71.959  1.00  0.00    -0.368 C  
HETATM   21  C   UNL     1     -11.815   6.598  70.449  1.00  0.00    -0.346 C  
ENDBRANCH  15  16
ENDBRANCH  14  15
ENDBRANCH  12  14
ENDBRANCH   9  12
ENDBRANCH   5   6
ENDBRANCH   4   5
ENDBRANCH   3   4
ENDBRANCH   2   3
TORSDOF 8
ENDMDL
MODEL      163
REMARK 921   NORMALIZED FREE ENERGY PREDICTED BY IDOCK:   -3.61 KCAL/MOL
REMARK 922        TOTAL FREE ENERGY PREDICTED BY IDOCK:   -6.42 KCAL/MOL
REMARK 923 INTER-LIGAND FREE ENERGY PREDICTED BY IDOCK:   -5.42 KCAL/MOL
REMARK 924 INTRA-LIGAND FREE ENERGY PREDICTED BY IDOCK:   -1.00 KCAL/MOL
REMARK 927      BINDING AFFINITY PREDICTED BY RF-SCORE:    0.00 PKD
ROOT
HETATM    1  C   UNL     1     -10.846  19.451  66.914  1.00  0.00    -0.509 C  
HETATM    2  C   UNL     1      -9.821  20.533  67.213  1.00  0.00    -0.581 C  
ENDROOT
BRANCH   2   3
HETATM    3  C   UNL     1      -8.431  20.154  66.707  1.00  0.00    -0.365 C  
BRANCH   3   4
HETATM    4  C   UNL     1      -7.435  20.040  67.860  1.00  0.00    -0.295 C  
BRANCH   4   5
HETATM    5  O   UNL     1      -7.958  19.121  68.825  1.00  0.00    -0.345 OA 
BRANCH   5   6
HETATM    6  C   UNL     1      -7.824  17.796  68.498  1.00  0.00    -0.290 A  
HETATM    7  C   UNL     1      -6.668  17.220  67.969  1.00  0.00    -0.177 A  
HETATM    8  C   UNL     1      -6.644  15.851  67.669  1.00  0.00    -0.197 A  
HETATM    9  C   UNL     1      -7.777  15.060  67.880  1.00  0.00    -0.145 A  
HETATM   10  C   UNL     1      -8.932  16.990  68.772  1.00  0.00    -0.249 A  
HETATM   11  C   UNL     1      -8.918  15.627  68.456  1.00  0.00    -0.192 A  
BRANCH   9  12
HETATM   12  C   UNL     1      -7.742  13.630  67.435  1.00  0.00    -0.143 C  
HETATM   13  O   UNL     1      -6.648  13.114  67.196  1.00  0.00    -0.192 OA 
BRANCH  12  14
HETATM   14  C   UNL     1      -9.041  12.875  67.235  1.00  0.00    -0.208 C  
BRANCH  14  15
HETATM   15  C   UNL     1      -9.202  11.821  68.335  1.00  0.00    -0.175 C  
BRANCH  15  16
HETATM   16  N   UNL     1      -8.578  10.517  68.072  1.00  0.00    -0.119 NA 
HETATM   17  C   UNL     1      -9.143   9.483  68.960  1.00  0.00    -0.144 C  
HETATM   18  C   UNL     1     -10.524   8.989  68.519  1.00  0.00    -0.232 C  
HETATM   19  C   UNL     1     -10.439   8.403  67.118  1.00  0.00    -0.380 C  
HETATM   20  C   UNL     1      -9.861   9.434  66.153  1.00  0.00    -0.356 C  
HETATM   21  C   UNL     1      -8.565  10.067  66.674  1.00  0.00    -0.125 C  
ENDBRANCH  15  16
ENDBRANCH  14  15
ENDBRANCH  12  14
ENDBRANCH   9  12
ENDBRANCH   5   6
ENDBRANCH   4   5
ENDBRANCH   3   4
ENDBRANCH   2   3
TORSDOF 8
ENDMDL
MODEL      164
REMARK 921   NORMALIZED FREE ENERGY PREDICTED BY IDOCK:   -3.59 KCAL/MOL
REMARK 922        TOTAL FREE ENERGY PREDICTED BY IDOCK:   -6.39 KCAL/MOL
REMARK 923 INTER-LIGAND FREE ENERGY PREDICTED BY IDOCK:   -5.20 KCAL/MOL
REMARK 924 INTRA-LIGAND FREE ENERGY PREDICTED BY IDOCK:   -1.18 KCAL/MOL
REMARK 927      BINDING AFFINITY PREDICTED BY RF-SCORE:    0.00 PKD
ROOT
HETATM    1  C   UNL     1      -9.060  10.937  62.620  1.00  0.00    -0.364 C  
HETATM    2  C   UNL     1      -8.840   9.444  62.442  1.00  0.00    -0.257 C  
ENDROOT
BRANCH   2   3
HETATM    3  C   UNL     1      -8.091   8.835  63.626  1.00  0.00    -0.169 C  
BRANCH   3   4
HETATM    4  C   UNL     1      -8.074   9.789  64.819  1.00  0.00    -0.146 C  
BRANCH   4   5
HETATM    5  O   UNL     1      -7.816   9.030  66.006  1.00  0.00    -0.100 OA 
BRANCH   5   6
HETATM    6  C   UNL     1      -8.583   9.368  67.091  1.00  0.00    -0.128 A  
HETATM    7  C   UNL     1      -8.081   9.662  68.360  1.00  0.00    -0.104 A  
HETATM    8  C   UNL     1      -8.959   9.994  69.400  1.00  0.00    -0.205 A  
HETATM    9  C   UNL     1     -10.340  10.016  69.180  1.00  0.00    -0.233 A  
HETATM   10  C   UNL     1      -9.958   9.459  66.857  1.00  0.00    -0.293 A  
HETATM   11  C   UNL     1     -10.839   9.770  67.898  1.00  0.00    -0.298 A  
BRANCH   9  12
HETATM   12  C   UNL     1     -11.244  10.260  70.349  1.00  0.00    -0.332 C  
HETATM   13  O   UNL     1     -11.061   9.614  71.382  1.00  0.00    -0.365 OA 
BRANCH  12  14
HETATM   14  C   UNL     1     -12.390  11.244  70.217  1.00  0.00    -0.389 C  
BRANCH  14  15
HETATM   15  C   UNL     1     -11.865  12.674  70.381  1.00  0.00    -0.154 C  
BRANCH  15  16
HETATM   16  N   UNL     1     -12.179  13.603  69.287  1.00  0.00    -0.294 NA 
HETATM   17  C   UNL     1     -11.740  14.970  69.626  1.00  0.00    -0.321 C  
HETATM   18  C   UNL     1     -10.232  15.183  69.468  1.00  0.00    -0.241 C  
HETATM   19  C   UNL     1      -9.818  14.906  68.032  1.00  0.00    -0.216 C  
HETATM   20  C   UNL     1     -10.246  13.499  67.626  1.00  0.00    -0.239 C  
HETATM   21  C   UNL     1     -11.719  13.215  67.947  1.00  0.00    -0.357 C  
ENDBRANCH  15  16
ENDBRANCH  14  15
ENDBRANCH  12  14
ENDBRANCH   9  12
ENDBRANCH   5   6
ENDBRANCH   4   5
ENDBRANCH   3   4
ENDBRANCH   2   3
TORSDOF 8
ENDMDL
MODEL      165
REMARK 921   NORMALIZED FREE ENERGY PREDICTED BY IDOCK:   -3.58 KCAL/MOL
REMARK 922        TOTAL FREE ENERGY PREDICTED BY IDOCK:   -6.38 KCAL/MOL
REMARK 923 INTER-LIGAND FREE ENERGY PREDICTED BY IDOCK:   -5.68 KCAL/MOL
REMARK 924 INTRA-LIGAND FREE ENERGY PREDICTED BY IDOCK:   -0.70 KCAL/MOL
REMARK 927      BINDING AFFINITY PREDICTED BY RF-SCORE:    0.00 PKD
ROOT
HETATM    1  C   UNL     1     -10.206   3.917  64.364  1.00  0.00    -0.239 C  
HETATM    2  C   UNL     1      -9.130   4.811  64.960  1.00  0.00    -0.150 C  
ENDROOT
BRANCH   2   3
HETATM    3  C   UNL     1      -9.603   5.488  66.245  1.00  0.00    -0.173 C  
BRANCH   3   4
HETATM    4  C   UNL     1      -8.617   6.563  66.699  1.00  0.00    -0.118 C  
BRANCH   4   5
HETATM    5  O   UNL     1      -9.274   7.414  67.645  1.00  0.00    -0.128 OA 
BRANCH   5   6
HETATM    6  C   UNL     1      -9.701   8.617  67.146  1.00  0.00    -0.190 A  
HETATM    7  C   UNL     1      -9.258   9.186  65.951  1.00  0.00    -0.286 A  
HETATM    8  C   UNL     1      -9.762  10.426  65.538  1.00  0.00    -0.307 A  
HETATM    9  C   UNL     1     -10.695  11.109  66.324  1.00  0.00    -0.298 A  
HETATM   10  C   UNL     1     -10.685   9.269  67.896  1.00  0.00    -0.248 A  
HETATM   11  C   UNL     1     -11.175  10.517  67.496  1.00  0.00    -0.299 A  
BRANCH   9  12
HETATM   12  C   UNL     1     -11.116  12.483  65.901  1.00  0.00    -0.299 C  
HETATM   13  O   UNL     1     -10.467  13.054  65.022  1.00  0.00    -0.304 OA 
BRANCH  12  14
HETATM   14  C   UNL     1     -12.282  13.157  66.596  1.00  0.00    -0.331 C  
BRANCH  14  15
HETATM   15  C   UNL     1     -11.769  14.298  67.478  1.00  0.00    -0.384 C  
BRANCH  15  16
HETATM   16  N   UNL     1     -10.947  13.901  68.630  1.00  0.00    -0.253 NA 
HETATM   17  C   UNL     1     -10.359  15.087  69.281  1.00  0.00    -0.246 C  
HETATM   18  C   UNL     1     -11.350  15.852  70.164  1.00  0.00    -0.369 C  
HETATM   19  C   UNL     1     -11.881  14.938  71.256  1.00  0.00    -0.391 C  
HETATM   20  C   UNL     1     -12.505  13.690  70.638  1.00  0.00    -0.417 C  
HETATM   21  C   UNL     1     -11.583  13.016  69.615  1.00  0.00    -0.253 C  
ENDBRANCH  15  16
ENDBRANCH  14  15
ENDBRANCH  12  14
ENDBRANCH   9  12
ENDBRANCH   5   6
ENDBRANCH   4   5
ENDBRANCH   3   4
ENDBRANCH   2   3
TORSDOF 8
ENDMDL
MODEL      166
REMARK 921   NORMALIZED FREE ENERGY PREDICTED BY IDOCK:   -3.57 KCAL/MOL
REMARK 922        TOTAL FREE ENERGY PREDICTED BY IDOCK:   -6.36 KCAL/MOL
REMARK 923 INTER-LIGAND FREE ENERGY PREDICTED BY IDOCK:   -5.79 KCAL/MOL
REMARK 924 INTRA-LIGAND FREE ENERGY PREDICTED BY IDOCK:   -0.58 KCAL/MOL
REMARK 927      BINDING AFFINITY PREDICTED BY RF-SCORE:    0.00 PKD
ROOT
HETATM    1  C   UNL     1      -6.188  16.062  69.982  1.00  0.00    -0.117 C  
HETATM    2  C   UNL     1      -6.282  14.558  69.790  1.00  0.00    -0.140 C  
ENDROOT
BRANCH   2   3
HETATM    3  C   UNL     1      -6.269  14.172  68.312  1.00  0.00    -0.117 C  
BRANCH   3   4
HETATM    4  C   UNL     1      -7.338  13.125  68.003  1.00  0.00    -0.125 C  
BRANCH   4   5
HETATM    5  O   UNL     1      -8.584  13.574  68.547  1.00  0.00    -0.160 OA 
BRANCH   5   6
HETATM    6  C   UNL     1      -9.039  14.769  68.051  1.00  0.00    -0.179 A  
HETATM    7  C   UNL     1      -9.775  15.704  68.779  1.00  0.00    -0.212 A  
HETATM    8  C   UNL     1     -10.192  16.895  68.169  1.00  0.00    -0.311 A  
HETATM    9  C   UNL     1      -9.890  17.146  66.827  1.00  0.00    -0.288 A  
HETATM   10  C   UNL     1      -8.679  15.053  66.731  1.00  0.00    -0.293 A  
HETATM   11  C   UNL     1      -9.111  16.231  66.112  1.00  0.00    -0.377 A  
BRANCH   9  12
HETATM   12  C   UNL     1     -10.456  18.375  66.186  1.00  0.00    -0.395 C  
HETATM   13  O   UNL     1     -11.034  18.263  65.103  1.00  0.00    -0.628 OA 
BRANCH  12  14
HETATM   14  C   UNL     1     -10.256  19.724  66.847  1.00  0.00    -0.579 C  
BRANCH  14  15
HETATM   15  C   UNL     1      -8.889  19.765  67.537  1.00  0.00    -0.326 C  
BRANCH  15  16
HETATM   16  N   UNL     1      -7.840  20.522  66.840  1.00  0.00    -0.291 NA 
HETATM   17  C   UNL     1      -6.791  20.946  67.787  1.00  0.00    -0.294 C  
HETATM   18  C   UNL     1      -5.823  19.822  68.168  1.00  0.00    -0.246 C  
HETATM   19  C   UNL     1      -5.136  19.288  66.922  1.00  0.00    -0.151 C  
HETATM   20  C   UNL     1      -6.177  18.831  65.905  1.00  0.00    -0.246 C  
HETATM   21  C   UNL     1      -7.256  19.890  65.650  1.00  0.00    -0.309 C  
ENDBRANCH  15  16
ENDBRANCH  14  15
ENDBRANCH  12  14
ENDBRANCH   9  12
ENDBRANCH   5   6
ENDBRANCH   4   5
ENDBRANCH   3   4
ENDBRANCH   2   3
TORSDOF 8
ENDMDL
MODEL      167
REMARK 921   NORMALIZED FREE ENERGY PREDICTED BY IDOCK:   -3.56 KCAL/MOL
REMARK 922        TOTAL FREE ENERGY PREDICTED BY IDOCK:   -6.35 KCAL/MOL
REMARK 923 INTER-LIGAND FREE ENERGY PREDICTED BY IDOCK:   -5.47 KCAL/MOL
REMARK 924 INTRA-LIGAND FREE ENERGY PREDICTED BY IDOCK:   -0.89 KCAL/MOL
REMARK 927      BINDING AFFINITY PREDICTED BY RF-SCORE:    0.00 PKD
ROOT
HETATM    1  C   UNL     1     -13.542  13.051  72.293  1.00  0.00    -0.643 C  
HETATM    2  C   UNL     1     -13.605  14.542  72.583  1.00  0.00    -0.577 C  
ENDROOT
BRANCH   2   3
HETATM    3  C   UNL     1     -13.628  15.369  71.299  1.00  0.00    -0.585 C  
BRANCH   3   4
HETATM    4  C   UNL     1     -12.213  15.646  70.793  1.00  0.00    -0.418 C  
BRANCH   4   5
HETATM    5  O   UNL     1     -12.217  15.562  69.364  1.00  0.00    -0.312 OA 
BRANCH   5   6
HETATM    6  C   UNL     1     -11.429  14.571  68.837  1.00  0.00    -0.300 A  
HETATM    7  C   UNL     1     -10.093  14.729  68.465  1.00  0.00    -0.230 A  
HETATM    8  C   UNL     1      -9.382  13.645  67.933  1.00  0.00    -0.206 A  
HETATM    9  C   UNL     1     -10.008  12.407  67.756  1.00  0.00    -0.205 A  
HETATM   10  C   UNL     1     -12.031  13.315  68.724  1.00  0.00    -0.335 A  
HETATM   11  C   UNL     1     -11.330  12.235  68.175  1.00  0.00    -0.349 A  
BRANCH   9  12
HETATM   12  C   UNL     1      -9.243  11.313  67.076  1.00  0.00    -0.165 C  
HETATM   13  O   UNL     1      -8.181  10.936  67.576  1.00  0.00    -0.115 OA 
BRANCH  12  14
HETATM   14  C   UNL     1      -9.757  10.739  65.771  1.00  0.00    -0.278 C  
BRANCH  14  15
HETATM   15  C   UNL     1      -8.577  10.410  64.850  1.00  0.00    -0.182 C  
BRANCH  15  16
HETATM   16  N   UNL     1      -8.455   9.005  64.440  1.00  0.00    -0.181 NA 
HETATM   17  C   UNL     1      -7.173   8.777  63.745  1.00  0.00    -0.096 C  
HETATM   18  C   UNL     1      -5.975   8.678  64.693  1.00  0.00    -0.064 C  
HETATM   19  C   UNL     1      -6.183   7.531  65.670  1.00  0.00    -0.038 C  
HETATM   20  C   UNL     1      -7.498   7.716  66.422  1.00  0.00    -0.084 C  
HETATM   21  C   UNL     1      -8.678   7.996  65.484  1.00  0.00    -0.102 C  
ENDBRANCH  15  16
ENDBRANCH  14  15
ENDBRANCH  12  14
ENDBRANCH   9  12
ENDBRANCH   5   6
ENDBRANCH   4   5
ENDBRANCH   3   4
ENDBRANCH   2   3
TORSDOF 8
ENDMDL
MODEL      168
REMARK 921   NORMALIZED FREE ENERGY PREDICTED BY IDOCK:   -3.56 KCAL/MOL
REMARK 922        TOTAL FREE ENERGY PREDICTED BY IDOCK:   -6.35 KCAL/MOL
REMARK 923 INTER-LIGAND FREE ENERGY PREDICTED BY IDOCK:   -5.04 KCAL/MOL
REMARK 924 INTRA-LIGAND FREE ENERGY PREDICTED BY IDOCK:   -1.30 KCAL/MOL
REMARK 927      BINDING AFFINITY PREDICTED BY RF-SCORE:    0.00 PKD
ROOT
HETATM    1  C   UNL     1      -9.091   8.754  67.061  1.00  0.00    -0.160 C  
HETATM    2  C   UNL     1      -8.853   8.036  65.743  1.00  0.00    -0.170 C  
ENDROOT
BRANCH   2   3
HETATM    3  C   UNL     1      -7.678   7.063  65.830  1.00  0.00    -0.101 C  
BRANCH   3   4
HETATM    4  C   UNL     1      -8.157   5.644  66.135  1.00  0.00    -0.108 C  
BRANCH   4   5
HETATM    5  O   UNL     1      -7.463   5.168  67.293  1.00  0.00    -0.081 OA 
BRANCH   5   6
HETATM    6  C   UNL     1      -8.109   5.375  68.484  1.00  0.00    -0.095 A  
HETATM    7  C   UNL     1      -7.689   6.268  69.472  1.00  0.00    -0.099 A  
HETATM    8  C   UNL     1      -8.427   6.397  70.657  1.00  0.00    -0.135 A  
HETATM    9  C   UNL     1      -9.573   5.624  70.865  1.00  0.00    -0.212 A  
HETATM   10  C   UNL     1      -9.292   4.654  68.665  1.00  0.00    -0.193 A  
HETATM   11  C   UNL     1     -10.020   4.767  69.855  1.00  0.00    -0.306 A  
BRANCH   9  12
HETATM   12  C   UNL     1     -10.261   5.712  72.192  1.00  0.00    -0.202 C  
HETATM   13  O   UNL     1      -9.581   5.615  73.216  1.00  0.00    -0.146 OA 
BRANCH  12  14
HETATM   14  C   UNL     1     -11.769   5.855  72.247  1.00  0.00    -0.309 C  
BRANCH  14  15
HETATM   15  C   UNL     1     -12.195   7.120  71.497  1.00  0.00    -0.360 C  
BRANCH  15  16
HETATM   16  N   UNL     1     -12.003   8.388  72.214  1.00  0.00    -0.373 NA 
HETATM   17  C   UNL     1     -10.751   9.041  71.786  1.00  0.00    -0.367 C  
HETATM   18  C   UNL     1     -10.861   9.744  70.430  1.00  0.00    -0.370 C  
HETATM   19  C   UNL     1     -11.944  10.810  70.489  1.00  0.00    -0.456 C  
HETATM   20  C   UNL     1     -13.268  10.189  70.925  1.00  0.00    -0.360 C  
HETATM   21  C   UNL     1     -13.128   9.333  72.189  1.00  0.00    -0.443 C  
ENDBRANCH  15  16
ENDBRANCH  14  15
ENDBRANCH  12  14
ENDBRANCH   9  12
ENDBRANCH   5   6
ENDBRANCH   4   5
ENDBRANCH   3   4
ENDBRANCH   2   3
TORSDOF 8
ENDMDL
MODEL      169
REMARK 921   NORMALIZED FREE ENERGY PREDICTED BY IDOCK:   -3.55 KCAL/MOL
REMARK 922        TOTAL FREE ENERGY PREDICTED BY IDOCK:   -6.33 KCAL/MOL
REMARK 923 INTER-LIGAND FREE ENERGY PREDICTED BY IDOCK:   -5.41 KCAL/MOL
REMARK 924 INTRA-LIGAND FREE ENERGY PREDICTED BY IDOCK:   -0.92 KCAL/MOL
REMARK 927      BINDING AFFINITY PREDICTED BY RF-SCORE:    0.00 PKD
ROOT
HETATM    1  C   UNL     1     -13.151  12.643  71.681  1.00  0.00    -0.421 C  
HETATM    2  C   UNL     1     -13.027  14.079  71.198  1.00  0.00    -0.402 C  
ENDROOT
BRANCH   2   3
HETATM    3  C   UNL     1     -11.902  14.240  70.177  1.00  0.00    -0.379 C  
BRANCH   3   4
HETATM    4  C   UNL     1     -11.996  13.181  69.080  1.00  0.00    -0.285 C  
BRANCH   4   5
HETATM    5  O   UNL     1     -10.673  12.738  68.760  1.00  0.00    -0.243 OA 
BRANCH   5   6
HETATM    6  C   UNL     1     -10.560  11.403  68.468  1.00  0.00    -0.198 A  
HETATM    7  C   UNL     1      -9.877  10.884  67.368  1.00  0.00    -0.199 A  
HETATM    8  C   UNL     1      -9.828   9.498  67.165  1.00  0.00    -0.239 A  
HETATM    9  C   UNL     1     -10.476   8.630  68.049  1.00  0.00    -0.254 A  
HETATM   10  C   UNL     1     -11.148  10.531  69.388  1.00  0.00    -0.310 A  
HETATM   11  C   UNL     1     -11.119   9.148  69.178  1.00  0.00     0.036 A  
BRANCH   9  12
HETATM   12  C   UNL     1     -10.496   7.168  67.727  1.00  0.00    -0.223 C  
HETATM   13  O   UNL     1     -11.082   6.796  66.708  1.00  0.00    -0.338 OA 
BRANCH  12  14
HETATM   14  C   UNL     1      -9.853   6.182  68.681  1.00  0.00    -0.160 C  
BRANCH  14  15
HETATM   15  C   UNL     1      -9.010   6.935  69.714  1.00  0.00    -0.141 C  
BRANCH  15  16
HETATM   16  N   UNL     1      -9.090   6.439  71.095  1.00  0.00    -0.149 NA 
HETATM   17  C   UNL     1      -8.731   7.504  72.051  1.00  0.00    -0.111 C  
HETATM   18  C   UNL     1      -9.853   8.521  72.279  1.00  0.00    -0.383 C  
HETATM   19  C   UNL     1     -11.089   7.815  72.812  1.00  0.00    -0.457 C  
HETATM   20  C   UNL     1     -11.509   6.701  71.858  1.00  0.00    -0.332 C  
HETATM   21  C   UNL     1     -10.343   5.778  71.482  1.00  0.00    -0.220 C  
ENDBRANCH  15  16
ENDBRANCH  14  15
ENDBRANCH  12  14
ENDBRANCH   9  12
ENDBRANCH   5   6
ENDBRANCH   4   5
ENDBRANCH   3   4
ENDBRANCH   2   3
TORSDOF 8
ENDMDL
MODEL      170
REMARK 921   NORMALIZED FREE ENERGY PREDICTED BY IDOCK:   -3.55 KCAL/MOL
REMARK 922        TOTAL FREE ENERGY PREDICTED BY IDOCK:   -6.33 KCAL/MOL
REMARK 923 INTER-LIGAND FREE ENERGY PREDICTED BY IDOCK:   -5.11 KCAL/MOL
REMARK 924 INTRA-LIGAND FREE ENERGY PREDICTED BY IDOCK:   -1.22 KCAL/MOL
REMARK 927      BINDING AFFINITY PREDICTED BY RF-SCORE:    0.00 PKD
ROOT
HETATM    1  C   UNL     1     -10.284  10.824  64.501  1.00  0.00    -0.428 C  
HETATM    2  C   UNL     1     -11.307  11.734  63.840  1.00  0.00    -0.494 C  
ENDROOT
BRANCH   2   3
HETATM    3  C   UNL     1     -11.064  13.203  64.181  1.00  0.00    -0.426 C  
BRANCH   3   4
HETATM    4  C   UNL     1     -12.189  13.762  65.052  1.00  0.00    -0.424 C  
BRANCH   4   5
HETATM    5  O   UNL     1     -11.619  14.258  66.268  1.00  0.00    -0.349 OA 
BRANCH   5   6
HETATM    6  C   UNL     1     -11.040  13.309  67.070  1.00  0.00    -0.282 A  
HETATM    7  C   UNL     1      -9.693  13.287  67.432  1.00  0.00    -0.221 A  
HETATM    8  C   UNL     1      -9.207  12.264  68.257  1.00  0.00    -0.189 A  
HETATM    9  C   UNL     1     -10.060  11.252  68.707  1.00  0.00    -0.204 A  
HETATM   10  C   UNL     1     -11.906  12.336  67.577  1.00  0.00    -0.331 A  
HETATM   11  C   UNL     1     -11.420  11.302  68.385  1.00  0.00    -0.377 A  
BRANCH   9  12
HETATM   12  C   UNL     1      -9.472  10.118  69.489  1.00  0.00    -0.214 C  
HETATM   13  O   UNL     1     -10.161   9.580  70.357  1.00  0.00    -0.240 OA 
BRANCH  12  14
HETATM   14  C   UNL     1      -8.036   9.701  69.238  1.00  0.00    -0.107 C  
BRANCH  14  15
HETATM   15  C   UNL     1      -7.263   9.687  70.560  1.00  0.00    -0.136 C  
BRANCH  15  16
HETATM   16  N   UNL     1      -6.716   8.387  70.971  1.00  0.00    -0.044 NA 
HETATM   17  C   UNL     1      -6.500   8.353  72.430  1.00  0.00    -0.083 C  
HETATM   18  C   UNL     1      -7.787   8.142  73.233  1.00  0.00    -0.220 C  
HETATM   19  C   UNL     1      -8.439   6.830  72.829  1.00  0.00    -0.124 C  
HETATM   20  C   UNL     1      -8.689   6.810  71.324  1.00  0.00    -0.128 C  
HETATM   21  C   UNL     1      -7.444   7.196  70.515  1.00  0.00    -0.087 C  
ENDBRANCH  15  16
ENDBRANCH  14  15
ENDBRANCH  12  14
ENDBRANCH   9  12
ENDBRANCH   5   6
ENDBRANCH   4   5
ENDBRANCH   3   4
ENDBRANCH   2   3
TORSDOF 8
ENDMDL
MODEL      171
REMARK 921   NORMALIZED FREE ENERGY PREDICTED BY IDOCK:   -3.54 KCAL/MOL
REMARK 922        TOTAL FREE ENERGY PREDICTED BY IDOCK:   -6.32 KCAL/MOL
REMARK 923 INTER-LIGAND FREE ENERGY PREDICTED BY IDOCK:   -5.63 KCAL/MOL
REMARK 924 INTRA-LIGAND FREE ENERGY PREDICTED BY IDOCK:   -0.69 KCAL/MOL
REMARK 927      BINDING AFFINITY PREDICTED BY RF-SCORE:    0.00 PKD
ROOT
HETATM    1  C   UNL     1      -6.169  17.940  66.628  1.00  0.00    -0.203 C  
HETATM    2  C   UNL     1      -6.679  18.936  65.599  1.00  0.00    -0.310 C  
ENDROOT
BRANCH   2   3
HETATM    3  C   UNL     1      -8.086  19.428  65.933  1.00  0.00    -0.165 C  
BRANCH   3   4
HETATM    4  C   UNL     1      -8.881  18.362  66.685  1.00  0.00    -0.289 C  
BRANCH   4   5
HETATM    5  O   UNL     1      -9.805  17.756  65.774  1.00  0.00    -0.541 OA 
BRANCH   5   6
HETATM    6  C   UNL     1     -10.083  16.436  66.019  1.00  0.00    -0.353 A  
HETATM    7  C   UNL     1     -10.318  15.477  65.034  1.00  0.00    -0.327 A  
HETATM    8  C   UNL     1     -10.596  14.152  65.399  1.00  0.00    -0.358 A  
HETATM    9  C   UNL     1     -10.658  13.788  66.748  1.00  0.00    -0.273 A  
HETATM   10  C   UNL     1     -10.077  16.056  67.364  1.00  0.00    -0.258 A  
HETATM   11  C   UNL     1     -10.374  14.739  67.733  1.00  0.00    -0.244 A  
BRANCH   9  12
HETATM   12  C   UNL     1     -11.073  12.391  67.091  1.00  0.00    -0.280 C  
HETATM   13  O   UNL     1     -12.276  12.142  67.194  1.00  0.00    -0.507 OA 
BRANCH  12  14
HETATM   14  C   UNL     1     -10.015  11.339  67.360  1.00  0.00    -0.206 C  
BRANCH  14  15
HETATM   15  C   UNL     1     -10.686  10.018  67.747  1.00  0.00    -0.280 C  
BRANCH  15  16
HETATM   16  N   UNL     1     -10.323   8.850  66.933  1.00  0.00    -0.271 NA 
HETATM   17  C   UNL     1      -8.878   8.852  66.638  1.00  0.00    -0.129 C  
HETATM   18  C   UNL     1      -8.014   8.386  67.814  1.00  0.00    -0.111 C  
HETATM   19  C   UNL     1      -8.405   6.973  68.214  1.00  0.00    -0.123 C  
HETATM   20  C   UNL     1      -9.896   6.912  68.534  1.00  0.00    -0.144 C  
HETATM   21  C   UNL     1     -10.760   7.541  67.435  1.00  0.00    -0.261 C  
ENDBRANCH  15  16
ENDBRANCH  14  15
ENDBRANCH  12  14
ENDBRANCH   9  12
ENDBRANCH   5   6
ENDBRANCH   4   5
ENDBRANCH   3   4
ENDBRANCH   2   3
TORSDOF 8
ENDMDL
MODEL      172
REMARK 921   NORMALIZED FREE ENERGY PREDICTED BY IDOCK:   -3.54 KCAL/MOL
REMARK 922        TOTAL FREE ENERGY PREDICTED BY IDOCK:   -6.32 KCAL/MOL
REMARK 923 INTER-LIGAND FREE ENERGY PREDICTED BY IDOCK:   -5.65 KCAL/MOL
REMARK 924 INTRA-LIGAND FREE ENERGY PREDICTED BY IDOCK:   -0.67 KCAL/MOL
REMARK 927      BINDING AFFINITY PREDICTED BY RF-SCORE:    0.00 PKD
ROOT
HETATM    1  C   UNL     1      -5.724   9.109  70.455  1.00  0.00    -0.035 C  
HETATM    2  C   UNL     1      -5.716  10.577  70.060  1.00  0.00    -0.059 C  
ENDROOT
BRANCH   2   3
HETATM    3  C   UNL     1      -6.989  10.971  69.313  1.00  0.00    -0.116 C  
BRANCH   3   4
HETATM    4  C   UNL     1      -8.133  10.006  69.622  1.00  0.00    -0.172 C  
BRANCH   4   5
HETATM    5  O   UNL     1      -8.191   9.022  68.583  1.00  0.00    -0.115 OA 
BRANCH   5   6
HETATM    6  C   UNL     1      -8.726   9.458  67.399  1.00  0.00    -0.125 A  
HETATM    7  C   UNL     1      -8.088   9.377  66.160  1.00  0.00    -0.111 A  
HETATM    8  C   UNL     1      -8.730   9.858  65.010  1.00  0.00    -0.196 A  
HETATM    9  C   UNL     1     -10.000  10.435  65.098  1.00  0.00    -0.390 A  
HETATM   10  C   UNL     1     -10.024   9.972  67.473  1.00  0.00    -0.232 A  
HETATM   11  C   UNL     1     -10.659  10.471  66.330  1.00  0.00    -0.218 A  
BRANCH   9  12
HETATM   12  C   UNL     1     -10.595  11.040  63.863  1.00  0.00    -0.312 C  
HETATM   13  O   UNL     1      -9.965  10.964  62.807  1.00  0.00    -0.268 OA 
BRANCH  12  14
HETATM   14  C   UNL     1     -11.917  11.776  63.952  1.00  0.00    -0.427 C  
BRANCH  14  15
HETATM   15  C   UNL     1     -11.742  13.216  63.459  1.00  0.00    -0.415 C  
BRANCH  15  16
HETATM   16  N   UNL     1     -12.477  14.245  64.206  1.00  0.00    -0.692 NA 
HETATM   17  C   UNL     1     -12.784  13.776  65.571  1.00  0.00    -0.488 C  
HETATM   18  C   UNL     1     -11.586  13.843  66.523  1.00  0.00    -0.385 C  
HETATM   19  C   UNL     1     -11.087  15.276  66.625  1.00  0.00    -0.276 C  
HETATM   20  C   UNL     1     -10.751  15.814  65.238  1.00  0.00    -0.446 C  
HETATM   21  C   UNL     1     -11.884  15.588  64.228  1.00  0.00    -0.173 C  
ENDBRANCH  15  16
ENDBRANCH  14  15
ENDBRANCH  12  14
ENDBRANCH   9  12
ENDBRANCH   5   6
ENDBRANCH   4   5
ENDBRANCH   3   4
ENDBRANCH   2   3
TORSDOF 8
ENDMDL
MODEL      173
REMARK 921   NORMALIZED FREE ENERGY PREDICTED BY IDOCK:   -3.53 KCAL/MOL
REMARK 922        TOTAL FREE ENERGY PREDICTED BY IDOCK:   -6.30 KCAL/MOL
REMARK 923 INTER-LIGAND FREE ENERGY PREDICTED BY IDOCK:   -5.65 KCAL/MOL
REMARK 924 INTRA-LIGAND FREE ENERGY PREDICTED BY IDOCK:   -0.65 KCAL/MOL
REMARK 927      BINDING AFFINITY PREDICTED BY RF-SCORE:    0.00 PKD
ROOT
HETATM    1  C   UNL     1     -14.108  14.128  72.151  1.00  0.00    -0.643 C  
HETATM    2  C   UNL     1     -13.490  15.149  71.210  1.00  0.00    -0.559 C  
ENDROOT
BRANCH   2   3
HETATM    3  C   UNL     1     -12.013  14.859  70.949  1.00  0.00    -0.374 C  
BRANCH   3   4
HETATM    4  C   UNL     1     -11.701  14.884  69.454  1.00  0.00    -0.319 C  
BRANCH   4   5
HETATM    5  O   UNL     1     -12.282  13.724  68.848  1.00  0.00    -0.344 OA 
BRANCH   5   6
HETATM    6  C   UNL     1     -11.674  12.536  69.163  1.00  0.00    -0.321 A  
HETATM    7  C   UNL     1     -12.161  11.615  70.092  1.00  0.00    -0.414 A  
HETATM    8  C   UNL     1     -11.454  10.430  70.339  1.00  0.00    -0.420 A  
HETATM    9  C   UNL     1     -10.252  10.171  69.673  1.00  0.00    -0.272 A  
HETATM   10  C   UNL     1     -10.509  12.243  68.449  1.00  0.00    -0.244 A  
HETATM   11  C   UNL     1      -9.790  11.071  68.708  1.00  0.00    -0.206 A  
BRANCH   9  12
HETATM   12  C   UNL     1      -9.474   8.950  70.055  1.00  0.00    -0.178 C  
HETATM   13  O   UNL     1      -9.147   8.804  71.235  1.00  0.00    -0.192 OA 
BRANCH  12  14
HETATM   14  C   UNL     1      -9.058   7.961  68.985  1.00  0.00    -0.144 C  
BRANCH  14  15
HETATM   15  C   UNL     1     -10.254   7.088  68.595  1.00  0.00    -0.176 C  
BRANCH  15  16
HETATM   16  N   UNL     1     -10.516   6.962  67.155  1.00  0.00    -0.266 NA 
HETATM   17  C   UNL     1      -9.314   7.314  66.376  1.00  0.00    -0.150 C  
HETATM   18  C   UNL     1      -8.257   6.205  66.351  1.00  0.00    -0.113 C  
HETATM   19  C   UNL     1      -8.848   4.942  65.747  1.00  0.00    -0.135 C  
HETATM   20  C   UNL     1     -10.099   4.528  66.517  1.00  0.00    -0.257 C  
HETATM   21  C   UNL     1     -11.087   5.686  66.701  1.00  0.00     0.075 C  
ENDBRANCH  15  16
ENDBRANCH  14  15
ENDBRANCH  12  14
ENDBRANCH   9  12
ENDBRANCH   5   6
ENDBRANCH   4   5
ENDBRANCH   3   4
ENDBRANCH   2   3
TORSDOF 8
ENDMDL
MODEL      174
REMARK 921   NORMALIZED FREE ENERGY PREDICTED BY IDOCK:   -3.50 KCAL/MOL
REMARK 922        TOTAL FREE ENERGY PREDICTED BY IDOCK:   -6.26 KCAL/MOL
REMARK 923 INTER-LIGAND FREE ENERGY PREDICTED BY IDOCK:   -5.56 KCAL/MOL
REMARK 924 INTRA-LIGAND FREE ENERGY PREDICTED BY IDOCK:   -0.70 KCAL/MOL
REMARK 927      BINDING AFFINITY PREDICTED BY RF-SCORE:    0.00 PKD
ROOT
HETATM    1  C   UNL     1     -10.917   2.504  63.085  1.00  0.00    -0.230 C  
HETATM    2  C   UNL     1     -10.195   3.719  63.644  1.00  0.00    -0.213 C  
ENDROOT
BRANCH   2   3
HETATM    3  C   UNL     1     -10.894   4.274  64.884  1.00  0.00    -0.108 C  
BRANCH   3   4
HETATM    4  C   UNL     1      -9.882   4.806  65.897  1.00  0.00    -0.211 C  
BRANCH   4   5
HETATM    5  O   UNL     1     -10.469   4.744  67.202  1.00  0.00    -0.138 OA 
BRANCH   5   6
HETATM    6  C   UNL     1     -10.454   5.922  67.903  1.00  0.00    -0.236 A  
HETATM    7  C   UNL     1     -10.086   7.159  67.373  1.00  0.00    -0.260 A  
HETATM    8  C   UNL     1     -10.106   8.302  68.184  1.00  0.00    -0.238 A  
HETATM    9  C   UNL     1     -10.475   8.208  69.529  1.00  0.00    -0.227 A  
HETATM   10  C   UNL     1     -10.890   5.843  69.229  1.00  0.00    -0.414 A  
HETATM   11  C   UNL     1     -10.891   6.978  70.047  1.00  0.00    -0.290 A  
BRANCH   9  12
HETATM   12  C   UNL     1     -10.368   9.433  70.385  1.00  0.00    -0.262 C  
HETATM   13  O   UNL     1      -9.292   9.676  70.935  1.00  0.00    -0.169 OA 
BRANCH  12  14
HETATM   14  C   UNL     1     -11.589  10.304  70.602  1.00  0.00    -0.435 C  
BRANCH  14  15
HETATM   15  C   UNL     1     -11.932  11.046  69.307  1.00  0.00    -0.339 C  
BRANCH  15  16
HETATM   16  N   UNL     1     -10.961  12.058  68.870  1.00  0.00    -0.229 NA 
HETATM   17  C   UNL     1     -10.732  11.963  67.416  1.00  0.00    -0.232 C  
HETATM   18  C   UNL     1     -11.856  12.580  66.579  1.00  0.00    -0.434 C  
HETATM   19  C   UNL     1     -12.013  14.051  66.929  1.00  0.00    -0.479 C  
HETATM   20  C   UNL     1     -12.256  14.210  68.426  1.00  0.00    -0.200 C  
HETATM   21  C   UNL     1     -11.233  13.444  69.274  1.00  0.00    -0.219 C  
ENDBRANCH  15  16
ENDBRANCH  14  15
ENDBRANCH  12  14
ENDBRANCH   9  12
ENDBRANCH   5   6
ENDBRANCH   4   5
ENDBRANCH   3   4
ENDBRANCH   2   3
TORSDOF 8
ENDMDL
MODEL      175
REMARK 921   NORMALIZED FREE ENERGY PREDICTED BY IDOCK:   -3.48 KCAL/MOL
REMARK 922        TOTAL FREE ENERGY PREDICTED BY IDOCK:   -6.24 KCAL/MOL
REMARK 923 INTER-LIGAND FREE ENERGY PREDICTED BY IDOCK:   -5.85 KCAL/MOL
REMARK 924 INTRA-LIGAND FREE ENERGY PREDICTED BY IDOCK:   -0.38 KCAL/MOL
REMARK 927      BINDING AFFINITY PREDICTED BY RF-SCORE:    0.00 PKD
ROOT
HETATM    1  C   UNL     1     -10.871  19.251  67.371  1.00  0.00    -0.554 C  
HETATM    2  C   UNL     1     -10.039  20.386  66.795  1.00  0.00    -0.478 C  
ENDROOT
BRANCH   2   3
HETATM    3  C   UNL     1      -8.708  19.886  66.235  1.00  0.00    -0.384 C  
BRANCH   3   4
HETATM    4  C   UNL     1      -7.532  20.390  67.070  1.00  0.00    -0.310 C  
BRANCH   4   5
HETATM    5  O   UNL     1      -7.450  19.602  68.262  1.00  0.00    -0.297 OA 
BRANCH   5   6
HETATM    6  C   UNL     1      -7.323  18.252  68.060  1.00  0.00    -0.239 A  
HETATM    7  C   UNL     1      -6.419  17.661  67.177  1.00  0.00    -0.188 A  
HETATM    8  C   UNL     1      -6.377  16.266  67.048  1.00  0.00    -0.134 A  
HETATM    9  C   UNL     1      -7.248  15.460  67.787  1.00  0.00    -0.182 A  
HETATM   10  C   UNL     1      -8.145  17.442  68.848  1.00  0.00    -0.183 A  
HETATM   11  C   UNL     1      -8.120  16.050  68.707  1.00  0.00    -0.212 A  
BRANCH   9  12
HETATM   12  C   UNL     1      -7.247  13.985  67.529  1.00  0.00    -0.165 C  
HETATM   13  O   UNL     1      -6.173  13.381  67.564  1.00  0.00    -0.232 OA 
BRANCH  12  14
HETATM   14  C   UNL     1      -8.544  13.285  67.175  1.00  0.00    -0.197 C  
BRANCH  14  15
HETATM   15  C   UNL     1      -9.496  13.322  68.374  1.00  0.00    -0.172 C  
BRANCH  15  16
HETATM   16  N   UNL     1     -10.911  13.056  68.081  1.00  0.00    -0.238 NA 
HETATM   17  C   UNL     1     -11.103  11.648  67.685  1.00  0.00    -0.255 C  
HETATM   18  C   UNL     1     -11.094  10.674  68.867  1.00  0.00    -0.314 C  
HETATM   19  C   UNL     1     -12.201  11.038  69.843  1.00  0.00    -0.408 C  
HETATM   20  C   UNL     1     -12.051  12.488  70.290  1.00  0.00    -0.373 C  
HETATM   21  C   UNL     1     -11.879  13.453  69.111  1.00  0.00    -0.336 C  
ENDBRANCH  15  16
ENDBRANCH  14  15
ENDBRANCH  12  14
ENDBRANCH   9  12
ENDBRANCH   5   6
ENDBRANCH   4   5
ENDBRANCH   3   4
ENDBRANCH   2   3
TORSDOF 8
ENDMDL
MODEL      176
REMARK 921   NORMALIZED FREE ENERGY PREDICTED BY IDOCK:   -3.48 KCAL/MOL
REMARK 922        TOTAL FREE ENERGY PREDICTED BY IDOCK:   -6.23 KCAL/MOL
REMARK 923 INTER-LIGAND FREE ENERGY PREDICTED BY IDOCK:   -5.28 KCAL/MOL
REMARK 924 INTRA-LIGAND FREE ENERGY PREDICTED BY IDOCK:   -0.95 KCAL/MOL
REMARK 927      BINDING AFFINITY PREDICTED BY RF-SCORE:    0.00 PKD
ROOT
HETATM    1  C   UNL     1      -8.546   4.478  70.733  1.00  0.00    -0.115 C  
HETATM    2  C   UNL     1      -7.936   3.100  70.535  1.00  0.00    -0.049 C  
ENDROOT
BRANCH   2   3
HETATM    3  C   UNL     1      -8.083   2.616  69.093  1.00  0.00    -0.067 C  
BRANCH   3   4
HETATM    4  C   UNL     1      -9.450   2.990  68.521  1.00  0.00    -0.138 C  
BRANCH   4   5
HETATM    5  O   UNL     1      -9.266   3.483  67.190  1.00  0.00    -0.164 OA 
BRANCH   5   6
HETATM    6  C   UNL     1      -9.441   4.835  67.041  1.00  0.00    -0.152 A  
HETATM    7  C   UNL     1      -8.635   5.660  66.255  1.00  0.00    -0.127 A  
HETATM    8  C   UNL     1      -8.905   7.033  66.177  1.00  0.00    -0.165 A  
HETATM    9  C   UNL     1      -9.968   7.587  66.897  1.00  0.00    -0.318 A  
HETATM   10  C   UNL     1     -10.544   5.379  67.704  1.00  0.00    -0.188 A  
HETATM   11  C   UNL     1     -10.804   6.753  67.645  1.00  0.00    -0.361 A  
BRANCH   9  12
HETATM   12  C   UNL     1     -10.145   9.074  66.876  1.00  0.00    -0.267 C  
HETATM   13  O   UNL     1     -10.901   9.590  67.702  1.00  0.00    -0.279 OA 
BRANCH  12  14
HETATM   14  C   UNL     1      -9.445   9.897  65.813  1.00  0.00    -0.280 C  
BRANCH  14  15
HETATM   15  C   UNL     1     -10.442  10.863  65.166  1.00  0.00    -0.246 C  
BRANCH  15  16
HETATM   16  N   UNL     1     -10.165  12.294  65.354  1.00  0.00    -0.266 NA 
HETATM   17  C   UNL     1     -10.621  13.069  64.184  1.00  0.00    -0.397 C  
HETATM   18  C   UNL     1     -12.136  13.295  64.155  1.00  0.00    -0.494 C  
HETATM   19  C   UNL     1     -12.571  14.042  65.405  1.00  0.00    -0.529 C  
HETATM   20  C   UNL     1     -12.126  13.283  66.651  1.00  0.00    -0.421 C  
HETATM   21  C   UNL     1     -10.643  12.895  66.607  1.00  0.00    -0.261 C  
ENDBRANCH  15  16
ENDBRANCH  14  15
ENDBRANCH  12  14
ENDBRANCH   9  12
ENDBRANCH   5   6
ENDBRANCH   4   5
ENDBRANCH   3   4
ENDBRANCH   2   3
TORSDOF 8
ENDMDL
MODEL      177
REMARK 921   NORMALIZED FREE ENERGY PREDICTED BY IDOCK:   -3.46 KCAL/MOL
REMARK 922        TOTAL FREE ENERGY PREDICTED BY IDOCK:   -6.20 KCAL/MOL
REMARK 923 INTER-LIGAND FREE ENERGY PREDICTED BY IDOCK:   -5.57 KCAL/MOL
REMARK 924 INTRA-LIGAND FREE ENERGY PREDICTED BY IDOCK:   -0.64 KCAL/MOL
REMARK 927      BINDING AFFINITY PREDICTED BY RF-SCORE:    0.00 PKD
ROOT
HETATM    1  C   UNL     1     -13.542  13.517  72.822  1.00  0.00    -0.392 C  
HETATM    2  C   UNL     1     -13.033  13.189  71.428  1.00  0.00    -0.386 C  
ENDROOT
BRANCH   2   3
HETATM    3  C   UNL     1     -13.227  14.358  70.463  1.00  0.00    -0.094 C  
BRANCH   3   4
HETATM    4  C   UNL     1     -13.070  15.698  71.179  1.00  0.00    -0.459 C  
BRANCH   4   5
HETATM    5  O   UNL     1     -11.676  16.020  71.242  1.00  0.00    -0.415 OA 
BRANCH   5   6
HETATM    6  C   UNL     1     -11.007  15.946  70.047  1.00  0.00    -0.358 A  
HETATM    7  C   UNL     1      -9.807  15.263  69.848  1.00  0.00    -0.137 A  
HETATM    8  C   UNL     1      -9.208  15.256  68.581  1.00  0.00    -0.201 A  
HETATM    9  C   UNL     1      -9.797  15.945  67.516  1.00  0.00    -0.230 A  
HETATM   10  C   UNL     1     -11.629  16.576  68.966  1.00  0.00    -0.027 A  
HETATM   11  C   UNL     1     -11.024  16.587  67.704  1.00  0.00    -0.207 A  
BRANCH   9  12
HETATM   12  C   UNL     1      -9.061  16.007  66.213  1.00  0.00    -0.344 C  
HETATM   13  O   UNL     1      -9.050  15.005  65.494  1.00  0.00     0.083 OA 
BRANCH  12  14
HETATM   14  C   UNL     1      -8.305  17.265  65.838  1.00  0.00    -0.014 C  
BRANCH  14  15
HETATM   15  C   UNL     1      -7.414  17.701  67.006  1.00  0.00    -0.199 C  
BRANCH  15  16
HETATM   16  N   UNL     1      -7.417  19.137  67.316  1.00  0.00    -0.227 NA 
HETATM   17  C   UNL     1      -8.269  19.872  66.361  1.00  0.00    -0.335 C  
HETATM   18  C   UNL     1      -9.767  19.736  66.649  1.00  0.00    -0.519 C  
HETATM   19  C   UNL     1     -10.074  20.260  68.043  1.00  0.00    -0.451 C  
HETATM   20  C   UNL     1      -9.221  19.530  69.076  1.00  0.00    -0.298 C  
HETATM   21  C   UNL     1      -7.734  19.508  68.702  1.00  0.00    -0.355 C  
ENDBRANCH  15  16
ENDBRANCH  14  15
ENDBRANCH  12  14
ENDBRANCH   9  12
ENDBRANCH   5   6
ENDBRANCH   4   5
ENDBRANCH   3   4
ENDBRANCH   2   3
TORSDOF 8
ENDMDL
MODEL      178
REMARK 921   NORMALIZED FREE ENERGY PREDICTED BY IDOCK:   -3.44 KCAL/MOL
REMARK 922        TOTAL FREE ENERGY PREDICTED BY IDOCK:   -6.17 KCAL/MOL
REMARK 923 INTER-LIGAND FREE ENERGY PREDICTED BY IDOCK:   -5.59 KCAL/MOL
REMARK 924 INTRA-LIGAND FREE ENERGY PREDICTED BY IDOCK:   -0.58 KCAL/MOL
REMARK 927      BINDING AFFINITY PREDICTED BY RF-SCORE:    0.00 PKD
ROOT
HETATM    1  C   UNL     1      -8.546   8.532  62.526  1.00  0.00    -0.106 C  
HETATM    2  C   UNL     1      -7.976   8.659  63.930  1.00  0.00    -0.159 C  
ENDROOT
BRANCH   2   3
HETATM    3  C   UNL     1      -7.991  10.106  64.420  1.00  0.00    -0.153 C  
BRANCH   3   4
HETATM    4  C   UNL     1      -9.379  10.509  64.915  1.00  0.00    -0.232 C  
BRANCH   4   5
HETATM    5  O   UNL     1      -9.250  11.066  66.228  1.00  0.00    -0.171 OA 
BRANCH   5   6
HETATM    6  C   UNL     1      -9.390  12.428  66.298  1.00  0.00    -0.189 A  
HETATM    7  C   UNL     1     -10.279  13.177  65.527  1.00  0.00    -0.297 A  
HETATM    8  C   UNL     1     -10.337  14.569  65.681  1.00  0.00    -0.367 A  
HETATM    9  C   UNL     1      -9.495  15.216  66.591  1.00  0.00    -0.285 A  
HETATM   10  C   UNL     1      -8.599  13.069  67.256  1.00  0.00    -0.206 A  
HETATM   11  C   UNL     1      -8.640  14.460  67.398  1.00  0.00    -0.213 A  
BRANCH   9  12
HETATM   12  C   UNL     1      -9.510  16.713  66.636  1.00  0.00    -0.252 C  
HETATM   13  O   UNL     1      -9.306  17.337  65.592  1.00  0.00    -0.506 OA 
BRANCH  12  14
HETATM   14  C   UNL     1      -9.712  17.421  67.960  1.00  0.00    -0.281 C  
BRANCH  14  15
HETATM   15  C   UNL     1      -8.910  18.725  67.978  1.00  0.00    -0.300 C  
BRANCH  15  16
HETATM   16  N   UNL     1      -7.454  18.587  67.830  1.00  0.00    -0.234 NA 
HETATM   17  C   UNL     1      -6.932  19.587  66.881  1.00  0.00    -0.198 C  
HETATM   18  C   UNL     1      -6.807  20.991  67.481  1.00  0.00    -0.409 C  
HETATM   19  C   UNL     1      -5.874  20.958  68.681  1.00  0.00    -0.373 C  
HETATM   20  C   UNL     1      -6.369  19.938  69.701  1.00  0.00    -0.387 C  
HETATM   21  C   UNL     1      -6.668  18.573  69.071  1.00  0.00    -0.272 C  
ENDBRANCH  15  16
ENDBRANCH  14  15
ENDBRANCH  12  14
ENDBRANCH   9  12
ENDBRANCH   5   6
ENDBRANCH   4   5
ENDBRANCH   3   4
ENDBRANCH   2   3
TORSDOF 8
ENDMDL
MODEL      179
REMARK 921   NORMALIZED FREE ENERGY PREDICTED BY IDOCK:   -3.44 KCAL/MOL
REMARK 922        TOTAL FREE ENERGY PREDICTED BY IDOCK:   -6.17 KCAL/MOL
REMARK 923 INTER-LIGAND FREE ENERGY PREDICTED BY IDOCK:   -5.61 KCAL/MOL
REMARK 924 INTRA-LIGAND FREE ENERGY PREDICTED BY IDOCK:   -0.57 KCAL/MOL
REMARK 927      BINDING AFFINITY PREDICTED BY RF-SCORE:    0.00 PKD
ROOT
HETATM    1  C   UNL     1     -14.259  14.280  72.211  1.00  0.00    -0.587 C  
HETATM    2  C   UNL     1     -13.258  15.208  71.542  1.00  0.00    -0.512 C  
ENDROOT
BRANCH   2   3
HETATM    3  C   UNL     1     -11.955  14.487  71.203  1.00  0.00    -0.401 C  
BRANCH   3   4
HETATM    4  C   UNL     1     -12.194  13.351  70.210  1.00  0.00    -0.335 C  
BRANCH   4   5
HETATM    5  O   UNL     1     -12.098  12.106  70.911  1.00  0.00    -0.303 OA 
BRANCH   5   6
HETATM    6  C   UNL     1     -11.469  11.099  70.225  1.00  0.00    -0.237 A  
HETATM    7  C   UNL     1     -10.979   9.928  70.805  1.00  0.00    -0.407 A  
HETATM    8  C   UNL     1     -10.349   8.963  70.007  1.00  0.00    -0.219 A  
HETATM    9  C   UNL     1     -10.191   9.174  68.633  1.00  0.00    -0.225 A  
HETATM   10  C   UNL     1     -11.372  11.276  68.843  1.00  0.00    -0.340 A  
HETATM   11  C   UNL     1     -10.726  10.324  68.046  1.00  0.00    -0.299 A  
BRANCH   9  12
HETATM   12  C   UNL     1      -9.409   8.171  67.843  1.00  0.00    -0.134 C  
HETATM   13  O   UNL     1      -8.182   8.285  67.794  1.00  0.00    -0.124 OA 
BRANCH  12  14
HETATM   14  C   UNL     1     -10.139   7.084  67.079  1.00  0.00    -0.298 C  
BRANCH  14  15
HETATM   15  C   UNL     1     -10.214   5.814  67.932  1.00  0.00    -0.187 C  
BRANCH  15  16
HETATM   16  N   UNL     1      -8.932   5.298  68.431  1.00  0.00    -0.108 NA 
HETATM   17  C   UNL     1      -8.918   5.279  69.906  1.00  0.00    -0.119 C  
HETATM   18  C   UNL     1      -9.703   4.111  70.509  1.00  0.00    -0.270 C  
HETATM   19  C   UNL     1      -9.121   2.793  70.023  1.00  0.00    -0.189 C  
HETATM   20  C   UNL     1      -9.113   2.755  68.497  1.00  0.00    -0.217 C  
HETATM   21  C   UNL     1      -8.486   4.011  67.880  1.00  0.00    -0.094 C  
ENDBRANCH  15  16
ENDBRANCH  14  15
ENDBRANCH  12  14
ENDBRANCH   9  12
ENDBRANCH   5   6
ENDBRANCH   4   5
ENDBRANCH   3   4
ENDBRANCH   2   3
TORSDOF 8
ENDMDL
MODEL      180
REMARK 921   NORMALIZED FREE ENERGY PREDICTED BY IDOCK:   -3.44 KCAL/MOL
REMARK 922        TOTAL FREE ENERGY PREDICTED BY IDOCK:   -6.16 KCAL/MOL
REMARK 923 INTER-LIGAND FREE ENERGY PREDICTED BY IDOCK:   -5.28 KCAL/MOL
REMARK 924 INTRA-LIGAND FREE ENERGY PREDICTED BY IDOCK:   -0.89 KCAL/MOL
REMARK 927      BINDING AFFINITY PREDICTED BY RF-SCORE:    0.00 PKD
ROOT
HETATM    1  C   UNL     1     -11.919  13.269  67.382  1.00  0.00    -0.383 C  
HETATM    2  C   UNL     1     -10.879  14.351  67.144  1.00  0.00    -0.292 C  
ENDROOT
BRANCH   2   3
HETATM    3  C   UNL     1      -9.678  13.823  66.361  1.00  0.00    -0.304 C  
BRANCH   3   4
HETATM    4  C   UNL     1      -8.795  12.934  67.236  1.00  0.00    -0.206 C  
BRANCH   4   5
HETATM    5  O   UNL     1      -8.444  11.765  66.488  1.00  0.00    -0.179 OA 
BRANCH   5   6
HETATM    6  C   UNL     1      -9.044  10.605  66.904  1.00  0.00    -0.155 A  
HETATM    7  C   UNL     1      -9.407  10.326  68.223  1.00  0.00    -0.140 A  
HETATM    8  C   UNL     1     -10.015   9.103  68.537  1.00  0.00    -0.192 A  
HETATM    9  C   UNL     1     -10.246   8.150  67.540  1.00  0.00    -0.309 A  
HETATM   10  C   UNL     1      -9.339   9.680  65.899  1.00  0.00    -0.275 A  
HETATM   11  C   UNL     1      -9.928   8.450  66.212  1.00  0.00    -0.216 A  
BRANCH   9  12
HETATM   12  C   UNL     1     -10.790   6.814  67.942  1.00  0.00    -0.247 C  
HETATM   13  O   UNL     1     -10.943   5.953  67.073  1.00  0.00    -0.297 OA 
BRANCH  12  14
HETATM   14  C   UNL     1     -11.191   6.572  69.383  1.00  0.00    -0.418 C  
BRANCH  14  15
HETATM   15  C   UNL     1     -10.363   5.421  69.964  1.00  0.00    -0.296 C  
BRANCH  15  16
HETATM   16  N   UNL     1      -9.683   5.698  71.237  1.00  0.00    -0.163 NA 
HETATM   17  C   UNL     1     -10.606   6.347  72.188  1.00  0.00    -0.220 C  
HETATM   18  C   UNL     1     -11.589   5.374  72.845  1.00  0.00    -0.296 C  
HETATM   19  C   UNL     1     -10.825   4.299  73.601  1.00  0.00    -0.358 C  
HETATM   20  C   UNL     1      -9.853   3.590  72.662  1.00  0.00    -0.211 C  
HETATM   21  C   UNL     1      -8.984   4.569  71.865  1.00  0.00    -0.122 C  
ENDBRANCH  15  16
ENDBRANCH  14  15
ENDBRANCH  12  14
ENDBRANCH   9  12
ENDBRANCH   5   6
ENDBRANCH   4   5
ENDBRANCH   3   4
ENDBRANCH   2   3
TORSDOF 8
ENDMDL
MODEL      181
REMARK 921   NORMALIZED FREE ENERGY PREDICTED BY IDOCK:   -3.43 KCAL/MOL
REMARK 922        TOTAL FREE ENERGY PREDICTED BY IDOCK:   -6.16 KCAL/MOL
REMARK 923 INTER-LIGAND FREE ENERGY PREDICTED BY IDOCK:   -5.04 KCAL/MOL
REMARK 924 INTRA-LIGAND FREE ENERGY PREDICTED BY IDOCK:   -1.12 KCAL/MOL
REMARK 927      BINDING AFFINITY PREDICTED BY RF-SCORE:    0.00 PKD
ROOT
HETATM    1  C   UNL     1     -12.977   6.655  71.415  1.00  0.00    -0.120 C  
HETATM    2  C   UNL     1     -14.283   7.377  71.704  1.00  0.00    -0.583 C  
ENDROOT
BRANCH   2   3
HETATM    3  C   UNL     1     -14.046   8.773  72.276  1.00  0.00    -0.511 C  
BRANCH   3   4
HETATM    4  C   UNL     1     -12.556   9.107  72.321  1.00  0.00    -0.355 C  
BRANCH   4   5
HETATM    5  O   UNL     1     -12.352  10.368  71.674  1.00  0.00    -0.370 OA 
BRANCH   5   6
HETATM    6  C   UNL     1     -11.800  10.296  70.421  1.00  0.00    -0.309 A  
HETATM    7  C   UNL     1     -12.129  11.137  69.357  1.00  0.00    -0.396 A  
HETATM    8  C   UNL     1     -11.502  10.972  68.115  1.00  0.00    -0.374 A  
HETATM    9  C   UNL     1     -10.559   9.957  67.928  1.00  0.00    -0.303 A  
HETATM   10  C   UNL     1     -10.807   9.328  70.251  1.00  0.00    -0.286 A  
HETATM   11  C   UNL     1     -10.193   9.147  69.007  1.00  0.00    -0.219 A  
BRANCH   9  12
HETATM   12  C   UNL     1     -10.003   9.745  66.553  1.00  0.00    -0.239 C  
HETATM   13  O   UNL     1     -10.147   8.641  66.023  1.00  0.00    -0.189 OA 
BRANCH  12  14
HETATM   14  C   UNL     1      -9.232  10.860  65.876  1.00  0.00    -0.214 C  
BRANCH  14  15
HETATM   15  C   UNL     1      -8.010  11.232  66.721  1.00  0.00    -0.159 C  
BRANCH  15  16
HETATM   16  N   UNL     1      -6.701  10.975  66.105  1.00  0.00    -0.106 NA 
HETATM   17  C   UNL     1      -5.697  10.648  67.137  1.00  0.00    -0.043 C  
HETATM   18  C   UNL     1      -5.809   9.213  67.662  1.00  0.00    -0.046 C  
HETATM   19  C   UNL     1      -5.636   8.229  66.517  1.00  0.00    -0.035 C  
HETATM   20  C   UNL     1      -6.653   8.520  65.417  1.00  0.00    -0.059 C  
HETATM   21  C   UNL     1      -6.673   9.998  65.009  1.00  0.00    -0.128 C  
ENDBRANCH  15  16
ENDBRANCH  14  15
ENDBRANCH  12  14
ENDBRANCH   9  12
ENDBRANCH   5   6
ENDBRANCH   4   5
ENDBRANCH   3   4
ENDBRANCH   2   3
TORSDOF 8
ENDMDL
MODEL      182
REMARK 921   NORMALIZED FREE ENERGY PREDICTED BY IDOCK:   -3.43 KCAL/MOL
REMARK 922        TOTAL FREE ENERGY PREDICTED BY IDOCK:   -6.16 KCAL/MOL
REMARK 923 INTER-LIGAND FREE ENERGY PREDICTED BY IDOCK:   -4.86 KCAL/MOL
REMARK 924 INTRA-LIGAND FREE ENERGY PREDICTED BY IDOCK:   -1.31 KCAL/MOL
REMARK 927      BINDING AFFINITY PREDICTED BY RF-SCORE:    0.00 PKD
ROOT
HETATM    1  C   UNL     1      -9.122  10.994  62.544  1.00  0.00    -0.362 C  
HETATM    2  C   UNL     1      -8.950   9.484  62.547  1.00  0.00    -0.268 C  
ENDROOT
BRANCH   2   3
HETATM    3  C   UNL     1      -8.302   8.988  63.838  1.00  0.00    -0.178 C  
BRANCH   3   4
HETATM    4  C   UNL     1      -8.189  10.112  64.867  1.00  0.00    -0.157 C  
BRANCH   4   5
HETATM    5  O   UNL     1      -8.707   9.639  66.116  1.00  0.00    -0.132 OA 
BRANCH   5   6
HETATM    6  C   UNL     1      -9.379  10.575  66.859  1.00  0.00    -0.159 A  
HETATM    7  C   UNL     1      -9.175  10.806  68.220  1.00  0.00    -0.157 A  
HETATM    8  C   UNL     1      -9.923  11.790  68.882  1.00  0.00    -0.051 A  
HETATM    9  C   UNL     1     -10.887  12.531  68.191  1.00  0.00    -0.248 A  
HETATM   10  C   UNL     1     -10.293  11.364  66.155  1.00  0.00    -0.294 A  
HETATM   11  C   UNL     1     -11.055  12.333  66.817  1.00  0.00    -0.345 A  
BRANCH   9  12
HETATM   12  C   UNL     1     -11.741  13.487  68.965  1.00  0.00    -0.327 C  
HETATM   13  O   UNL     1     -12.350  13.068  69.951  1.00  0.00    -0.224 OA 
BRANCH  12  14
HETATM   14  C   UNL     1     -11.884  14.919  68.489  1.00  0.00    -0.325 C  
BRANCH  14  15
HETATM   15  C   UNL     1     -10.674  15.739  68.947  1.00  0.00    -0.248 C  
BRANCH  15  16
HETATM   16  N   UNL     1      -9.992  16.516  67.903  1.00  0.00    -0.240 NA 
HETATM   17  C   UNL     1      -8.905  17.326  68.486  1.00  0.00    -0.269 C  
HETATM   18  C   UNL     1      -7.645  16.517  68.805  1.00  0.00    -0.219 C  
HETATM   19  C   UNL     1      -7.112  15.869  67.537  1.00  0.00    -0.207 C  
HETATM   20  C   UNL     1      -8.197  15.013  66.890  1.00  0.00    -0.206 C  
HETATM   21  C   UNL     1      -9.523  15.766  66.730  1.00  0.00    -0.240 C  
ENDBRANCH  15  16
ENDBRANCH  14  15
ENDBRANCH  12  14
ENDBRANCH   9  12
ENDBRANCH   5   6
ENDBRANCH   4   5
ENDBRANCH   3   4
ENDBRANCH   2   3
TORSDOF 8
ENDMDL
MODEL      183
REMARK 921   NORMALIZED FREE ENERGY PREDICTED BY IDOCK:   -3.43 KCAL/MOL
REMARK 922        TOTAL FREE ENERGY PREDICTED BY IDOCK:   -6.15 KCAL/MOL
REMARK 923 INTER-LIGAND FREE ENERGY PREDICTED BY IDOCK:   -5.14 KCAL/MOL
REMARK 924 INTRA-LIGAND FREE ENERGY PREDICTED BY IDOCK:   -1.01 KCAL/MOL
REMARK 927      BINDING AFFINITY PREDICTED BY RF-SCORE:    0.00 PKD
ROOT
HETATM    1  C   UNL     1     -12.410  13.928  70.235  1.00  0.00    -0.413 C  
HETATM    2  C   UNL     1     -11.377  13.502  69.205  1.00  0.00    -0.333 C  
ENDROOT
BRANCH   2   3
HETATM    3  C   UNL     1     -11.690  14.065  67.820  1.00  0.00    -0.403 C  
BRANCH   3   4
HETATM    4  C   UNL     1     -10.425  14.183  66.972  1.00  0.00    -0.271 C  
BRANCH   4   5
HETATM    5  O   UNL     1     -10.414  13.115  66.018  1.00  0.00    -0.274 OA 
BRANCH   5   6
HETATM    6  C   UNL     1      -9.875  11.938  66.469  1.00  0.00    -0.206 A  
HETATM    7  C   UNL     1      -8.657  11.827  67.143  1.00  0.00    -0.168 A  
HETATM    8  C   UNL     1      -8.200  10.569  67.558  1.00  0.00    -0.114 A  
HETATM    9  C   UNL     1      -8.947   9.419  67.286  1.00  0.00    -0.143 A  
HETATM   10  C   UNL     1     -10.652  10.796  66.260  1.00  0.00    -0.257 A  
HETATM   11  C   UNL     1     -10.189   9.536  66.655  1.00  0.00    -0.310 A  
BRANCH   9  12
HETATM   12  C   UNL     1      -8.362   8.087  67.644  1.00  0.00    -0.128 C  
HETATM   13  O   UNL     1      -8.115   7.289  66.738  1.00  0.00    -0.115 OA 
BRANCH  12  14
HETATM   14  C   UNL     1      -8.145   7.732  69.101  1.00  0.00    -0.125 C  
BRANCH  14  15
HETATM   15  C   UNL     1      -9.485   7.381  69.753  1.00  0.00    -0.159 C  
BRANCH  15  16
HETATM   16  N   UNL     1     -10.035   8.387  70.673  1.00  0.00    -0.182 NA 
HETATM   17  C   UNL     1     -11.461   8.118  70.943  1.00  0.00    -0.271 C  
HETATM   18  C   UNL     1     -11.688   6.980  71.942  1.00  0.00    -0.333 C  
HETATM   19  C   UNL     1     -11.019   7.313  73.266  1.00  0.00    -0.355 C  
HETATM   20  C   UNL     1      -9.536   7.599  73.046  1.00  0.00    -0.292 C  
HETATM   21  C   UNL     1      -9.292   8.611  71.920  1.00  0.00    -0.287 C  
ENDBRANCH  15  16
ENDBRANCH  14  15
ENDBRANCH  12  14
ENDBRANCH   9  12
ENDBRANCH   5   6
ENDBRANCH   4   5
ENDBRANCH   3   4
ENDBRANCH   2   3
TORSDOF 8
ENDMDL
MODEL      184
REMARK 921   NORMALIZED FREE ENERGY PREDICTED BY IDOCK:   -3.42 KCAL/MOL
REMARK 922        TOTAL FREE ENERGY PREDICTED BY IDOCK:   -6.14 KCAL/MOL
REMARK 923 INTER-LIGAND FREE ENERGY PREDICTED BY IDOCK:   -5.28 KCAL/MOL
REMARK 924 INTRA-LIGAND FREE ENERGY PREDICTED BY IDOCK:   -0.86 KCAL/MOL
REMARK 927      BINDING AFFINITY PREDICTED BY RF-SCORE:    0.00 PKD
ROOT
HETATM    1  C   UNL     1     -10.092  17.531  66.365  1.00  0.00    -0.346 C  
HETATM    2  C   UNL     1      -9.134  16.361  66.215  1.00  0.00    -0.362 C  
ENDROOT
BRANCH   2   3
HETATM    3  C   UNL     1      -9.006  15.561  67.510  1.00  0.00    -0.196 C  
BRANCH   3   4
HETATM    4  C   UNL     1      -8.737  14.085  67.223  1.00  0.00    -0.218 C  
BRANCH   4   5
HETATM    5  O   UNL     1      -9.993  13.407  67.110  1.00  0.00    -0.235 OA 
BRANCH   5   6
HETATM    6  C   UNL     1      -9.926  12.040  67.188  1.00  0.00    -0.195 A  
HETATM    7  C   UNL     1     -11.022  11.199  67.390  1.00  0.00    -0.347 A  
HETATM    8  C   UNL     1     -10.837   9.812  67.457  1.00  0.00    -0.286 A  
HETATM    9  C   UNL     1      -9.556   9.263  67.340  1.00  0.00    -0.190 A  
HETATM   10  C   UNL     1      -8.657  11.484  67.003  1.00  0.00    -0.161 A  
HETATM   11  C   UNL     1      -8.466  10.101  67.090  1.00  0.00    -0.125 A  
BRANCH   9  12
HETATM   12  C   UNL     1      -9.393   7.787  67.535  1.00  0.00    -0.139 C  
HETATM   13  O   UNL     1      -9.526   7.044  66.560  1.00  0.00    -0.167 OA 
BRANCH  12  14
HETATM   14  C   UNL     1      -9.128   7.239  68.924  1.00  0.00    -0.132 C  
BRANCH  14  15
HETATM   15  C   UNL     1     -10.432   6.709  69.528  1.00  0.00    -0.218 C  
BRANCH  15  16
HETATM   16  N   UNL     1     -11.203   7.665  70.334  1.00  0.00    -0.264 NA 
HETATM   17  C   UNL     1     -12.109   6.954  71.256  1.00  0.00    -0.373 C  
HETATM   18  C   UNL     1     -11.400   6.382  72.487  1.00  0.00    -0.299 C  
HETATM   19  C   UNL     1     -10.731   7.504  73.266  1.00  0.00    -0.437 C  
HETATM   20  C   UNL     1      -9.777   8.275  72.358  1.00  0.00    -0.373 C  
HETATM   21  C   UNL     1     -10.433   8.698  71.039  1.00  0.00    -0.219 C  
ENDBRANCH  15  16
ENDBRANCH  14  15
ENDBRANCH  12  14
ENDBRANCH   9  12
ENDBRANCH   5   6
ENDBRANCH   4   5
ENDBRANCH   3   4
ENDBRANCH   2   3
TORSDOF 8
ENDMDL
MODEL      185
REMARK 921   NORMALIZED FREE ENERGY PREDICTED BY IDOCK:   -3.42 KCAL/MOL
REMARK 922        TOTAL FREE ENERGY PREDICTED BY IDOCK:   -6.14 KCAL/MOL
REMARK 923 INTER-LIGAND FREE ENERGY PREDICTED BY IDOCK:   -5.48 KCAL/MOL
REMARK 924 INTRA-LIGAND FREE ENERGY PREDICTED BY IDOCK:   -0.65 KCAL/MOL
REMARK 927      BINDING AFFINITY PREDICTED BY RF-SCORE:    0.00 PKD
ROOT
HETATM    1  C   UNL     1     -10.955   1.909  63.025  1.00  0.00    -0.234 C  
HETATM    2  C   UNL     1     -10.449   3.336  63.164  1.00  0.00    -0.211 C  
ENDROOT
BRANCH   2   3
HETATM    3  C   UNL     1     -10.641   3.871  64.582  1.00  0.00    -0.171 C  
BRANCH   3   4
HETATM    4  C   UNL     1      -9.358   4.508  65.112  1.00  0.00    -0.159 C  
BRANCH   4   5
HETATM    5  O   UNL     1      -9.525   4.775  66.508  1.00  0.00    -0.134 OA 
BRANCH   5   6
HETATM    6  C   UNL     1      -9.610   6.103  66.841  1.00  0.00    -0.142 A  
HETATM    7  C   UNL     1      -8.860   7.121  66.250  1.00  0.00    -0.166 A  
HETATM    8  C   UNL     1      -9.027   8.447  66.672  1.00  0.00    -0.181 A  
HETATM    9  C   UNL     1      -9.929   8.757  67.694  1.00  0.00    -0.247 A  
HETATM   10  C   UNL     1     -10.560   6.423  67.814  1.00  0.00    -0.331 A  
HETATM   11  C   UNL     1     -10.715   7.744  68.251  1.00  0.00    -0.093 A  
BRANCH   9  12
HETATM   12  C   UNL     1      -9.987  10.169  68.190  1.00  0.00    -0.147 C  
HETATM   13  O   UNL     1      -9.010  10.625  68.788  1.00  0.00    -0.157 OA 
BRANCH  12  14
HETATM   14  C   UNL     1     -11.255  10.977  68.001  1.00  0.00    -0.372 C  
BRANCH  14  15
HETATM   15  C   UNL     1     -11.266  11.602  66.602  1.00  0.00    -0.299 C  
BRANCH  15  16
HETATM   16  N   UNL     1     -12.260  12.660  66.379  1.00  0.00    -0.543 NA 
HETATM   17  C   UNL     1     -11.998  13.813  67.261  1.00  0.00    -0.401 C  
HETATM   18  C   UNL     1     -10.844  14.699  66.781  1.00  0.00    -0.312 C  
HETATM   19  C   UNL     1     -11.150  15.237  65.393  1.00  0.00    -0.351 C  
HETATM   20  C   UNL     1     -11.428  14.084  64.433  1.00  0.00    -0.357 C  
HETATM   21  C   UNL     1     -12.456  13.091  64.988  1.00  0.00    -0.477 C  
ENDBRANCH  15  16
ENDBRANCH  14  15
ENDBRANCH  12  14
ENDBRANCH   9  12
ENDBRANCH   5   6
ENDBRANCH   4   5
ENDBRANCH   3   4
ENDBRANCH   2   3
TORSDOF 8
ENDMDL
MODEL      186
REMARK 921   NORMALIZED FREE ENERGY PREDICTED BY IDOCK:   -3.42 KCAL/MOL
REMARK 922        TOTAL FREE ENERGY PREDICTED BY IDOCK:   -6.14 KCAL/MOL
REMARK 923 INTER-LIGAND FREE ENERGY PREDICTED BY IDOCK:   -5.12 KCAL/MOL
REMARK 924 INTRA-LIGAND FREE ENERGY PREDICTED BY IDOCK:   -1.02 KCAL/MOL
REMARK 927      BINDING AFFINITY PREDICTED BY RF-SCORE:    0.00 PKD
ROOT
HETATM    1  C   UNL     1     -12.346  13.396  66.837  1.00  0.00    -0.262 C  
HETATM    2  C   UNL     1     -11.401  14.435  66.255  1.00  0.00    -0.350 C  
ENDROOT
BRANCH   2   3
HETATM    3  C   UNL     1     -10.141  13.794  65.674  1.00  0.00    -0.315 C  
BRANCH   3   4
HETATM    4  C   UNL     1      -9.513  12.814  66.663  1.00  0.00    -0.249 C  
BRANCH   4   5
HETATM    5  O   UNL     1      -9.150  11.624  65.956  1.00  0.00    -0.214 OA 
BRANCH   5   6
HETATM    6  C   UNL     1      -9.632  10.458  66.492  1.00  0.00    -0.179 A  
HETATM    7  C   UNL     1     -10.576  10.385  67.518  1.00  0.00    -0.312 A  
HETATM    8  C   UNL     1     -10.997   9.135  67.992  1.00  0.00    -0.032 A  
HETATM    9  C   UNL     1     -10.466   7.958  67.456  1.00  0.00    -0.332 A  
HETATM   10  C   UNL     1      -9.154   9.281  65.911  1.00  0.00    -0.246 A  
HETATM   11  C   UNL     1      -9.558   8.032  66.395  1.00  0.00    -0.267 A  
BRANCH   9  12
HETATM   12  C   UNL     1     -10.859   6.652  68.074  1.00  0.00    -0.271 C  
HETATM   13  O   UNL     1     -10.796   5.631  67.386  1.00  0.00    -0.243 OA 
BRANCH  12  14
HETATM   14  C   UNL     1     -11.376   6.622  69.498  1.00  0.00    -0.358 C  
BRANCH  14  15
HETATM   15  C   UNL     1     -10.433   5.792  70.374  1.00  0.00    -0.273 C  
BRANCH  15  16
HETATM   16  N   UNL     1     -10.006   6.418  71.632  1.00  0.00    -0.175 NA 
HETATM   17  C   UNL     1      -8.533   6.473  71.711  1.00  0.00    -0.123 C  
HETATM   18  C   UNL     1      -7.919   7.592  70.864  1.00  0.00    -0.096 C  
HETATM   19  C   UNL     1      -8.458   8.939  71.318  1.00  0.00    -0.239 C  
HETATM   20  C   UNL     1      -9.983   8.941  71.255  1.00  0.00    -0.358 C  
HETATM   21  C   UNL     1     -10.602   7.722  71.951  1.00  0.00    -0.223 C  
ENDBRANCH  15  16
ENDBRANCH  14  15
ENDBRANCH  12  14
ENDBRANCH   9  12
ENDBRANCH   5   6
ENDBRANCH   4   5
ENDBRANCH   3   4
ENDBRANCH   2   3
TORSDOF 8
ENDMDL
MODEL      187
REMARK 921   NORMALIZED FREE ENERGY PREDICTED BY IDOCK:   -3.41 KCAL/MOL
REMARK 922        TOTAL FREE ENERGY PREDICTED BY IDOCK:   -6.13 KCAL/MOL
REMARK 923 INTER-LIGAND FREE ENERGY PREDICTED BY IDOCK:   -4.69 KCAL/MOL
REMARK 924 INTRA-LIGAND FREE ENERGY PREDICTED BY IDOCK:   -1.44 KCAL/MOL
REMARK 927      BINDING AFFINITY PREDICTED BY RF-SCORE:    0.00 PKD
ROOT
HETATM    1  C   UNL     1      -7.911   7.924  66.757  1.00  0.00    -0.107 C  
HETATM    2  C   UNL     1      -8.061   6.947  65.602  1.00  0.00    -0.129 C  
ENDROOT
BRANCH   2   3
HETATM    3  C   UNL     1      -8.015   5.496  66.077  1.00  0.00    -0.106 C  
BRANCH   3   4
HETATM    4  C   UNL     1      -9.411   4.982  66.423  1.00  0.00    -0.153 C  
BRANCH   4   5
HETATM    5  O   UNL     1      -9.412   4.552  67.789  1.00  0.00    -0.138 OA 
BRANCH   5   6
HETATM    6  C   UNL     1      -9.753   5.515  68.702  1.00  0.00    -0.142 A  
HETATM    7  C   UNL     1      -8.927   5.961  69.735  1.00  0.00    -0.135 A  
HETATM    8  C   UNL     1      -9.381   6.952  70.616  1.00  0.00    -0.162 A  
HETATM    9  C   UNL     1     -10.665   7.488  70.477  1.00  0.00    -0.244 A  
HETATM   10  C   UNL     1     -11.009   6.101  68.524  1.00  0.00    -0.404 A  
HETATM   11  C   UNL     1     -11.473   7.077  69.413  1.00  0.00    -0.021 A  
BRANCH   9  12
HETATM   12  C   UNL     1     -11.148   8.458  71.511  1.00  0.00    -0.266 C  
HETATM   13  O   UNL     1     -10.822   8.279  72.686  1.00  0.00    -0.345 OA 
BRANCH  12  14
HETATM   14  C   UNL     1     -12.066   9.593  71.102  1.00  0.00    -0.448 C  
BRANCH  14  15
HETATM   15  C   UNL     1     -11.271  10.649  70.329  1.00  0.00    -0.285 C  
BRANCH  15  16
HETATM   16  N   UNL     1     -11.795  11.005  69.003  1.00  0.00    -0.340 NA 
HETATM   17  C   UNL     1     -11.893  12.470  68.860  1.00  0.00    -0.301 C  
HETATM   18  C   UNL     1     -10.547  13.147  68.586  1.00  0.00    -0.259 C  
HETATM   19  C   UNL     1      -9.941  12.594  67.306  1.00  0.00    -0.212 C  
HETATM   20  C   UNL     1      -9.814  11.077  67.399  1.00  0.00    -0.197 C  
HETATM   21  C   UNL     1     -11.116  10.403  67.848  1.00  0.00    -0.299 C  
ENDBRANCH  15  16
ENDBRANCH  14  15
ENDBRANCH  12  14
ENDBRANCH   9  12
ENDBRANCH   5   6
ENDBRANCH   4   5
ENDBRANCH   3   4
ENDBRANCH   2   3
TORSDOF 8
ENDMDL
MODEL      188
REMARK 921   NORMALIZED FREE ENERGY PREDICTED BY IDOCK:   -3.40 KCAL/MOL
REMARK 922        TOTAL FREE ENERGY PREDICTED BY IDOCK:   -6.11 KCAL/MOL
REMARK 923 INTER-LIGAND FREE ENERGY PREDICTED BY IDOCK:   -5.35 KCAL/MOL
REMARK 924 INTRA-LIGAND FREE ENERGY PREDICTED BY IDOCK:   -0.76 KCAL/MOL
REMARK 927      BINDING AFFINITY PREDICTED BY RF-SCORE:    0.00 PKD
ROOT
HETATM    1  C   UNL     1     -12.357   6.433  72.039  1.00  0.00    -0.268 C  
HETATM    2  C   UNL     1     -13.646   7.238  71.985  1.00  0.00    -0.194 C  
ENDROOT
BRANCH   2   3
HETATM    3  C   UNL     1     -13.435   8.679  72.445  1.00  0.00    -0.384 C  
BRANCH   3   4
HETATM    4  C   UNL     1     -13.399   9.640  71.258  1.00  0.00    -0.330 C  
BRANCH   4   5
HETATM    5  O   UNL     1     -12.349  10.589  71.471  1.00  0.00    -0.371 OA 
BRANCH   5   6
HETATM    6  C   UNL     1     -11.638  10.931  70.351  1.00  0.00    -0.323 A  
HETATM    7  C   UNL     1     -11.998  11.942  69.458  1.00  0.00    -0.355 A  
HETATM    8  C   UNL     1     -11.195  12.206  68.340  1.00  0.00    -0.314 A  
HETATM    9  C   UNL     1     -10.043  11.451  68.101  1.00  0.00    -0.200 A  
HETATM   10  C   UNL     1     -10.450  10.224  70.147  1.00  0.00    -0.259 A  
HETATM   11  C   UNL     1      -9.657  10.472  69.021  1.00  0.00    -0.213 A  
BRANCH   9  12
HETATM   12  C   UNL     1      -9.283  11.691  66.833  1.00  0.00    -0.184 C  
HETATM   13  O   UNL     1      -9.684  11.160  65.795  1.00  0.00    -0.206 OA 
BRANCH  12  14
HETATM   14  C   UNL     1      -8.017  12.523  66.865  1.00  0.00    -0.013 C  
BRANCH  14  15
HETATM   15  C   UNL     1      -8.267  13.816  67.646  1.00  0.00    -0.177 C  
BRANCH  15  16
HETATM   16  N   UNL     1      -8.257  15.056  66.858  1.00  0.00    -0.210 NA 
HETATM   17  C   UNL     1      -9.539  15.232  66.150  1.00  0.00    -0.321 C  
HETATM   18  C   UNL     1     -10.671  15.732  67.052  1.00  0.00    -0.306 C  
HETATM   19  C   UNL     1     -10.290  17.072  67.662  1.00  0.00    -0.332 C  
HETATM   20  C   UNL     1      -8.968  16.949  68.413  1.00  0.00    -0.244 C  
HETATM   21  C   UNL     1      -7.873  16.282  67.571  1.00  0.00    -0.146 C  
ENDBRANCH  15  16
ENDBRANCH  14  15
ENDBRANCH  12  14
ENDBRANCH   9  12
ENDBRANCH   5   6
ENDBRANCH   4   5
ENDBRANCH   3   4
ENDBRANCH   2   3
TORSDOF 8
ENDMDL
MODEL      189
REMARK 921   NORMALIZED FREE ENERGY PREDICTED BY IDOCK:   -3.37 KCAL/MOL
REMARK 922        TOTAL FREE ENERGY PREDICTED BY IDOCK:   -6.07 KCAL/MOL
REMARK 923 INTER-LIGAND FREE ENERGY PREDICTED BY IDOCK:   -6.09 KCAL/MOL
REMARK 924 INTRA-LIGAND FREE ENERGY PREDICTED BY IDOCK:    0.02 KCAL/MOL
REMARK 927      BINDING AFFINITY PREDICTED BY RF-SCORE:    0.00 PKD
ROOT
HETATM    1  C   UNL     1     -13.175  11.630  71.822  1.00  0.00    -0.438 C  
HETATM    2  C   UNL     1     -12.234  10.697  71.077  1.00  0.00    -0.498 C  
ENDROOT
BRANCH   2   3
HETATM    3  C   UNL     1     -12.210  10.994  69.578  1.00  0.00    -0.352 C  
BRANCH   3   4
HETATM    4  C   UNL     1     -11.248  12.136  69.256  1.00  0.00    -0.226 C  
BRANCH   4   5
HETATM    5  O   UNL     1     -11.817  13.359  69.737  1.00  0.00    -0.303 OA 
BRANCH   5   6
HETATM    6  C   UNL     1     -11.435  14.486  69.055  1.00  0.00    -0.290 A  
HETATM    7  C   UNL     1     -11.616  14.687  67.685  1.00  0.00    -0.383 A  
HETATM    8  C   UNL     1     -11.183  15.879  67.090  1.00  0.00    -0.060 A  
HETATM    9  C   UNL     1     -10.555  16.865  67.857  1.00  0.00    -0.361 A  
HETATM   10  C   UNL     1     -10.869  15.501  69.831  1.00  0.00    -0.311 A  
HETATM   11  C   UNL     1     -10.418  16.685  69.237  1.00  0.00    -0.333 A  
BRANCH   9  12
HETATM   12  C   UNL     1     -10.005  18.071  67.158  1.00  0.00    -0.325 C  
HETATM   13  O   UNL     1     -10.491  18.395  66.073  1.00  0.00    -0.441 OA 
BRANCH  12  14
HETATM   14  C   UNL     1      -8.837  18.821  67.764  1.00  0.00    -0.313 C  
BRANCH  14  15
HETATM   15  C   UNL     1      -7.829  19.182  66.669  1.00  0.00    -0.267 C  
BRANCH  15  16
HETATM   16  N   UNL     1      -6.457  18.695  66.872  1.00  0.00    -0.185 NA 
HETATM   17  C   UNL     1      -5.984  19.027  68.230  1.00  0.00    -0.210 C  
HETATM   18  C   UNL     1      -6.546  18.104  69.314  1.00  0.00    -0.238 C  
HETATM   19  C   UNL     1      -6.150  16.665  69.023  1.00  0.00    -0.162 C  
HETATM   20  C   UNL     1      -6.618  16.265  67.627  1.00  0.00    -0.173 C  
HETATM   21  C   UNL     1      -6.210  17.282  66.555  1.00  0.00    -0.221 C  
ENDBRANCH  15  16
ENDBRANCH  14  15
ENDBRANCH  12  14
ENDBRANCH   9  12
ENDBRANCH   5   6
ENDBRANCH   4   5
ENDBRANCH   3   4
ENDBRANCH   2   3
TORSDOF 8
ENDMDL
MODEL      190
REMARK 921   NORMALIZED FREE ENERGY PREDICTED BY IDOCK:   -3.37 KCAL/MOL
REMARK 922        TOTAL FREE ENERGY PREDICTED BY IDOCK:   -6.07 KCAL/MOL
REMARK 923 INTER-LIGAND FREE ENERGY PREDICTED BY IDOCK:   -6.04 KCAL/MOL
REMARK 924 INTRA-LIGAND FREE ENERGY PREDICTED BY IDOCK:   -0.02 KCAL/MOL
REMARK 927      BINDING AFFINITY PREDICTED BY RF-SCORE:    0.00 PKD
ROOT
HETATM    1  C   UNL     1     -13.539  13.506  72.828  1.00  0.00    -0.392 C  
HETATM    2  C   UNL     1     -13.037  13.175  71.432  1.00  0.00    -0.352 C  
ENDROOT
BRANCH   2   3
HETATM    3  C   UNL     1     -13.215  14.348  70.471  1.00  0.00    -0.094 C  
BRANCH   3   4
HETATM    4  C   UNL     1     -13.002  15.683  71.183  1.00  0.00    -0.478 C  
BRANCH   4   5
HETATM    5  O   UNL     1     -11.599  15.969  71.203  1.00  0.00    -0.401 OA 
BRANCH   5   6
HETATM    6  C   UNL     1     -10.971  15.887  69.988  1.00  0.00    -0.358 A  
HETATM    7  C   UNL     1      -9.804  15.162  69.743  1.00  0.00    -0.119 A  
HETATM    8  C   UNL     1      -9.244  15.150  68.458  1.00  0.00    -0.192 A  
HETATM    9  C   UNL     1      -9.839  15.875  67.420  1.00  0.00    -0.234 A  
HETATM   10  C   UNL     1     -11.601  16.554  68.934  1.00  0.00    -0.037 A  
HETATM   11  C   UNL     1     -11.034  16.561  67.654  1.00  0.00    -0.207 A  
BRANCH   9  12
HETATM   12  C   UNL     1      -9.141  15.927  66.096  1.00  0.00    -0.350 C  
HETATM   13  O   UNL     1      -8.161  16.665  65.974  1.00  0.00    -0.386 OA 
BRANCH  12  14
HETATM   14  C   UNL     1      -9.686  15.126  64.930  1.00  0.00     0.322 C  
BRANCH  14  15
HETATM   15  C   UNL     1     -11.183  15.401  64.768  1.00  0.00    -0.395 C  
BRANCH  15  16
HETATM   16  N   UNL     1     -12.040  14.219  64.600  1.00  0.00    -0.443 NA 
HETATM   17  C   UNL     1     -11.341  13.178  63.822  1.00  0.00    -0.322 C  
HETATM   18  C   UNL     1     -10.306  12.398  64.637  1.00  0.00    -0.332 C  
HETATM   19  C   UNL     1     -10.983  11.719  65.817  1.00  0.00    -0.353 C  
HETATM   20  C   UNL     1     -11.722  12.752  66.662  1.00  0.00    -0.459 C  
HETATM   21  C   UNL     1     -12.631  13.659  65.823  1.00  0.00    -0.461 C  
ENDBRANCH  15  16
ENDBRANCH  14  15
ENDBRANCH  12  14
ENDBRANCH   9  12
ENDBRANCH   5   6
ENDBRANCH   4   5
ENDBRANCH   3   4
ENDBRANCH   2   3
TORSDOF 8
ENDMDL
MODEL      191
REMARK 921   NORMALIZED FREE ENERGY PREDICTED BY IDOCK:   -3.36 KCAL/MOL
REMARK 922        TOTAL FREE ENERGY PREDICTED BY IDOCK:   -6.05 KCAL/MOL
REMARK 923 INTER-LIGAND FREE ENERGY PREDICTED BY IDOCK:   -4.97 KCAL/MOL
REMARK 924 INTRA-LIGAND FREE ENERGY PREDICTED BY IDOCK:   -1.07 KCAL/MOL
REMARK 927      BINDING AFFINITY PREDICTED BY RF-SCORE:    0.00 PKD
ROOT
HETATM    1  C   UNL     1      -7.193   9.073  69.453  1.00  0.00    -0.057 C  
HETATM    2  C   UNL     1      -7.404   8.690  67.997  1.00  0.00    -0.092 C  
ENDROOT
BRANCH   2   3
HETATM    3  C   UNL     1      -8.856   8.882  67.564  1.00  0.00    -0.135 C  
BRANCH   3   4
HETATM    4  C   UNL     1      -9.049  10.221  66.855  1.00  0.00    -0.143 C  
BRANCH   4   5
HETATM    5  O   UNL     1      -9.396  11.209  67.832  1.00  0.00    -0.154 OA 
BRANCH   5   6
HETATM    6  C   UNL     1      -8.687  12.380  67.753  1.00  0.00    -0.176 A  
HETATM    7  C   UNL     1      -7.359  12.535  68.151  1.00  0.00    -0.110 A  
HETATM    8  C   UNL     1      -6.732  13.782  68.027  1.00  0.00    -0.140 A  
HETATM    9  C   UNL     1      -7.436  14.880  67.523  1.00  0.00    -0.224 A  
HETATM   10  C   UNL     1      -9.367  13.461  67.185  1.00  0.00    -0.240 A  
HETATM   11  C   UNL     1      -8.751  14.713  67.079  1.00  0.00    -0.258 A  
BRANCH   9  12
HETATM   12  C   UNL     1      -6.762  16.218  67.519  1.00  0.00    -0.161 C  
HETATM   13  O   UNL     1      -5.951  16.468  66.625  1.00  0.00    -0.319 OA 
BRANCH  12  14
HETATM   14  C   UNL     1      -7.044  17.202  68.637  1.00  0.00    -0.217 C  
BRANCH  14  15
HETATM   15  C   UNL     1      -7.255  18.602  68.053  1.00  0.00    -0.246 C  
BRANCH  15  16
HETATM   16  N   UNL     1      -8.516  19.266  68.413  1.00  0.00    -0.341 NA 
HETATM   17  C   UNL     1      -8.779  20.404  67.511  1.00  0.00    -0.278 C  
HETATM   18  C   UNL     1      -9.312  19.984  66.138  1.00  0.00    -0.415 C  
HETATM   19  C   UNL     1     -10.611  19.212  66.303  1.00  0.00    -0.521 C  
HETATM   20  C   UNL     1     -10.397  18.017  67.228  1.00  0.00    -0.387 C  
HETATM   21  C   UNL     1      -9.698  18.403  68.537  1.00  0.00    -0.361 C  
ENDBRANCH  15  16
ENDBRANCH  14  15
ENDBRANCH  12  14
ENDBRANCH   9  12
ENDBRANCH   5   6
ENDBRANCH   4   5
ENDBRANCH   3   4
ENDBRANCH   2   3
TORSDOF 8
ENDMDL
MODEL      192
REMARK 921   NORMALIZED FREE ENERGY PREDICTED BY IDOCK:   -3.32 KCAL/MOL
REMARK 922        TOTAL FREE ENERGY PREDICTED BY IDOCK:   -6.00 KCAL/MOL
REMARK 923 INTER-LIGAND FREE ENERGY PREDICTED BY IDOCK:   -4.93 KCAL/MOL
REMARK 924 INTRA-LIGAND FREE ENERGY PREDICTED BY IDOCK:   -1.07 KCAL/MOL
REMARK 927      BINDING AFFINITY PREDICTED BY RF-SCORE:    0.00 PKD
ROOT
HETATM    1  C   UNL     1      -9.302  10.801  62.571  1.00  0.00    -0.310 C  
HETATM    2  C   UNL     1      -8.958   9.321  62.524  1.00  0.00    -0.186 C  
ENDROOT
BRANCH   2   3
HETATM    3  C   UNL     1      -7.908   8.948  63.570  1.00  0.00    -0.141 C  
BRANCH   3   4
HETATM    4  C   UNL     1      -7.644  10.109  64.527  1.00  0.00    -0.130 C  
BRANCH   4   5
HETATM    5  O   UNL     1      -7.542   9.589  65.856  1.00  0.00    -0.098 OA 
BRANCH   5   6
HETATM    6  C   UNL     1      -8.561   9.945  66.701  1.00  0.00    -0.125 A  
HETATM    7  C   UNL     1      -9.914   9.956  66.356  1.00  0.00    -0.309 A  
HETATM    8  C   UNL     1     -10.874  10.341  67.301  1.00  0.00    -0.312 A  
HETATM    9  C   UNL     1     -10.485  10.734  68.586  1.00  0.00    -0.213 A  
HETATM   10  C   UNL     1      -8.181  10.272  68.005  1.00  0.00    -0.113 A  
HETATM   11  C   UNL     1      -9.135  10.676  68.946  1.00  0.00    -0.181 A  
BRANCH   9  12
HETATM   12  C   UNL     1     -11.534  11.249  69.522  1.00  0.00    -0.307 C  
HETATM   13  O   UNL     1     -12.258  12.173  69.146  1.00  0.00    -0.202 OA 
BRANCH  12  14
HETATM   14  C   UNL     1     -11.641  10.670  70.918  1.00  0.00    -0.311 C  
BRANCH  14  15
HETATM   15  C   UNL     1     -12.243   9.263  70.850  1.00  0.00    -0.201 C  
BRANCH  15  16
HETATM   16  N   UNL     1     -11.851   8.343  71.926  1.00  0.00    -0.312 NA 
HETATM   17  C   UNL     1     -12.265   6.963  71.607  1.00  0.00    -0.361 C  
HETATM   18  C   UNL     1     -11.352   6.272  70.590  1.00  0.00    -0.409 C  
HETATM   19  C   UNL     1      -9.931   6.218  71.126  1.00  0.00    -0.210 C  
HETATM   20  C   UNL     1      -9.447   7.622  71.473  1.00  0.00    -0.166 C  
HETATM   21  C   UNL     1     -10.445   8.389  72.349  1.00  0.00    -0.332 C  
ENDBRANCH  15  16
ENDBRANCH  14  15
ENDBRANCH  12  14
ENDBRANCH   9  12
ENDBRANCH   5   6
ENDBRANCH   4   5
ENDBRANCH   3   4
ENDBRANCH   2   3
TORSDOF 8
ENDMDL
MODEL      193
REMARK 921   NORMALIZED FREE ENERGY PREDICTED BY IDOCK:   -3.30 KCAL/MOL
REMARK 922        TOTAL FREE ENERGY PREDICTED BY IDOCK:   -5.96 KCAL/MOL
REMARK 923 INTER-LIGAND FREE ENERGY PREDICTED BY IDOCK:   -5.33 KCAL/MOL
REMARK 924 INTRA-LIGAND FREE ENERGY PREDICTED BY IDOCK:   -0.63 KCAL/MOL
REMARK 927      BINDING AFFINITY PREDICTED BY RF-SCORE:    0.00 PKD
ROOT
HETATM    1  C   UNL     1     -10.540   6.695  66.852  1.00  0.00    -0.376 C  
HETATM    2  C   UNL     1      -9.167   6.844  67.487  1.00  0.00    -0.124 C  
ENDROOT
BRANCH   2   3
HETATM    3  C   UNL     1      -8.813   8.309  67.737  1.00  0.00    -0.137 C  
BRANCH   3   4
HETATM    4  C   UNL     1      -7.760   8.802  66.746  1.00  0.00    -0.094 C  
BRANCH   4   5
HETATM    5  O   UNL     1      -8.430   9.333  65.598  1.00  0.00    -0.126 OA 
BRANCH   5   6
HETATM    6  C   UNL     1      -8.977  10.579  65.768  1.00  0.00    -0.180 A  
HETATM    7  C   UNL     1      -8.538  11.520  66.700  1.00  0.00    -0.176 A  
HETATM    8  C   UNL     1      -9.175  12.765  66.790  1.00  0.00    -0.225 A  
HETATM    9  C   UNL     1     -10.261  13.066  65.962  1.00  0.00    -0.292 A  
HETATM   10  C   UNL     1     -10.017  10.908  64.894  1.00  0.00    -0.361 A  
HETATM   11  C   UNL     1     -10.668  12.143  64.994  1.00  0.00    -0.338 A  
BRANCH   9  12
HETATM   12  C   UNL     1     -10.982  14.362  66.174  1.00  0.00    -0.320 C  
HETATM   13  O   UNL     1     -11.888  14.403  67.009  1.00  0.00    -0.391 OA 
BRANCH  12  14
HETATM   14  C   UNL     1     -10.626  15.565  65.324  1.00  0.00    -0.446 C  
BRANCH  14  15
HETATM   15  C   UNL     1      -9.417  16.286  65.928  1.00  0.00    -0.283 C  
BRANCH  15  16
HETATM   16  N   UNL     1      -9.249  16.152  67.382  1.00  0.00    -0.206 NA 
HETATM   17  C   UNL     1      -7.823  15.992  67.726  1.00  0.00    -0.140 C  
HETATM   18  C   UNL     1      -7.035  17.304  67.686  1.00  0.00    -0.169 C  
HETATM   19  C   UNL     1      -7.639  18.300  68.662  1.00  0.00    -0.311 C  
HETATM   20  C   UNL     1      -9.118  18.508  68.351  1.00  0.00    -0.345 C  
HETATM   21  C   UNL     1      -9.882  17.185  68.212  1.00  0.00    -0.288 C  
ENDBRANCH  15  16
ENDBRANCH  14  15
ENDBRANCH  12  14
ENDBRANCH   9  12
ENDBRANCH   5   6
ENDBRANCH   4   5
ENDBRANCH   3   4
ENDBRANCH   2   3
TORSDOF 8
ENDMDL
MODEL      194
REMARK 921   NORMALIZED FREE ENERGY PREDICTED BY IDOCK:   -3.27 KCAL/MOL
REMARK 922        TOTAL FREE ENERGY PREDICTED BY IDOCK:   -5.92 KCAL/MOL
REMARK 923 INTER-LIGAND FREE ENERGY PREDICTED BY IDOCK:   -5.20 KCAL/MOL
REMARK 924 INTRA-LIGAND FREE ENERGY PREDICTED BY IDOCK:   -0.72 KCAL/MOL
REMARK 927      BINDING AFFINITY PREDICTED BY RF-SCORE:    0.00 PKD
ROOT
HETATM    1  C   UNL     1     -10.744  15.525  66.875  1.00  0.00    -0.317 C  
HETATM    2  C   UNL     1     -10.820  16.399  68.117  1.00  0.00    -0.346 C  
ENDROOT
BRANCH   2   3
HETATM    3  C   UNL     1     -11.805  15.841  69.143  1.00  0.00    -0.367 C  
BRANCH   3   4
HETATM    4  C   UNL     1     -11.291  14.537  69.751  1.00  0.00    -0.260 C  
BRANCH   4   5
HETATM    5  O   UNL     1     -12.326  13.552  69.656  1.00  0.00    -0.270 OA 
BRANCH   5   6
HETATM    6  C   UNL     1     -11.891  12.273  69.424  1.00  0.00    -0.310 A  
HETATM    7  C   UNL     1     -11.904  11.245  70.368  1.00  0.00    -0.443 A  
HETATM    8  C   UNL     1     -11.431   9.971  70.022  1.00  0.00    -0.310 A  
HETATM    9  C   UNL     1     -10.930   9.727  68.740  1.00  0.00    -0.185 A  
HETATM   10  C   UNL     1     -11.454  12.008  68.123  1.00  0.00    -0.383 A  
HETATM   11  C   UNL     1     -10.964  10.743  67.780  1.00  0.00    -0.354 A  
BRANCH   9  12
HETATM   12  C   UNL     1     -10.329   8.385  68.453  1.00  0.00    -0.200 C  
HETATM   13  O   UNL     1      -9.556   7.897  69.279  1.00  0.00    -0.156 OA 
BRANCH  12  14
HETATM   14  C   UNL     1     -10.635   7.693  67.140  1.00  0.00    -0.410 C  
BRANCH  14  15
HETATM   15  C   UNL     1     -10.309   6.201  67.254  1.00  0.00    -0.219 C  
BRANCH  15  16
HETATM   16  N   UNL     1      -9.035   5.774  66.659  1.00  0.00    -0.120 NA 
HETATM   17  C   UNL     1      -8.552   4.535  67.300  1.00  0.00    -0.104 C  
HETATM   18  C   UNL     1      -9.279   3.276  66.819  1.00  0.00    -0.187 C  
HETATM   19  C   UNL     1      -9.102   3.121  65.317  1.00  0.00    -0.148 C  
HETATM   20  C   UNL     1      -9.590   4.376  64.599  1.00  0.00    -0.128 C  
HETATM   21  C   UNL     1      -9.001   5.660  65.195  1.00  0.00     0.016 C  
ENDBRANCH  15  16
ENDBRANCH  14  15
ENDBRANCH  12  14
ENDBRANCH   9  12
ENDBRANCH   5   6
ENDBRANCH   4   5
ENDBRANCH   3   4
ENDBRANCH   2   3
TORSDOF 8
ENDMDL
MODEL      195
REMARK 921   NORMALIZED FREE ENERGY PREDICTED BY IDOCK:   -3.26 KCAL/MOL
REMARK 922        TOTAL FREE ENERGY PREDICTED BY IDOCK:   -5.91 KCAL/MOL
REMARK 923 INTER-LIGAND FREE ENERGY PREDICTED BY IDOCK:   -5.16 KCAL/MOL
REMARK 924 INTRA-LIGAND FREE ENERGY PREDICTED BY IDOCK:   -0.75 KCAL/MOL
REMARK 927      BINDING AFFINITY PREDICTED BY RF-SCORE:    0.00 PKD
ROOT
HETATM    1  C   UNL     1      -8.967  18.559  66.600  1.00  0.00    -0.298 C  
HETATM    2  C   UNL     1     -10.160  18.804  67.510  1.00  0.00    -0.408 C  
ENDROOT
BRANCH   2   3
HETATM    3  C   UNL     1     -10.882  17.504  67.861  1.00  0.00    -0.255 C  
BRANCH   3   4
HETATM    4  C   UNL     1     -10.217  16.303  67.190  1.00  0.00    -0.276 C  
BRANCH   4   5
HETATM    5  O   UNL     1     -11.161  15.228  67.143  1.00  0.00    -0.333 OA 
BRANCH   5   6
HETATM    6  C   UNL     1     -10.621  13.990  66.906  1.00  0.00    -0.280 A  
HETATM    7  C   UNL     1      -9.280  13.656  67.102  1.00  0.00    -0.244 A  
HETATM    8  C   UNL     1      -8.835  12.356  66.824  1.00  0.00    -0.189 A  
HETATM    9  C   UNL     1      -9.723  11.394  66.334  1.00  0.00    -0.231 A  
HETATM   10  C   UNL     1     -11.520  13.008  66.482  1.00  0.00    -0.385 A  
HETATM   11  C   UNL     1     -11.076  11.715  66.185  1.00  0.00    -0.335 A  
BRANCH   9  12
HETATM   12  C   UNL     1      -9.178  10.055  65.942  1.00  0.00    -0.167 C  
HETATM   13  O   UNL     1      -9.580   9.538  64.897  1.00  0.00    -0.246 OA 
BRANCH  12  14
HETATM   14  C   UNL     1      -8.200   9.346  66.857  1.00  0.00    -0.116 C  
BRANCH  14  15
HETATM   15  C   UNL     1      -8.955   8.710  68.028  1.00  0.00    -0.141 C  
BRANCH  15  16
HETATM   16  N   UNL     1      -8.639   7.302  68.307  1.00  0.00    -0.124 NA 
HETATM   17  C   UNL     1      -9.769   6.642  68.989  1.00  0.00    -0.140 C  
HETATM   18  C   UNL     1     -10.917   6.270  68.046  1.00  0.00    -0.418 C  
HETATM   19  C   UNL     1     -10.412   5.327  66.966  1.00  0.00    -0.290 C  
HETATM   20  C   UNL     1      -9.240   5.961  66.223  1.00  0.00    -0.171 C  
HETATM   21  C   UNL     1      -8.163   6.500  67.173  1.00  0.00    -0.113 C  
ENDBRANCH  15  16
ENDBRANCH  14  15
ENDBRANCH  12  14
ENDBRANCH   9  12
ENDBRANCH   5   6
ENDBRANCH   4   5
ENDBRANCH   3   4
ENDBRANCH   2   3
TORSDOF 8
ENDMDL
MODEL      196
REMARK 921   NORMALIZED FREE ENERGY PREDICTED BY IDOCK:   -3.25 KCAL/MOL
REMARK 922        TOTAL FREE ENERGY PREDICTED BY IDOCK:   -5.89 KCAL/MOL
REMARK 923 INTER-LIGAND FREE ENERGY PREDICTED BY IDOCK:   -5.08 KCAL/MOL
REMARK 924 INTRA-LIGAND FREE ENERGY PREDICTED BY IDOCK:   -0.81 KCAL/MOL
REMARK 927      BINDING AFFINITY PREDICTED BY RF-SCORE:    0.00 PKD
ROOT
HETATM    1  C   UNL     1     -12.987  13.900  65.560  1.00  0.00    -0.375 C  
HETATM    2  C   UNL     1     -12.195  14.363  64.349  1.00  0.00    -0.481 C  
ENDROOT
BRANCH   2   3
HETATM    3  C   UNL     1     -11.133  15.395  64.725  1.00  0.00    -0.416 C  
BRANCH   3   4
HETATM    4  C   UNL     1     -10.566  15.123  66.117  1.00  0.00    -0.313 C  
BRANCH   4   5
HETATM    5  O   UNL     1      -9.353  14.376  65.977  1.00  0.00    -0.242 OA 
BRANCH   5   6
HETATM    6  C   UNL     1      -9.248  13.278  66.791  1.00  0.00    -0.233 A  
HETATM    7  C   UNL     1     -10.073  12.155  66.723  1.00  0.00    -0.218 A  
HETATM    8  C   UNL     1      -9.876  11.088  67.610  1.00  0.00    -0.192 A  
HETATM    9  C   UNL     1      -8.868  11.148  68.577  1.00  0.00    -0.161 A  
HETATM   10  C   UNL     1      -8.197  13.306  67.713  1.00  0.00    -0.168 A  
HETATM   11  C   UNL     1      -8.011  12.251  68.613  1.00  0.00    -0.050 A  
BRANCH   9  12
HETATM   12  C   UNL     1      -8.772  10.037  69.577  1.00  0.00    -0.192 C  
HETATM   13  O   UNL     1      -7.837  10.046  70.381  1.00  0.00    -0.216 OA 
BRANCH  12  14
HETATM   14  C   UNL     1      -9.781   8.906  69.540  1.00  0.00    -0.173 C  
BRANCH  14  15
HETATM   15  C   UNL     1      -9.300   7.755  70.428  1.00  0.00    -0.160 C  
BRANCH  15  16
HETATM   16  N   UNL     1      -9.731   7.801  71.832  1.00  0.00    -0.164 NA 
HETATM   17  C   UNL     1     -11.187   8.026  71.920  1.00  0.00    -0.280 C  
HETATM   18  C   UNL     1     -12.017   6.772  71.634  1.00  0.00    -0.391 C  
HETATM   19  C   UNL     1     -11.655   5.677  72.625  1.00  0.00    -0.307 C  
HETATM   20  C   UNL     1     -10.156   5.399  72.575  1.00  0.00    -0.215 C  
HETATM   21  C   UNL     1      -9.316   6.678  72.682  1.00  0.00    -0.139 C  
ENDBRANCH  15  16
ENDBRANCH  14  15
ENDBRANCH  12  14
ENDBRANCH   9  12
ENDBRANCH   5   6
ENDBRANCH   4   5
ENDBRANCH   3   4
ENDBRANCH   2   3
TORSDOF 8
ENDMDL
MODEL      197
REMARK 921   NORMALIZED FREE ENERGY PREDICTED BY IDOCK:   -3.24 KCAL/MOL
REMARK 922        TOTAL FREE ENERGY PREDICTED BY IDOCK:   -5.88 KCAL/MOL
REMARK 923 INTER-LIGAND FREE ENERGY PREDICTED BY IDOCK:   -5.21 KCAL/MOL
REMARK 924 INTRA-LIGAND FREE ENERGY PREDICTED BY IDOCK:   -0.67 KCAL/MOL
REMARK 927      BINDING AFFINITY PREDICTED BY RF-SCORE:    0.00 PKD
ROOT
HETATM    1  C   UNL     1      -8.967  15.467  67.508  1.00  0.00    -0.196 C  
HETATM    2  C   UNL     1      -9.237  15.068  66.066  1.00  0.00    -0.245 C  
ENDROOT
BRANCH   2   3
HETATM    3  C   UNL     1     -10.547  15.661  65.549  1.00  0.00    -0.422 C  
BRANCH   3   4
HETATM    4  C   UNL     1     -11.584  14.569  65.294  1.00  0.00    -0.359 C  
BRANCH   4   5
HETATM    5  O   UNL     1     -12.306  14.333  66.508  1.00  0.00    -0.445 OA 
BRANCH   5   6
HETATM    6  C   UNL     1     -11.927  13.213  67.202  1.00  0.00    -0.341 A  
HETATM    7  C   UNL     1     -11.651  11.974  66.623  1.00  0.00    -0.389 A  
HETATM    8  C   UNL     1     -11.274  10.893  67.431  1.00  0.00    -0.345 A  
HETATM    9  C   UNL     1     -11.188  11.042  68.818  1.00  0.00    -0.327 A  
HETATM   10  C   UNL     1     -11.773  13.378  68.581  1.00  0.00    -0.384 A  
HETATM   11  C   UNL     1     -11.416  12.296  69.393  1.00  0.00    -0.341 A  
BRANCH   9  12
HETATM   12  C   UNL     1     -10.896   9.831  69.649  1.00  0.00    -0.250 C  
HETATM   13  O   UNL     1     -11.746   9.450  70.456  1.00  0.00    -0.262 OA 
BRANCH  12  14
HETATM   14  C   UNL     1      -9.551   9.143  69.524  1.00  0.00    -0.171 C  
BRANCH  14  15
HETATM   15  C   UNL     1      -9.048   9.249  68.081  1.00  0.00    -0.128 C  
BRANCH  15  16
HETATM   16  N   UNL     1      -7.606   9.474  67.918  1.00  0.00    -0.087 NA 
HETATM   17  C   UNL     1      -7.355  10.761  67.242  1.00  0.00    -0.097 C  
HETATM   18  C   UNL     1      -7.511  11.975  68.163  1.00  0.00    -0.112 C  
HETATM   19  C   UNL     1      -6.541  11.866  69.329  1.00  0.00    -0.110 C  
HETATM   20  C   UNL     1      -6.757  10.549  70.069  1.00  0.00    -0.151 C  
HETATM   21  C   UNL     1      -6.781   9.341  69.126  1.00  0.00    -0.050 C  
ENDBRANCH  15  16
ENDBRANCH  14  15
ENDBRANCH  12  14
ENDBRANCH   9  12
ENDBRANCH   5   6
ENDBRANCH   4   5
ENDBRANCH   3   4
ENDBRANCH   2   3
TORSDOF 8
ENDMDL
MODEL      198
REMARK 921   NORMALIZED FREE ENERGY PREDICTED BY IDOCK:   -3.23 KCAL/MOL
REMARK 922        TOTAL FREE ENERGY PREDICTED BY IDOCK:   -5.87 KCAL/MOL
REMARK 923 INTER-LIGAND FREE ENERGY PREDICTED BY IDOCK:   -4.78 KCAL/MOL
REMARK 924 INTRA-LIGAND FREE ENERGY PREDICTED BY IDOCK:   -1.09 KCAL/MOL
REMARK 927      BINDING AFFINITY PREDICTED BY RF-SCORE:    0.00 PKD
ROOT
HETATM    1  C   UNL     1     -11.226   6.302  69.665  1.00  0.00    -0.506 C  
HETATM    2  C   UNL     1      -9.799   6.722  69.356  1.00  0.00    -0.162 C  
ENDROOT
BRANCH   2   3
HETATM    3  C   UNL     1      -9.471   8.093  69.945  1.00  0.00    -0.160 C  
BRANCH   3   4
HETATM    4  C   UNL     1      -7.985   8.417  69.799  1.00  0.00    -0.104 C  
BRANCH   4   5
HETATM    5  O   UNL     1      -7.740   8.838  68.453  1.00  0.00    -0.094 OA 
BRANCH   5   6
HETATM    6  C   UNL     1      -7.638  10.194  68.278  1.00  0.00    -0.087 A  
HETATM    7  C   UNL     1      -7.199  11.092  69.252  1.00  0.00    -0.124 A  
HETATM    8  C   UNL     1      -7.136  12.462  68.964  1.00  0.00    -0.041 A  
HETATM    9  C   UNL     1      -7.527  12.940  67.709  1.00  0.00    -0.136 A  
HETATM   10  C   UNL     1      -7.962  10.666  67.003  1.00  0.00    -0.121 A  
HETATM   11  C   UNL     1      -7.919  12.036  66.718  1.00  0.00    -0.060 A  
BRANCH   9  12
HETATM   12  C   UNL     1      -7.554  14.421  67.487  1.00  0.00    -0.193 C  
HETATM   13  O   UNL     1      -6.514  14.984  67.139  1.00  0.00    -0.275 OA 
BRANCH  12  14
HETATM   14  C   UNL     1      -8.830  15.195  67.749  1.00  0.00    -0.171 C  
BRANCH  14  15
HETATM   15  C   UNL     1      -9.344  15.804  66.441  1.00  0.00    -0.301 C  
BRANCH  15  16
HETATM   16  N   UNL     1     -10.774  15.614  66.162  1.00  0.00    -0.314 NA 
HETATM   17  C   UNL     1     -10.966  15.002  64.833  1.00  0.00    -0.413 C  
HETATM   18  C   UNL     1     -10.690  13.495  64.810  1.00  0.00    -0.412 C  
HETATM   19  C   UNL     1     -11.615  12.787  65.787  1.00  0.00    -0.419 C  
HETATM   20  C   UNL     1     -11.457  13.380  67.183  1.00  0.00    -0.373 C  
HETATM   21  C   UNL     1     -11.554  14.910  67.188  1.00  0.00    -0.315 C  
ENDBRANCH  15  16
ENDBRANCH  14  15
ENDBRANCH  12  14
ENDBRANCH   9  12
ENDBRANCH   5   6
ENDBRANCH   4   5
ENDBRANCH   3   4
ENDBRANCH   2   3
TORSDOF 8
ENDMDL
MODEL      199
REMARK 921   NORMALIZED FREE ENERGY PREDICTED BY IDOCK:   -3.22 KCAL/MOL
REMARK 922        TOTAL FREE ENERGY PREDICTED BY IDOCK:   -5.85 KCAL/MOL
REMARK 923 INTER-LIGAND FREE ENERGY PREDICTED BY IDOCK:   -4.91 KCAL/MOL
REMARK 924 INTRA-LIGAND FREE ENERGY PREDICTED BY IDOCK:   -0.94 KCAL/MOL
REMARK 927      BINDING AFFINITY PREDICTED BY RF-SCORE:    0.00 PKD
ROOT
HETATM    1  C   UNL     1     -10.396  16.087  67.376  1.00  0.00    -0.294 C  
HETATM    2  C   UNL     1     -10.115  15.342  66.081  1.00  0.00    -0.315 C  
ENDROOT
BRANCH   2   3
HETATM    3  C   UNL     1     -11.401  14.997  65.333  1.00  0.00    -0.328 C  
BRANCH   3   4
HETATM    4  C   UNL     1     -11.567  13.486  65.184  1.00  0.00    -0.316 C  
BRANCH   4   5
HETATM    5  O   UNL     1     -12.419  13.016  66.234  1.00  0.00    -0.426 OA 
BRANCH   5   6
HETATM    6  C   UNL     1     -11.829  12.152  67.120  1.00  0.00    -0.222 A  
HETATM    7  C   UNL     1     -11.966  12.219  68.507  1.00  0.00    -0.272 A  
HETATM    8  C   UNL     1     -11.313  11.283  69.321  1.00  0.00    -0.354 A  
HETATM    9  C   UNL     1     -10.509  10.290  68.752  1.00  0.00    -0.222 A  
HETATM   10  C   UNL     1     -11.081  11.118  66.551  1.00  0.00    -0.233 A  
HETATM   11  C   UNL     1     -10.412  10.193  67.361  1.00  0.00    -0.310 A  
BRANCH   9  12
HETATM   12  C   UNL     1      -9.739   9.386  69.665  1.00  0.00    -0.190 C  
HETATM   13  O   UNL     1      -9.915   9.487  70.881  1.00  0.00    -0.284 OA 
BRANCH  12  14
HETATM   14  C   UNL     1      -8.726   8.420  69.083  1.00  0.00    -0.142 C  
BRANCH  14  15
HETATM   15  C   UNL     1      -9.341   7.020  68.992  1.00  0.00    -0.136 C  
BRANCH  15  16
HETATM   16  N   UNL     1      -8.494   5.985  68.382  1.00  0.00    -0.112 NA 
HETATM   17  C   UNL     1      -9.247   4.726  68.226  1.00  0.00    -0.124 C  
HETATM   18  C   UNL     1     -10.212   4.735  67.036  1.00  0.00    -0.205 C  
HETATM   19  C   UNL     1      -9.441   4.980  65.749  1.00  0.00    -0.167 C  
HETATM   20  C   UNL     1      -8.643   6.276  65.853  1.00  0.00    -0.150 C  
HETATM   21  C   UNL     1      -7.808   6.351  67.137  1.00  0.00    -0.108 C  
ENDBRANCH  15  16
ENDBRANCH  14  15
ENDBRANCH  12  14
ENDBRANCH   9  12
ENDBRANCH   5   6
ENDBRANCH   4   5
ENDBRANCH   3   4
ENDBRANCH   2   3
TORSDOF 8
ENDMDL
MODEL      200
REMARK 921   NORMALIZED FREE ENERGY PREDICTED BY IDOCK:   -3.22 KCAL/MOL
REMARK 922        TOTAL FREE ENERGY PREDICTED BY IDOCK:   -5.85 KCAL/MOL
REMARK 923 INTER-LIGAND FREE ENERGY PREDICTED BY IDOCK:   -4.71 KCAL/MOL
REMARK 924 INTRA-LIGAND FREE ENERGY PREDICTED BY IDOCK:   -1.13 KCAL/MOL
REMARK 927      BINDING AFFINITY PREDICTED BY RF-SCORE:    0.00 PKD
ROOT
HETATM    1  C   UNL     1     -10.493   5.733  67.557  1.00  0.00    -0.310 C  
HETATM    2  C   UNL     1      -9.614   5.284  66.401  1.00  0.00    -0.171 C  
ENDROOT
BRANCH   2   3
HETATM    3  C   UNL     1      -8.155   5.689  66.606  1.00  0.00    -0.105 C  
BRANCH   3   4
HETATM    4  C   UNL     1      -7.611   6.433  65.388  1.00  0.00    -0.089 C  
BRANCH   4   5
HETATM    5  O   UNL     1      -8.575   7.411  64.984  1.00  0.00    -0.042 OA 
BRANCH   5   6
HETATM    6  C   UNL     1      -8.602   8.551  65.745  1.00  0.00    -0.168 A  
HETATM    7  C   UNL     1      -9.755   9.113  66.295  1.00  0.00    -0.344 A  
HETATM    8  C   UNL     1      -9.666  10.286  67.058  1.00  0.00    -0.217 A  
HETATM    9  C   UNL     1      -8.430  10.908  67.258  1.00  0.00    -0.125 A  
HETATM   10  C   UNL     1      -7.360   9.136  66.004  1.00  0.00    -0.094 A  
HETATM   11  C   UNL     1      -7.270  10.318  66.748  1.00  0.00    -0.105 A  
BRANCH   9  12
HETATM   12  C   UNL     1      -8.401  12.220  67.979  1.00  0.00    -0.165 C  
HETATM   13  O   UNL     1      -7.328  12.616  68.440  1.00  0.00    -0.104 OA 
BRANCH  12  14
HETATM   14  C   UNL     1      -9.688  12.996  68.177  1.00  0.00    -0.228 C  
BRANCH  14  15
HETATM   15  C   UNL     1      -9.727  14.187  67.216  1.00  0.00    -0.236 C  
BRANCH  15  16
HETATM   16  N   UNL     1     -11.064  14.668  66.842  1.00  0.00    -0.325 NA 
HETATM   17  C   UNL     1     -11.016  15.387  65.554  1.00  0.00    -0.343 C  
HETATM   18  C   UNL     1     -10.933  14.458  64.339  1.00  0.00    -0.169 C  
HETATM   19  C   UNL     1     -12.142  13.537  64.311  1.00  0.00    -0.482 C  
HETATM   20  C   UNL     1     -12.242  12.763  65.622  1.00  0.00    -0.503 C  
HETATM   21  C   UNL     1     -12.144  13.673  66.852  1.00  0.00    -0.386 C  
ENDBRANCH  15  16
ENDBRANCH  14  15
ENDBRANCH  12  14
ENDBRANCH   9  12
ENDBRANCH   5   6
ENDBRANCH   4   5
ENDBRANCH   3   4
ENDBRANCH   2   3
TORSDOF 8
ENDMDL
MODEL      201
REMARK 921   NORMALIZED FREE ENERGY PREDICTED BY IDOCK:   -3.21 KCAL/MOL
REMARK 922        TOTAL FREE ENERGY PREDICTED BY IDOCK:   -5.84 KCAL/MOL
REMARK 923 INTER-LIGAND FREE ENERGY PREDICTED BY IDOCK:   -4.76 KCAL/MOL
REMARK 924 INTRA-LIGAND FREE ENERGY PREDICTED BY IDOCK:   -1.08 KCAL/MOL
REMARK 927      BINDING AFFINITY PREDICTED BY RF-SCORE:    0.00 PKD
ROOT
HETATM    1  C   UNL     1      -9.034   9.547  62.380  1.00  0.00    -0.279 C  
HETATM    2  C   UNL     1      -8.192   8.296  62.571  1.00  0.00    -0.169 C  
ENDROOT
BRANCH   2   3
HETATM    3  C   UNL     1      -6.780   8.630  63.047  1.00  0.00    -0.090 C  
BRANCH   3   4
HETATM    4  C   UNL     1      -6.641  10.117  63.368  1.00  0.00    -0.132 C  
BRANCH   4   5
HETATM    5  O   UNL     1      -6.102  10.249  64.688  1.00  0.00    -0.124 OA 
BRANCH   5   6
HETATM    6  C   UNL     1      -6.971   9.949  65.704  1.00  0.00    -0.108 A  
HETATM    7  C   UNL     1      -6.740   8.990  66.692  1.00  0.00    -0.075 A  
HETATM    8  C   UNL     1      -7.702   8.762  67.685  1.00  0.00    -0.101 A  
HETATM    9  C   UNL     1      -8.903   9.478  67.684  1.00  0.00    -0.121 A  
HETATM   10  C   UNL     1      -8.142  10.710  65.745  1.00  0.00    -0.158 A  
HETATM   11  C   UNL     1      -9.114  10.472  66.724  1.00  0.00    -0.167 A  
BRANCH   9  12
HETATM   12  C   UNL     1      -9.949   9.118  68.694  1.00  0.00    -0.170 C  
HETATM   13  O   UNL     1     -10.712   8.182  68.445  1.00  0.00    -0.137 OA 
BRANCH  12  14
HETATM   14  C   UNL     1     -10.083   9.941  69.959  1.00  0.00    -0.308 C  
BRANCH  14  15
HETATM   15  C   UNL     1     -11.539   9.929  70.433  1.00  0.00    -0.282 C  
BRANCH  15  16
HETATM   16  N   UNL     1     -11.778   9.347  71.761  1.00  0.00    -0.385 NA 
HETATM   17  C   UNL     1     -13.180   9.552  72.173  1.00  0.00    -0.451 C  
HETATM   18  C   UNL     1     -14.161   8.589  71.498  1.00  0.00    -0.448 C  
HETATM   19  C   UNL     1     -13.786   7.153  71.828  1.00  0.00    -0.361 C  
HETATM   20  C   UNL     1     -12.341   6.883  71.420  1.00  0.00    -0.421 C  
HETATM   21  C   UNL     1     -11.371   7.947  71.946  1.00  0.00    -0.276 C  
ENDBRANCH  15  16
ENDBRANCH  14  15
ENDBRANCH  12  14
ENDBRANCH   9  12
ENDBRANCH   5   6
ENDBRANCH   4   5
ENDBRANCH   3   4
ENDBRANCH   2   3
TORSDOF 8
ENDMDL
MODEL      202
REMARK 921   NORMALIZED FREE ENERGY PREDICTED BY IDOCK:   -3.21 KCAL/MOL
REMARK 922        TOTAL FREE ENERGY PREDICTED BY IDOCK:   -5.83 KCAL/MOL
REMARK 923 INTER-LIGAND FREE ENERGY PREDICTED BY IDOCK:   -4.93 KCAL/MOL
REMARK 924 INTRA-LIGAND FREE ENERGY PREDICTED BY IDOCK:   -0.90 KCAL/MOL
REMARK 927      BINDING AFFINITY PREDICTED BY RF-SCORE:    0.00 PKD
ROOT
HETATM    1  C   UNL     1      -8.786   4.752  70.442  1.00  0.00    -0.138 C  
HETATM    2  C   UNL     1      -8.377   3.323  70.127  1.00  0.00    -0.079 C  
ENDROOT
BRANCH   2   3
HETATM    3  C   UNL     1      -8.245   3.088  68.623  1.00  0.00    -0.080 C  
BRANCH   3   4
HETATM    4  C   UNL     1      -9.400   3.733  67.859  1.00  0.00    -0.186 C  
BRANCH   4   5
HETATM    5  O   UNL     1      -8.868   4.410  66.715  1.00  0.00    -0.111 OA 
BRANCH   5   6
HETATM    6  C   UNL     1      -9.141   5.752  66.654  1.00  0.00    -0.132 A  
HETATM    7  C   UNL     1      -8.283   6.715  66.122  1.00  0.00    -0.124 A  
HETATM    8  C   UNL     1      -8.664   8.064  66.113  1.00  0.00    -0.177 A  
HETATM    9  C   UNL     1      -9.894   8.455  66.651  1.00  0.00    -0.343 A  
HETATM   10  C   UNL     1     -10.398   6.137  67.128  1.00  0.00    -0.286 A  
HETATM   11  C   UNL     1     -10.773   7.485  67.139  1.00  0.00    -0.379 A  
BRANCH   9  12
HETATM   12  C   UNL     1     -10.206   9.918  66.726  1.00  0.00    -0.236 C  
HETATM   13  O   UNL     1      -9.541  10.699  66.042  1.00  0.00    -0.183 OA 
BRANCH  12  14
HETATM   14  C   UNL     1     -11.283  10.407  67.674  1.00  0.00    -0.287 C  
BRANCH  14  15
HETATM   15  C   UNL     1     -10.936  11.814  68.169  1.00  0.00    -0.228 C  
BRANCH  15  16
HETATM   16  N   UNL     1     -11.878  12.877  67.793  1.00  0.00    -0.354 NA 
HETATM   17  C   UNL     1     -11.737  14.038  68.693  1.00  0.00    -0.354 C  
HETATM   18  C   UNL     1     -10.519  14.910  68.377  1.00  0.00    -0.243 C  
HETATM   19  C   UNL     1     -10.615  15.435  66.954  1.00  0.00    -0.309 C  
HETATM   20  C   UNL     1     -10.760  14.274  65.975  1.00  0.00    -0.304 C  
HETATM   21  C   UNL     1     -11.867  13.295  66.384  1.00  0.00    -0.396 C  
ENDBRANCH  15  16
ENDBRANCH  14  15
ENDBRANCH  12  14
ENDBRANCH   9  12
ENDBRANCH   5   6
ENDBRANCH   4   5
ENDBRANCH   3   4
ENDBRANCH   2   3
TORSDOF 8
ENDMDL
MODEL      203
REMARK 921   NORMALIZED FREE ENERGY PREDICTED BY IDOCK:   -3.20 KCAL/MOL
REMARK 922        TOTAL FREE ENERGY PREDICTED BY IDOCK:   -5.81 KCAL/MOL
REMARK 923 INTER-LIGAND FREE ENERGY PREDICTED BY IDOCK:   -5.78 KCAL/MOL
REMARK 924 INTRA-LIGAND FREE ENERGY PREDICTED BY IDOCK:   -0.04 KCAL/MOL
REMARK 927      BINDING AFFINITY PREDICTED BY RF-SCORE:    0.00 PKD
ROOT
HETATM    1  C   UNL     1     -10.523   6.800  66.965  1.00  0.00    -0.369 C  
HETATM    2  C   UNL     1     -10.605   7.496  68.314  1.00  0.00    -0.185 C  
ENDROOT
BRANCH   2   3
HETATM    3  C   UNL     1      -9.663   8.696  68.392  1.00  0.00    -0.176 C  
BRANCH   3   4
HETATM    4  C   UNL     1      -9.039   8.999  67.031  1.00  0.00    -0.130 C  
BRANCH   4   5
HETATM    5  O   UNL     1      -9.864   9.953  66.354  1.00  0.00    -0.199 OA 
BRANCH   5   6
HETATM    6  C   UNL     1     -10.159  11.082  67.074  1.00  0.00    -0.196 A  
HETATM    7  C   UNL     1      -9.212  11.974  67.578  1.00  0.00    -0.180 A  
HETATM    8  C   UNL     1      -9.627  13.099  68.305  1.00  0.00    -0.218 A  
HETATM    9  C   UNL     1     -10.986  13.324  68.544  1.00  0.00    -0.291 A  
HETATM   10  C   UNL     1     -11.519  11.347  67.255  1.00  0.00    -0.301 A  
HETATM   11  C   UNL     1     -11.937  12.458  67.997  1.00  0.00    -0.264 A  
BRANCH   9  12
HETATM   12  C   UNL     1     -11.374  14.473  69.424  1.00  0.00    -0.279 C  
HETATM   13  O   UNL     1     -11.613  14.251  70.613  1.00  0.00    -0.252 OA 
BRANCH  12  14
HETATM   14  C   UNL     1     -11.521  15.858  68.826  1.00  0.00    -0.393 C  
BRANCH  14  15
HETATM   15  C   UNL     1     -10.717  16.866  69.652  1.00  0.00    -0.151 C  
BRANCH  15  16
HETATM   16  N   UNL     1      -9.684  17.615  68.924  1.00  0.00    -0.287 NA 
HETATM   17  C   UNL     1      -9.179  16.827  67.783  1.00  0.00    -0.222 C  
HETATM   18  C   UNL     1     -10.124  16.824  66.578  1.00  0.00    -0.322 C  
HETATM   19  C   UNL     1     -10.349  18.247  66.096  1.00  0.00    -0.414 C  
HETATM   20  C   UNL     1     -10.876  19.111  67.238  1.00  0.00    -0.529 C  
HETATM   21  C   UNL     1     -10.033  18.981  68.512  1.00  0.00    -0.421 C  
ENDBRANCH  15  16
ENDBRANCH  14  15
ENDBRANCH  12  14
ENDBRANCH   9  12
ENDBRANCH   5   6
ENDBRANCH   4   5
ENDBRANCH   3   4
ENDBRANCH   2   3
TORSDOF 8
ENDMDL
MODEL      204
REMARK 921   NORMALIZED FREE ENERGY PREDICTED BY IDOCK:   -3.20 KCAL/MOL
REMARK 922        TOTAL FREE ENERGY PREDICTED BY IDOCK:   -5.81 KCAL/MOL
REMARK 923 INTER-LIGAND FREE ENERGY PREDICTED BY IDOCK:   -5.11 KCAL/MOL
REMARK 924 INTRA-LIGAND FREE ENERGY PREDICTED BY IDOCK:   -0.70 KCAL/MOL
REMARK 927      BINDING AFFINITY PREDICTED BY RF-SCORE:    0.00 PKD
ROOT
HETATM    1  C   UNL     1      -9.902  12.203  65.397  1.00  0.00    -0.231 C  
HETATM    2  C   UNL     1     -10.170  10.708  65.342  1.00  0.00    -0.341 C  
ENDROOT
BRANCH   2   3
HETATM    3  C   UNL     1     -10.382  10.118  66.736  1.00  0.00    -0.285 C  
BRANCH   3   4
HETATM    4  C   UNL     1      -9.719  10.981  67.808  1.00  0.00    -0.170 C  
BRANCH   4   5
HETATM    5  O   UNL     1     -10.649  11.168  68.881  1.00  0.00    -0.191 OA 
BRANCH   5   6
HETATM    6  C   UNL     1     -10.535  10.272  69.913  1.00  0.00    -0.256 A  
HETATM    7  C   UNL     1     -11.572   9.916  70.776  1.00  0.00    -0.430 A  
HETATM    8  C   UNL     1     -11.342   8.989  71.801  1.00  0.00    -0.447 A  
HETATM    9  C   UNL     1     -10.073   8.429  71.977  1.00  0.00    -0.364 A  
HETATM   10  C   UNL     1      -9.286   9.659  70.047  1.00  0.00    -0.276 A  
HETATM   11  C   UNL     1      -9.048   8.748  71.082  1.00  0.00    -0.285 A  
BRANCH   9  12
HETATM   12  C   UNL     1      -9.846   7.534  73.156  1.00  0.00    -0.262 C  
HETATM   13  O   UNL     1     -10.771   7.360  73.952  1.00  0.00    -0.319 OA 
BRANCH  12  14
HETATM   14  C   UNL     1      -8.480   6.916  73.376  1.00  0.00    -0.139 C  
BRANCH  14  15
HETATM   15  C   UNL     1      -8.465   5.485  72.830  1.00  0.00    -0.120 C  
BRANCH  15  16
HETATM   16  N   UNL     1      -9.659   5.071  72.080  1.00  0.00    -0.147 NA 
HETATM   17  C   UNL     1      -9.346   4.923  70.646  1.00  0.00    -0.162 C  
HETATM   18  C   UNL     1      -8.603   3.626  70.314  1.00  0.00    -0.105 C  
HETATM   19  C   UNL     1      -9.442   2.429  70.732  1.00  0.00    -0.206 C  
HETATM   20  C   UNL     1      -9.794   2.528  72.213  1.00  0.00    -0.220 C  
HETATM   21  C   UNL     1     -10.377   3.895  72.590  1.00  0.00    -0.155 C  
ENDBRANCH  15  16
ENDBRANCH  14  15
ENDBRANCH  12  14
ENDBRANCH   9  12
ENDBRANCH   5   6
ENDBRANCH   4   5
ENDBRANCH   3   4
ENDBRANCH   2   3
TORSDOF 8
ENDMDL
MODEL      205
REMARK 921   NORMALIZED FREE ENERGY PREDICTED BY IDOCK:   -3.19 KCAL/MOL
REMARK 922        TOTAL FREE ENERGY PREDICTED BY IDOCK:   -5.80 KCAL/MOL
REMARK 923 INTER-LIGAND FREE ENERGY PREDICTED BY IDOCK:   -5.07 KCAL/MOL
REMARK 924 INTRA-LIGAND FREE ENERGY PREDICTED BY IDOCK:   -0.72 KCAL/MOL
REMARK 927      BINDING AFFINITY PREDICTED BY RF-SCORE:    0.00 PKD
ROOT
HETATM    1  C   UNL     1      -8.051   7.983  68.754  1.00  0.00    -0.125 C  
HETATM    2  C   UNL     1      -8.232   8.100  67.250  1.00  0.00    -0.121 C  
ENDROOT
BRANCH   2   3
HETATM    3  C   UNL     1      -9.702   8.256  66.865  1.00  0.00    -0.291 C  
BRANCH   3   4
HETATM    4  C   UNL     1      -9.947   9.580  66.143  1.00  0.00    -0.272 C  
BRANCH   4   5
HETATM    5  O   UNL     1     -10.335  10.561  67.111  1.00  0.00    -0.211 OA 
BRANCH   5   6
HETATM    6  C   UNL     1      -9.509  11.652  67.198  1.00  0.00    -0.176 A  
HETATM    7  C   UNL     1      -8.138  11.593  67.452  1.00  0.00    -0.153 A  
HETATM    8  C   UNL     1      -7.389  12.775  67.522  1.00  0.00    -0.153 A  
HETATM    9  C   UNL     1      -8.009  14.017  67.356  1.00  0.00    -0.191 A  
HETATM   10  C   UNL     1     -10.114  12.890  66.963  1.00  0.00    -0.245 A  
HETATM   11  C   UNL     1      -9.372  14.073  67.052  1.00  0.00    -0.256 A  
BRANCH   9  12
HETATM   12  C   UNL     1      -7.190  15.255  67.555  1.00  0.00    -0.197 C  
HETATM   13  O   UNL     1      -5.962  15.169  67.485  1.00  0.00    -0.293 OA 
BRANCH  12  14
HETATM   14  C   UNL     1      -7.878  16.562  67.894  1.00  0.00    -0.162 C  
BRANCH  14  15
HETATM   15  C   UNL     1      -7.712  17.551  66.736  1.00  0.00    -0.230 C  
BRANCH  15  16
HETATM   16  N   UNL     1      -8.312  18.877  66.932  1.00  0.00    -0.272 NA 
HETATM   17  C   UNL     1      -8.178  19.306  68.337  1.00  0.00    -0.347 C  
HETATM   18  C   UNL     1      -6.776  19.812  68.690  1.00  0.00    -0.341 C  
HETATM   19  C   UNL     1      -6.418  20.996  67.807  1.00  0.00    -0.407 C  
HETATM   20  C   UNL     1      -6.537  20.609  66.336  1.00  0.00    -0.307 C  
HETATM   21  C   UNL     1      -7.876  19.936  66.011  1.00  0.00    -0.323 C  
ENDBRANCH  15  16
ENDBRANCH  14  15
ENDBRANCH  12  14
ENDBRANCH   9  12
ENDBRANCH   5   6
ENDBRANCH   4   5
ENDBRANCH   3   4
ENDBRANCH   2   3
TORSDOF 8
ENDMDL
MODEL      206
REMARK 921   NORMALIZED FREE ENERGY PREDICTED BY IDOCK:   -3.17 KCAL/MOL
REMARK 922        TOTAL FREE ENERGY PREDICTED BY IDOCK:   -5.78 KCAL/MOL
REMARK 923 INTER-LIGAND FREE ENERGY PREDICTED BY IDOCK:   -4.83 KCAL/MOL
REMARK 924 INTRA-LIGAND FREE ENERGY PREDICTED BY IDOCK:   -0.95 KCAL/MOL
REMARK 927      BINDING AFFINITY PREDICTED BY RF-SCORE:    0.00 PKD
ROOT
HETATM    1  C   UNL     1      -7.854   8.107  66.784  1.00  0.00    -0.095 C  
HETATM    2  C   UNL     1      -7.915   6.984  65.761  1.00  0.00    -0.116 C  
ENDROOT
BRANCH   2   3
HETATM    3  C   UNL     1      -7.934   5.609  66.427  1.00  0.00    -0.101 C  
BRANCH   3   4
HETATM    4  C   UNL     1      -9.355   5.202  66.813  1.00  0.00    -0.134 C  
BRANCH   4   5
HETATM    5  O   UNL     1      -9.315   4.578  68.101  1.00  0.00    -0.125 OA 
BRANCH   5   6
HETATM    6  C   UNL     1      -9.639   5.394  69.153  1.00  0.00    -0.141 A  
HETATM    7  C   UNL     1      -8.735   5.851  70.114  1.00  0.00    -0.141 A  
HETATM    8  C   UNL     1      -9.178   6.682  71.152  1.00  0.00    -0.159 A  
HETATM    9  C   UNL     1     -10.525   7.045  71.242  1.00  0.00    -0.224 A  
HETATM   10  C   UNL     1     -10.971   5.814  69.207  1.00  0.00    -0.330 A  
HETATM   11  C   UNL     1     -11.420   6.628  70.252  1.00  0.00    -0.449 A  
BRANCH   9  12
HETATM   12  C   UNL     1     -10.972   7.837  72.432  1.00  0.00    -0.311 C  
HETATM   13  O   UNL     1     -10.404   7.654  73.510  1.00  0.00    -0.336 OA 
BRANCH  12  14
HETATM   14  C   UNL     1     -12.141   8.794  72.299  1.00  0.00    -0.423 C  
BRANCH  14  15
HETATM   15  C   UNL     1     -11.691  10.062  71.568  1.00  0.00    -0.280 C  
BRANCH  15  16
HETATM   16  N   UNL     1     -12.715  10.732  70.755  1.00  0.00    -0.361 NA 
HETATM   17  C   UNL     1     -13.625  11.518  71.610  1.00  0.00     0.223 C  
HETATM   18  C   UNL     1     -13.025  12.848  72.077  1.00  0.00    -0.385 C  
HETATM   19  C   UNL     1     -12.666  13.703  70.872  1.00  0.00    -0.382 C  
HETATM   20  C   UNL     1     -11.721  12.938  69.950  1.00  0.00    -0.324 C  
HETATM   21  C   UNL     1     -12.232  11.531  69.620  1.00  0.00    -0.229 C  
ENDBRANCH  15  16
ENDBRANCH  14  15
ENDBRANCH  12  14
ENDBRANCH   9  12
ENDBRANCH   5   6
ENDBRANCH   4   5
ENDBRANCH   3   4
ENDBRANCH   2   3
TORSDOF 8
ENDMDL
MODEL      207
REMARK 921   NORMALIZED FREE ENERGY PREDICTED BY IDOCK:   -3.15 KCAL/MOL
REMARK 922        TOTAL FREE ENERGY PREDICTED BY IDOCK:   -5.74 KCAL/MOL
REMARK 923 INTER-LIGAND FREE ENERGY PREDICTED BY IDOCK:   -5.48 KCAL/MOL
REMARK 924 INTRA-LIGAND FREE ENERGY PREDICTED BY IDOCK:   -0.26 KCAL/MOL
REMARK 927      BINDING AFFINITY PREDICTED BY RF-SCORE:    0.00 PKD
ROOT
HETATM    1  C   UNL     1      -7.859   3.041  66.662  1.00  0.00    -0.077 C  
HETATM    2  C   UNL     1      -9.254   2.958  66.064  1.00  0.00    -0.101 C  
ENDROOT
BRANCH   2   3
HETATM    3  C   UNL     1      -9.688   4.287  65.450  1.00  0.00    -0.204 C  
BRANCH   3   4
HETATM    4  C   UNL     1      -9.739   5.393  66.503  1.00  0.00    -0.164 C  
BRANCH   4   5
HETATM    5  O   UNL     1      -9.034   6.533  66.000  1.00  0.00    -0.157 OA 
BRANCH   5   6
HETATM    6  C   UNL     1      -9.388   7.731  66.565  1.00  0.00    -0.189 A  
HETATM    7  C   UNL     1      -9.712   7.912  67.910  1.00  0.00    -0.184 A  
HETATM    8  C   UNL     1     -10.063   9.185  68.381  1.00  0.00    -0.220 A  
HETATM    9  C   UNL     1     -10.107  10.275  67.506  1.00  0.00    -0.239 A  
HETATM   10  C   UNL     1      -9.365   8.835  65.708  1.00  0.00    -0.259 A  
HETATM   11  C   UNL     1      -9.734  10.103  66.170  1.00  0.00    -0.275 A  
BRANCH   9  12
HETATM   12  C   UNL     1     -10.600  11.589  68.029  1.00  0.00    -0.190 C  
HETATM   13  O   UNL     1     -11.334  11.592  69.019  1.00  0.00    -0.229 OA 
BRANCH  12  14
HETATM   14  C   UNL     1     -10.238  12.868  67.301  1.00  0.00    -0.234 C  
BRANCH  14  15
HETATM   15  C   UNL     1     -11.402  13.860  67.387  1.00  0.00    -0.326 C  
BRANCH  15  16
HETATM   16  N   UNL     1     -11.855  14.431  66.112  1.00  0.00    -0.390 NA 
HETATM   17  C   UNL     1     -10.711  14.656  65.208  1.00  0.00    -0.381 C  
HETATM   18  C   UNL     1     -10.205  13.377  64.535  1.00  0.00    -0.321 C  
HETATM   19  C   UNL     1     -11.323  12.745  63.721  1.00  0.00    -0.520 C  
HETATM   20  C   UNL     1     -12.537  12.487  64.609  1.00  0.00    -0.507 C  
HETATM   21  C   UNL     1     -12.942  13.720  65.425  1.00  0.00    -0.312 C  
ENDBRANCH  15  16
ENDBRANCH  14  15
ENDBRANCH  12  14
ENDBRANCH   9  12
ENDBRANCH   5   6
ENDBRANCH   4   5
ENDBRANCH   3   4
ENDBRANCH   2   3
TORSDOF 8
ENDMDL
MODEL      208
REMARK 921   NORMALIZED FREE ENERGY PREDICTED BY IDOCK:   -3.14 KCAL/MOL
REMARK 922        TOTAL FREE ENERGY PREDICTED BY IDOCK:   -5.74 KCAL/MOL
REMARK 923 INTER-LIGAND FREE ENERGY PREDICTED BY IDOCK:   -4.52 KCAL/MOL
REMARK 924 INTRA-LIGAND FREE ENERGY PREDICTED BY IDOCK:   -1.22 KCAL/MOL
REMARK 927      BINDING AFFINITY PREDICTED BY RF-SCORE:    0.00 PKD
ROOT
HETATM    1  C   UNL     1     -11.862  13.750  66.739  1.00  0.00    -0.454 C  
HETATM    2  C   UNL     1     -11.119  13.116  65.574  1.00  0.00    -0.299 C  
ENDROOT
BRANCH   2   3
HETATM    3  C   UNL     1     -11.279  11.597  65.558  1.00  0.00    -0.267 C  
BRANCH   3   4
HETATM    4  C   UNL     1     -10.483  10.945  66.688  1.00  0.00    -0.254 C  
BRANCH   4   5
HETATM    5  O   UNL     1     -10.344   9.549  66.400  1.00  0.00    -0.240 OA 
BRANCH   5   6
HETATM    6  C   UNL     1     -10.405   8.721  67.491  1.00  0.00    -0.268 A  
HETATM    7  C   UNL     1      -9.949   9.052  68.768  1.00  0.00    -0.194 A  
HETATM    8  C   UNL     1     -10.060   8.124  69.812  1.00  0.00    -0.197 A  
HETATM    9  C   UNL     1     -10.610   6.859  69.580  1.00  0.00    -0.258 A  
HETATM   10  C   UNL     1     -11.017   7.483  67.278  1.00  0.00    -0.178 A  
HETATM   11  C   UNL     1     -11.111   6.547  68.313  1.00  0.00    -0.332 A  
BRANCH   9  12
HETATM   12  C   UNL     1     -10.600   5.862  70.697  1.00  0.00    -0.268 C  
HETATM   13  O   UNL     1     -11.487   5.923  71.551  1.00  0.00    -0.252 OA 
BRANCH  12  14
HETATM   14  C   UNL     1      -9.478   4.847  70.785  1.00  0.00    -0.232 C  
BRANCH  14  15
HETATM   15  C   UNL     1      -9.705   3.734  69.759  1.00  0.00    -0.123 C  
BRANCH  15  16
HETATM   16  N   UNL     1      -8.538   3.360  68.947  1.00  0.00    -0.078 NA 
HETATM   17  C   UNL     1      -8.966   2.814  67.645  1.00  0.00    -0.161 C  
HETATM   18  C   UNL     1      -9.403   3.890  66.646  1.00  0.00    -0.201 C  
HETATM   19  C   UNL     1      -8.256   4.854  66.391  1.00  0.00    -0.108 C  
HETATM   20  C   UNL     1      -7.773   5.454  67.708  1.00  0.00    -0.092 C  
HETATM   21  C   UNL     1      -7.503   4.387  68.776  1.00  0.00    -0.060 C  
ENDBRANCH  15  16
ENDBRANCH  14  15
ENDBRANCH  12  14
ENDBRANCH   9  12
ENDBRANCH   5   6
ENDBRANCH   4   5
ENDBRANCH   3   4
ENDBRANCH   2   3
TORSDOF 8
ENDMDL
MODEL      209
REMARK 921   NORMALIZED FREE ENERGY PREDICTED BY IDOCK:   -3.13 KCAL/MOL
REMARK 922        TOTAL FREE ENERGY PREDICTED BY IDOCK:   -5.71 KCAL/MOL
REMARK 923 INTER-LIGAND FREE ENERGY PREDICTED BY IDOCK:   -4.80 KCAL/MOL
REMARK 924 INTRA-LIGAND FREE ENERGY PREDICTED BY IDOCK:   -0.91 KCAL/MOL
REMARK 927      BINDING AFFINITY PREDICTED BY RF-SCORE:    0.00 PKD
ROOT
HETATM    1  C   UNL     1     -12.086  13.690  66.248  1.00  0.00    -0.477 C  
HETATM    2  C   UNL     1     -10.956  13.626  67.263  1.00  0.00    -0.299 C  
ENDROOT
BRANCH   2   3
HETATM    3  C   UNL     1     -11.474  13.725  68.696  1.00  0.00    -0.336 C  
BRANCH   3   4
HETATM    4  C   UNL     1     -12.280  12.485  69.080  1.00  0.00    -0.004 C  
BRANCH   4   5
HETATM    5  O   UNL     1     -12.152  12.277  70.491  1.00  0.00    -0.364 OA 
BRANCH   5   6
HETATM    6  C   UNL     1     -11.875  10.988  70.867  1.00  0.00    -0.196 A  
HETATM    7  C   UNL     1     -10.852  10.205  70.331  1.00  0.00    -0.365 A  
HETATM    8  C   UNL     1     -10.661   8.895  70.789  1.00  0.00    -0.281 A  
HETATM    9  C   UNL     1     -11.501   8.358  71.770  1.00  0.00    -0.365 A  
HETATM   10  C   UNL     1     -12.669  10.474  71.895  1.00  0.00    -0.436 A  
HETATM   11  C   UNL     1     -12.494   9.159  72.341  1.00  0.00    -0.350 A  
BRANCH   9  12
HETATM   12  C   UNL     1     -11.332   6.917  72.143  1.00  0.00    -0.265 C  
HETATM   13  O   UNL     1     -12.319   6.289  72.530  1.00  0.00    -0.111 OA 
BRANCH  12  14
HETATM   14  C   UNL     1      -9.955   6.287  72.092  1.00  0.00    -0.184 C  
BRANCH  14  15
HETATM   15  C   UNL     1      -9.792   5.503  70.787  1.00  0.00    -0.188 C  
BRANCH  15  16
HETATM   16  N   UNL     1      -8.412   5.299  70.327  1.00  0.00    -0.108 NA 
HETATM   17  C   UNL     1      -8.372   5.133  68.862  1.00  0.00    -0.087 C  
HETATM   18  C   UNL     1      -8.506   6.452  68.095  1.00  0.00    -0.115 C  
HETATM   19  C   UNL     1      -7.378   7.394  68.487  1.00  0.00    -0.100 C  
HETATM   20  C   UNL     1      -7.373   7.605  69.998  1.00  0.00    -0.080 C  
HETATM   21  C   UNL     1      -7.419   6.284  70.776  1.00  0.00    -0.091 C  
ENDBRANCH  15  16
ENDBRANCH  14  15
ENDBRANCH  12  14
ENDBRANCH   9  12
ENDBRANCH   5   6
ENDBRANCH   4   5
ENDBRANCH   3   4
ENDBRANCH   2   3
TORSDOF 8
ENDMDL
MODEL      210
REMARK 921   NORMALIZED FREE ENERGY PREDICTED BY IDOCK:   -3.13 KCAL/MOL
REMARK 922        TOTAL FREE ENERGY PREDICTED BY IDOCK:   -5.71 KCAL/MOL
REMARK 923 INTER-LIGAND FREE ENERGY PREDICTED BY IDOCK:   -5.04 KCAL/MOL
REMARK 924 INTRA-LIGAND FREE ENERGY PREDICTED BY IDOCK:   -0.67 KCAL/MOL
REMARK 927      BINDING AFFINITY PREDICTED BY RF-SCORE:    0.00 PKD
ROOT
HETATM    1  C   UNL     1      -8.619   7.072  74.379  1.00  0.00    -0.212 C  
HETATM    2  C   UNL     1     -10.008   6.455  74.418  1.00  0.00    -0.362 C  
ENDROOT
BRANCH   2   3
HETATM    3  C   UNL     1      -9.955   4.931  74.318  1.00  0.00    -0.225 C  
BRANCH   3   4
HETATM    4  C   UNL     1     -10.696   4.432  73.079  1.00  0.00    -0.207 C  
BRANCH   4   5
HETATM    5  O   UNL     1     -11.645   5.428  72.684  1.00  0.00    -0.282 OA 
BRANCH   5   6
HETATM    6  C   UNL     1     -11.461   5.941  71.426  1.00  0.00    -0.121 A  
HETATM    7  C   UNL     1     -12.171   7.018  70.894  1.00  0.00    -0.388 A  
HETATM    8  C   UNL     1     -11.901   7.459  69.591  1.00  0.00     0.441 A  
HETATM    9  C   UNL     1     -10.936   6.814  68.811  1.00  0.00    -0.267 A  
HETATM   10  C   UNL     1     -10.449   5.342  70.670  1.00  0.00    -0.329 A  
HETATM   11  C   UNL     1     -10.191   5.767  69.362  1.00  0.00    -0.301 A  
BRANCH   9  12
HETATM   12  C   UNL     1     -10.766   7.244  67.387  1.00  0.00    -0.288 C  
HETATM   13  O   UNL     1     -10.879   6.399  66.497  1.00  0.00    -0.215 OA 
BRANCH  12  14
HETATM   14  C   UNL     1     -10.403   8.683  67.077  1.00  0.00    -0.368 C  
BRANCH  14  15
HETATM   15  C   UNL     1      -9.291   8.721  66.025  1.00  0.00    -0.232 C  
BRANCH  15  16
HETATM   16  N   UNL     1      -8.813  10.057  65.643  1.00  0.00    -0.153 NA 
HETATM   17  C   UNL     1      -8.177  10.020  64.312  1.00  0.00    -0.166 C  
HETATM   18  C   UNL     1      -9.182   9.972  63.157  1.00  0.00    -0.313 C  
HETATM   19  C   UNL     1     -10.084  11.195  63.206  1.00  0.00    -0.426 C  
HETATM   20  C   UNL     1     -10.772  11.284  64.564  1.00  0.00    -0.390 C  
HETATM   21  C   UNL     1      -9.788  11.152  65.733  1.00  0.00    -0.235 C  
ENDBRANCH  15  16
ENDBRANCH  14  15
ENDBRANCH  12  14
ENDBRANCH   9  12
ENDBRANCH   5   6
ENDBRANCH   4   5
ENDBRANCH   3   4
ENDBRANCH   2   3
TORSDOF 8
ENDMDL
MODEL      211
REMARK 921   NORMALIZED FREE ENERGY PREDICTED BY IDOCK:   -3.10 KCAL/MOL
REMARK 922        TOTAL FREE ENERGY PREDICTED BY IDOCK:   -5.67 KCAL/MOL
REMARK 923 INTER-LIGAND FREE ENERGY PREDICTED BY IDOCK:   -4.85 KCAL/MOL
REMARK 924 INTRA-LIGAND FREE ENERGY PREDICTED BY IDOCK:   -0.82 KCAL/MOL
REMARK 927      BINDING AFFINITY PREDICTED BY RF-SCORE:    0.00 PKD
ROOT
HETATM    1  C   UNL     1      -5.760   8.110  70.991  1.00  0.00    -0.033 C  
HETATM    2  C   UNL     1      -5.674   9.288  70.034  1.00  0.00    -0.035 C  
ENDROOT
BRANCH   2   3
HETATM    3  C   UNL     1      -6.347   8.984  68.697  1.00  0.00    -0.053 C  
BRANCH   3   4
HETATM    4  C   UNL     1      -7.791   8.526  68.896  1.00  0.00    -0.109 C  
BRANCH   4   5
HETATM    5  O   UNL     1      -8.459   8.564  67.630  1.00  0.00    -0.127 OA 
BRANCH   5   6
HETATM    6  C   UNL     1      -9.313   9.622  67.455  1.00  0.00    -0.134 A  
HETATM    7  C   UNL     1      -9.750  10.095  66.217  1.00  0.00    -0.274 A  
HETATM    8  C   UNL     1     -10.624  11.189  66.155  1.00  0.00    -0.305 A  
HETATM    9  C   UNL     1     -11.050  11.822  67.327  1.00  0.00    -0.342 A  
HETATM   10  C   UNL     1      -9.794  10.212  68.626  1.00  0.00    -0.170 A  
HETATM   11  C   UNL     1     -10.652  11.317  68.568  1.00  0.00    -0.227 A  
BRANCH   9  12
HETATM   12  C   UNL     1     -11.889  13.057  67.206  1.00  0.00    -0.363 C  
HETATM   13  O   UNL     1     -12.534  13.233  66.171  1.00  0.00    -0.379 OA 
BRANCH  12  14
HETATM   14  C   UNL     1     -11.879  14.081  68.323  1.00  0.00    -0.406 C  
BRANCH  14  15
HETATM   15  C   UNL     1     -11.240  15.381  67.827  1.00  0.00    -0.321 C  
BRANCH  15  16
HETATM   16  N   UNL     1      -9.914  15.696  68.376  1.00  0.00    -0.208 NA 
HETATM   17  C   UNL     1      -8.852  15.105  67.539  1.00  0.00    -0.182 C  
HETATM   18  C   UNL     1      -8.583  15.890  66.252  1.00  0.00    -0.348 C  
HETATM   19  C   UNL     1      -8.168  17.313  66.592  1.00  0.00    -0.296 C  
HETATM   20  C   UNL     1      -9.234  17.976  67.459  1.00  0.00    -0.253 C  
HETATM   21  C   UNL     1      -9.640  17.112  68.658  1.00  0.00    -0.281 C  
ENDBRANCH  15  16
ENDBRANCH  14  15
ENDBRANCH  12  14
ENDBRANCH   9  12
ENDBRANCH   5   6
ENDBRANCH   4   5
ENDBRANCH   3   4
ENDBRANCH   2   3
TORSDOF 8
ENDMDL
MODEL      212
REMARK 921   NORMALIZED FREE ENERGY PREDICTED BY IDOCK:   -3.09 KCAL/MOL
REMARK 922        TOTAL FREE ENERGY PREDICTED BY IDOCK:   -5.65 KCAL/MOL
REMARK 923 INTER-LIGAND FREE ENERGY PREDICTED BY IDOCK:   -4.15 KCAL/MOL
REMARK 924 INTRA-LIGAND FREE ENERGY PREDICTED BY IDOCK:   -1.50 KCAL/MOL
REMARK 927      BINDING AFFINITY PREDICTED BY RF-SCORE:    0.00 PKD
ROOT
HETATM    1  C   UNL     1     -12.631  12.049  71.376  1.00  0.00    -0.330 C  
HETATM    2  C   UNL     1     -12.689  13.516  70.981  1.00  0.00    -0.399 C  
ENDROOT
BRANCH   2   3
HETATM    3  C   UNL     1     -11.814  13.811  69.765  1.00  0.00    -0.394 C  
BRANCH   3   4
HETATM    4  C   UNL     1     -12.112  12.843  68.621  1.00  0.00    -0.135 C  
BRANCH   4   5
HETATM    5  O   UNL     1     -10.888  12.562  67.932  1.00  0.00    -0.210 OA 
BRANCH   5   6
HETATM    6  C   UNL     1     -10.656  11.235  67.678  1.00  0.00    -0.213 A  
HETATM    7  C   UNL     1     -10.237  10.721  66.450  1.00  0.00    -0.294 A  
HETATM    8  C   UNL     1     -10.032   9.343  66.301  1.00  0.00    -0.353 A  
HETATM    9  C   UNL     1     -10.262   8.474  67.372  1.00  0.00    -0.329 A  
HETATM   10  C   UNL     1     -10.818  10.372  68.766  1.00  0.00    -0.269 A  
HETATM   11  C   UNL     1     -10.634   8.993  68.615  1.00  0.00    -0.194 A  
BRANCH   9  12
HETATM   12  C   UNL     1     -10.143   7.000  67.133  1.00  0.00    -0.217 C  
HETATM   13  O   UNL     1     -11.115   6.396  66.676  1.00  0.00    -0.292 OA 
BRANCH  12  14
HETATM   14  C   UNL     1      -8.863   6.281  67.509  1.00  0.00    -0.103 C  
BRANCH  14  15
HETATM   15  C   UNL     1      -7.771   6.596  66.483  1.00  0.00    -0.102 C  
BRANCH  15  16
HETATM   16  N   UNL     1      -6.467   6.991  67.032  1.00  0.00    -0.048 NA 
HETATM   17  C   UNL     1      -5.781   7.925  66.119  1.00  0.00    -0.037 C  
HETATM   18  C   UNL     1      -6.322   9.356  66.189  1.00  0.00    -0.068 C  
HETATM   19  C   UNL     1      -6.173   9.895  67.602  1.00  0.00    -0.059 C  
HETATM   20  C   UNL     1      -6.869   8.967  68.593  1.00  0.00    -0.063 C  
HETATM   21  C   UNL     1      -6.464   7.500  68.410  1.00  0.00    -0.045 C  
ENDBRANCH  15  16
ENDBRANCH  14  15
ENDBRANCH  12  14
ENDBRANCH   9  12
ENDBRANCH   5   6
ENDBRANCH   4   5
ENDBRANCH   3   4
ENDBRANCH   2   3
TORSDOF 8
ENDMDL
MODEL      213
REMARK 921   NORMALIZED FREE ENERGY PREDICTED BY IDOCK:   -3.08 KCAL/MOL
REMARK 922        TOTAL FREE ENERGY PREDICTED BY IDOCK:   -5.64 KCAL/MOL
REMARK 923 INTER-LIGAND FREE ENERGY PREDICTED BY IDOCK:   -4.73 KCAL/MOL
REMARK 924 INTRA-LIGAND FREE ENERGY PREDICTED BY IDOCK:   -0.91 KCAL/MOL
REMARK 927      BINDING AFFINITY PREDICTED BY RF-SCORE:    0.00 PKD
ROOT
HETATM    1  C   UNL     1     -10.724  15.561  67.169  1.00  0.00    -0.315 C  
HETATM    2  C   UNL     1     -11.088  16.277  68.459  1.00  0.00    -0.368 C  
ENDROOT
BRANCH   2   3
HETATM    3  C   UNL     1     -12.125  15.498  69.267  1.00  0.00    -0.284 C  
BRANCH   3   4
HETATM    4  C   UNL     1     -11.475  14.358  70.049  1.00  0.00    -0.238 C  
BRANCH   4   5
HETATM    5  O   UNL     1     -12.338  13.216  69.991  1.00  0.00    -0.262 OA 
BRANCH   5   6
HETATM    6  C   UNL     1     -11.775  12.089  69.450  1.00  0.00    -0.340 A  
HETATM    7  C   UNL     1     -11.331  11.974  68.132  1.00  0.00    -0.349 A  
HETATM    8  C   UNL     1     -10.772  10.770  67.685  1.00  0.00    -0.305 A  
HETATM    9  C   UNL     1     -10.672   9.673  68.546  1.00  0.00    -0.239 A  
HETATM   10  C   UNL     1     -11.610  11.014  70.328  1.00  0.00    -0.414 A  
HETATM   11  C   UNL     1     -11.071   9.803  69.879  1.00  0.00    -0.293 A  
BRANCH   9  12
HETATM   12  C   UNL     1     -10.177   8.373  67.991  1.00  0.00    -0.212 C  
HETATM   13  O   UNL     1     -10.976   7.638  67.407  1.00  0.00    -0.207 OA 
BRANCH  12  14
HETATM   14  C   UNL     1      -8.733   7.966  68.208  1.00  0.00    -0.130 C  
BRANCH  14  15
HETATM   15  C   UNL     1      -7.857   8.558  67.100  1.00  0.00    -0.097 C  
BRANCH  15  16
HETATM   16  N   UNL     1      -8.458   8.603  65.760  1.00  0.00    -0.142 NA 
HETATM   17  C   UNL     1      -8.174   9.895  65.107  1.00  0.00    -0.144 C  
HETATM   18  C   UNL     1      -6.751   9.997  64.548  1.00  0.00    -0.128 C  
HETATM   19  C   UNL     1      -6.520   8.898  63.523  1.00  0.00    -0.089 C  
HETATM   20  C   UNL     1      -6.797   7.533  64.147  1.00  0.00    -0.056 C  
HETATM   21  C   UNL     1      -8.151   7.479  64.866  1.00  0.00    -0.121 C  
ENDBRANCH  15  16
ENDBRANCH  14  15
ENDBRANCH  12  14
ENDBRANCH   9  12
ENDBRANCH   5   6
ENDBRANCH   4   5
ENDBRANCH   3   4
ENDBRANCH   2   3
TORSDOF 8
ENDMDL
MODEL      214
REMARK 921   NORMALIZED FREE ENERGY PREDICTED BY IDOCK:   -3.07 KCAL/MOL
REMARK 922        TOTAL FREE ENERGY PREDICTED BY IDOCK:   -5.63 KCAL/MOL
REMARK 923 INTER-LIGAND FREE ENERGY PREDICTED BY IDOCK:   -4.44 KCAL/MOL
REMARK 924 INTRA-LIGAND FREE ENERGY PREDICTED BY IDOCK:   -1.19 KCAL/MOL
REMARK 927      BINDING AFFINITY PREDICTED BY RF-SCORE:    0.00 PKD
ROOT
HETATM    1  C   UNL     1      -8.566   4.254  70.538  1.00  0.00    -0.109 C  
HETATM    2  C   UNL     1      -7.366   3.432  70.095  1.00  0.00    -0.041 C  
ENDROOT
BRANCH   2   3
HETATM    3  C   UNL     1      -7.196   3.447  68.577  1.00  0.00    -0.050 C  
BRANCH   3   4
HETATM    4  C   UNL     1      -8.273   4.300  67.908  1.00  0.00    -0.094 C  
BRANCH   4   5
HETATM    5  O   UNL     1      -7.669   5.509  67.437  1.00  0.00    -0.097 OA 
BRANCH   5   6
HETATM    6  C   UNL     1      -8.416   6.643  67.620  1.00  0.00    -0.121 A  
HETATM    7  C   UNL     1      -7.901   7.940  67.648  1.00  0.00    -0.122 A  
HETATM    8  C   UNL     1      -8.760   9.030  67.845  1.00  0.00    -0.129 A  
HETATM    9  C   UNL     1     -10.131   8.826  68.032  1.00  0.00    -0.241 A  
HETATM   10  C   UNL     1      -9.795   6.447  67.737  1.00  0.00    -0.136 A  
HETATM   11  C   UNL     1     -10.653   7.531  67.954  1.00  0.00    -0.250 A  
BRANCH   9  12
HETATM   12  C   UNL     1     -10.991  10.009  68.355  1.00  0.00    -0.217 C  
HETATM   13  O   UNL     1     -11.152  10.874  67.493  1.00  0.00    -0.279 OA 
BRANCH  12  14
HETATM   14  C   UNL     1     -11.589  10.143  69.741  1.00  0.00    -0.245 C  
BRANCH  14  15
HETATM   15  C   UNL     1     -10.619   9.574  70.781  1.00  0.00    -0.317 C  
BRANCH  15  16
HETATM   16  N   UNL     1     -11.229   9.051  72.011  1.00  0.00    -0.356 NA 
HETATM   17  C   UNL     1     -12.554   8.468  71.725  1.00  0.00    -0.346 C  
HETATM   18  C   UNL     1     -12.484   7.078  71.086  1.00  0.00    -0.407 C  
HETATM   19  C   UNL     1     -11.745   6.122  72.008  1.00  0.00    -0.354 C  
HETATM   20  C   UNL     1     -10.361   6.675  72.336  1.00  0.00    -0.217 C  
HETATM   21  C   UNL     1     -10.407   8.132  72.810  1.00  0.00    -0.313 C  
ENDBRANCH  15  16
ENDBRANCH  14  15
ENDBRANCH  12  14
ENDBRANCH   9  12
ENDBRANCH   5   6
ENDBRANCH   4   5
ENDBRANCH   3   4
ENDBRANCH   2   3
TORSDOF 8
ENDMDL
MODEL      215
REMARK 921   NORMALIZED FREE ENERGY PREDICTED BY IDOCK:   -3.06 KCAL/MOL
REMARK 922        TOTAL FREE ENERGY PREDICTED BY IDOCK:   -5.62 KCAL/MOL
REMARK 923 INTER-LIGAND FREE ENERGY PREDICTED BY IDOCK:   -5.32 KCAL/MOL
REMARK 924 INTRA-LIGAND FREE ENERGY PREDICTED BY IDOCK:   -0.30 KCAL/MOL
REMARK 927      BINDING AFFINITY PREDICTED BY RF-SCORE:    0.00 PKD
ROOT
HETATM    1  C   UNL     1      -8.812  18.680  66.610  1.00  0.00    -0.305 C  
HETATM    2  C   UNL     1      -9.799  19.301  67.586  1.00  0.00    -0.429 C  
ENDROOT
BRANCH   2   3
HETATM    3  C   UNL     1     -10.650  18.241  68.284  1.00  0.00    -0.249 C  
BRANCH   3   4
HETATM    4  C   UNL     1     -10.223  16.832  67.876  1.00  0.00    -0.300 C  
BRANCH   4   5
HETATM    5  O   UNL     1     -11.360  15.967  67.967  1.00  0.00    -0.340 OA 
BRANCH   5   6
HETATM    6  C   UNL     1     -11.069  14.640  68.148  1.00  0.00    -0.274 A  
HETATM    7  C   UNL     1      -9.905  14.155  68.745  1.00  0.00    -0.168 A  
HETATM    8  C   UNL     1      -9.709  12.773  68.877  1.00  0.00     0.185 A  
HETATM    9  C   UNL     1     -10.666  11.874  68.397  1.00  0.00    -0.248 A  
HETATM   10  C   UNL     1     -12.055  13.741  67.732  1.00  0.00    -0.325 A  
HETATM   11  C   UNL     1     -11.854  12.361  67.844  1.00  0.00    -0.370 A  
BRANCH   9  12
HETATM   12  C   UNL     1     -10.361  10.409  68.454  1.00  0.00    -0.174 C  
HETATM   13  O   UNL     1     -10.496   9.738  67.429  1.00  0.00    -0.227 OA 
BRANCH  12  14
HETATM   14  C   UNL     1      -9.953   9.780  69.771  1.00  0.00    -0.265 C  
BRANCH  14  15
HETATM   15  C   UNL     1     -11.174   9.663  70.689  1.00  0.00    -0.320 C  
BRANCH  15  16
HETATM   16  N   UNL     1     -11.221   8.472  71.548  1.00  0.00    -0.261 NA 
HETATM   17  C   UNL     1     -12.187   7.490  71.021  1.00  0.00    -0.259 C  
HETATM   18  C   UNL     1     -11.656   6.692  69.826  1.00  0.00    -0.354 C  
HETATM   19  C   UNL     1     -10.399   5.937  70.227  1.00  0.00    -0.298 C  
HETATM   20  C   UNL     1      -9.359   6.907  70.779  1.00  0.00    -0.161 C  
HETATM   21  C   UNL     1      -9.933   7.835  71.857  1.00  0.00    -0.174 C  
ENDBRANCH  15  16
ENDBRANCH  14  15
ENDBRANCH  12  14
ENDBRANCH   9  12
ENDBRANCH   5   6
ENDBRANCH   4   5
ENDBRANCH   3   4
ENDBRANCH   2   3
TORSDOF 8
ENDMDL
MODEL      216
REMARK 921   NORMALIZED FREE ENERGY PREDICTED BY IDOCK:   -3.04 KCAL/MOL
REMARK 922        TOTAL FREE ENERGY PREDICTED BY IDOCK:   -5.59 KCAL/MOL
REMARK 923 INTER-LIGAND FREE ENERGY PREDICTED BY IDOCK:   -4.64 KCAL/MOL
REMARK 924 INTRA-LIGAND FREE ENERGY PREDICTED BY IDOCK:   -0.95 KCAL/MOL
REMARK 927      BINDING AFFINITY PREDICTED BY RF-SCORE:    0.00 PKD
ROOT
HETATM    1  C   UNL     1      -5.757  14.383  70.516  1.00  0.00    -0.158 C  
HETATM    2  C   UNL     1      -6.145  13.266  69.560  1.00  0.00    -0.112 C  
ENDROOT
BRANCH   2   3
HETATM    3  C   UNL     1      -5.856  11.887  70.152  1.00  0.00    -0.157 C  
BRANCH   3   4
HETATM    4  C   UNL     1      -6.917  10.872  69.729  1.00  0.00    -0.120 C  
BRANCH   4   5
HETATM    5  O   UNL     1      -6.392  10.087  68.653  1.00  0.00    -0.048 OA 
BRANCH   5   6
HETATM    6  C   UNL     1      -7.135  10.109  67.501  1.00  0.00    -0.087 A  
HETATM    7  C   UNL     1      -8.483   9.759  67.417  1.00  0.00    -0.121 A  
HETATM    8  C   UNL     1      -9.145   9.816  66.183  1.00  0.00    -0.198 A  
HETATM    9  C   UNL     1      -8.458  10.205  65.028  1.00  0.00    -0.169 A  
HETATM   10  C   UNL     1      -6.469  10.563  66.359  1.00  0.00    -0.105 A  
HETATM   11  C   UNL     1      -7.121  10.602  65.122  1.00  0.00     0.064 A  
BRANCH   9  12
HETATM   12  C   UNL     1      -9.175  10.138  63.715  1.00  0.00    -0.281 C  
HETATM   13  O   UNL     1      -8.880   9.237  62.927  1.00  0.00    -0.230 OA 
BRANCH  12  14
HETATM   14  C   UNL     1     -10.194  11.203  63.363  1.00  0.00    -0.435 C  
BRANCH  14  15
HETATM   15  C   UNL     1      -9.915  12.474  64.170  1.00  0.00    -0.199 C  
BRANCH  15  16
HETATM   16  N   UNL     1     -11.078  13.328  64.447  1.00  0.00    -0.367 NA 
HETATM   17  C   UNL     1     -12.150  12.550  65.096  1.00  0.00    -0.446 C  
HETATM   18  C   UNL     1     -11.900  12.288  66.584  1.00  0.00    -0.362 C  
HETATM   19  C   UNL     1     -11.771  13.609  67.325  1.00  0.00    -0.416 C  
HETATM   20  C   UNL     1     -10.670  14.458  66.697  1.00  0.00    -0.292 C  
HETATM   21  C   UNL     1     -10.814  14.577  65.175  1.00  0.00    -0.395 C  
ENDBRANCH  15  16
ENDBRANCH  14  15
ENDBRANCH  12  14
ENDBRANCH   9  12
ENDBRANCH   5   6
ENDBRANCH   4   5
ENDBRANCH   3   4
ENDBRANCH   2   3
TORSDOF 8
ENDMDL
MODEL      217
REMARK 921   NORMALIZED FREE ENERGY PREDICTED BY IDOCK:   -3.02 KCAL/MOL
REMARK 922        TOTAL FREE ENERGY PREDICTED BY IDOCK:   -5.56 KCAL/MOL
REMARK 923 INTER-LIGAND FREE ENERGY PREDICTED BY IDOCK:   -4.86 KCAL/MOL
REMARK 924 INTRA-LIGAND FREE ENERGY PREDICTED BY IDOCK:   -0.70 KCAL/MOL
REMARK 927      BINDING AFFINITY PREDICTED BY RF-SCORE:    0.00 PKD
ROOT
HETATM    1  C   UNL     1     -14.379  14.967  72.317  1.00  0.00    -0.540 C  
HETATM    2  C   UNL     1     -13.133  15.692  71.834  1.00  0.00    -0.545 C  
ENDROOT
BRANCH   2   3
HETATM    3  C   UNL     1     -12.045  14.716  71.391  1.00  0.00    -0.416 C  
BRANCH   3   4
HETATM    4  C   UNL     1     -12.285  14.231  69.963  1.00  0.00    -0.359 C  
BRANCH   4   5
HETATM    5  O   UNL     1     -12.455  12.810  69.987  1.00  0.00    -0.145 OA 
BRANCH   5   6
HETATM    6  C   UNL     1     -11.591  12.106  69.187  1.00  0.00    -0.319 A  
HETATM    7  C   UNL     1     -10.926  10.940  69.568  1.00  0.00    -0.306 A  
HETATM    8  C   UNL     1     -10.061  10.303  68.668  1.00  0.00    -0.187 A  
HETATM    9  C   UNL     1      -9.845  10.838  67.395  1.00  0.00    -0.204 A  
HETATM   10  C   UNL     1     -11.427  12.601  67.891  1.00  0.00    -0.360 A  
HETATM   11  C   UNL     1     -10.549  11.978  66.997  1.00  0.00    -0.258 A  
BRANCH   9  12
HETATM   12  C   UNL     1      -8.824  10.189  66.512  1.00  0.00    -0.140 C  
HETATM   13  O   UNL     1      -7.642  10.516  66.638  1.00  0.00    -0.109 OA 
BRANCH  12  14
HETATM   14  C   UNL     1      -9.269   9.198  65.454  1.00  0.00    -0.266 C  
BRANCH  14  15
HETATM   15  C   UNL     1      -9.346   7.794  66.060  1.00  0.00    -0.037 C  
BRANCH  15  16
HETATM   16  N   UNL     1      -8.179   6.931  65.835  1.00  0.00    -0.123 NA 
HETATM   17  C   UNL     1      -7.386   6.797  67.072  1.00  0.00    -0.082 C  
HETATM   18  C   UNL     1      -7.996   5.824  68.085  1.00  0.00    -0.104 C  
HETATM   19  C   UNL     1      -8.123   4.443  67.462  1.00  0.00    -0.099 C  
HETATM   20  C   UNL     1      -8.939   4.521  66.175  1.00  0.00    -0.120 C  
HETATM   21  C   UNL     1      -8.441   5.619  65.228  1.00  0.00    -0.147 C  
ENDBRANCH  15  16
ENDBRANCH  14  15
ENDBRANCH  12  14
ENDBRANCH   9  12
ENDBRANCH   5   6
ENDBRANCH   4   5
ENDBRANCH   3   4
ENDBRANCH   2   3
TORSDOF 8
ENDMDL
MODEL      218
REMARK 921   NORMALIZED FREE ENERGY PREDICTED BY IDOCK:   -3.01 KCAL/MOL
REMARK 922        TOTAL FREE ENERGY PREDICTED BY IDOCK:   -5.53 KCAL/MOL
REMARK 923 INTER-LIGAND FREE ENERGY PREDICTED BY IDOCK:   -4.81 KCAL/MOL
REMARK 924 INTRA-LIGAND FREE ENERGY PREDICTED BY IDOCK:   -0.72 KCAL/MOL
REMARK 927      BINDING AFFINITY PREDICTED BY RF-SCORE:    0.00 PKD
ROOT
HETATM    1  C   UNL     1      -5.159  18.380  65.161  1.00  0.00    -0.204 C  
HETATM    2  C   UNL     1      -6.304  19.359  64.958  1.00  0.00    -0.305 C  
ENDROOT
BRANCH   2   3
HETATM    3  C   UNL     1      -6.982  19.721  66.279  1.00  0.00    -0.247 C  
BRANCH   3   4
HETATM    4  C   UNL     1      -7.575  18.485  66.953  1.00  0.00    -0.221 C  
BRANCH   4   5
HETATM    5  O   UNL     1      -8.701  18.044  66.186  1.00  0.00    -0.459 OA 
BRANCH   5   6
HETATM    6  C   UNL     1      -9.029  16.722  66.340  1.00  0.00    -0.289 A  
HETATM    7  C   UNL     1      -9.993  16.048  65.589  1.00  0.00    -0.346 A  
HETATM    8  C   UNL     1     -10.250  14.693  65.834  1.00  0.00    -0.344 A  
HETATM    9  C   UNL     1      -9.558  14.013  66.842  1.00  0.00    -0.275 A  
HETATM   10  C   UNL     1      -8.291  16.023  67.299  1.00  0.00    -0.205 A  
HETATM   11  C   UNL     1      -8.558  14.675  67.560  1.00  0.00    -0.196 A  
BRANCH   9  12
HETATM   12  C   UNL     1      -9.948  12.599  67.146  1.00  0.00    -0.217 C  
HETATM   13  O   UNL     1      -9.958  12.230  68.322  1.00  0.00    -0.208 OA 
BRANCH  12  14
HETATM   14  C   UNL     1     -10.263  11.648  66.009  1.00  0.00    -0.270 C  
BRANCH  14  15
HETATM   15  C   UNL     1      -9.010  10.846  65.643  1.00  0.00    -0.194 C  
BRANCH  15  16
HETATM   16  N   UNL     1      -9.238   9.460  65.210  1.00  0.00    -0.237 NA 
HETATM   17  C   UNL     1      -8.497   9.178  63.965  1.00  0.00    -0.184 C  
HETATM   18  C   UNL     1      -7.001   8.937  64.186  1.00  0.00    -0.089 C  
HETATM   19  C   UNL     1      -6.802   7.756  65.123  1.00  0.00    -0.051 C  
HETATM   20  C   UNL     1      -7.546   7.995  66.433  1.00  0.00    -0.091 C  
HETATM   21  C   UNL     1      -9.005   8.413  66.213  1.00  0.00    -0.174 C  
ENDBRANCH  15  16
ENDBRANCH  14  15
ENDBRANCH  12  14
ENDBRANCH   9  12
ENDBRANCH   5   6
ENDBRANCH   4   5
ENDBRANCH   3   4
ENDBRANCH   2   3
TORSDOF 8
ENDMDL
MODEL      219
REMARK 921   NORMALIZED FREE ENERGY PREDICTED BY IDOCK:   -2.89 KCAL/MOL
REMARK 922        TOTAL FREE ENERGY PREDICTED BY IDOCK:   -5.36 KCAL/MOL
REMARK 923 INTER-LIGAND FREE ENERGY PREDICTED BY IDOCK:   -4.63 KCAL/MOL
REMARK 924 INTRA-LIGAND FREE ENERGY PREDICTED BY IDOCK:   -0.73 KCAL/MOL
REMARK 927      BINDING AFFINITY PREDICTED BY RF-SCORE:    0.00 PKD
ROOT
HETATM    1  C   UNL     1     -13.161  12.603  71.717  1.00  0.00    -0.461 C  
HETATM    2  C   UNL     1     -12.783  13.855  70.941  1.00  0.00    -0.410 C  
ENDROOT
BRANCH   2   3
HETATM    3  C   UNL     1     -11.595  13.611  70.013  1.00  0.00    -0.250 C  
BRANCH   3   4
HETATM    4  C   UNL     1     -11.720  12.268  69.296  1.00  0.00    -0.330 C  
BRANCH   4   5
HETATM    5  O   UNL     1     -10.440  11.628  69.301  1.00  0.00    -0.126 OA 
BRANCH   5   6
HETATM    6  C   UNL     1     -10.460  10.289  69.596  1.00  0.00    -0.253 A  
HETATM    7  C   UNL     1      -9.817   9.300  68.850  1.00  0.00    -0.170 A  
HETATM    8  C   UNL     1      -9.906   7.958  69.243  1.00  0.00    -0.177 A  
HETATM    9  C   UNL     1     -10.652   7.599  70.370  1.00  0.00    -0.233 A  
HETATM   10  C   UNL     1     -11.146   9.936  70.760  1.00  0.00    -0.417 A  
HETATM   11  C   UNL     1     -11.254   8.594  71.145  1.00  0.00    -0.329 A  
BRANCH   9  12
HETATM   12  C   UNL     1     -10.815   6.143  70.683  1.00  0.00    -0.292 C  
HETATM   13  O   UNL     1     -10.995   5.356  69.752  1.00  0.00    -0.246 OA 
BRANCH  12  14
HETATM   14  C   UNL     1     -10.815   5.683  72.127  1.00  0.00    -0.300 C  
BRANCH  14  15
HETATM   15  C   UNL     1      -9.562   6.204  72.836  1.00  0.00    -0.154 C  
BRANCH  15  16
HETATM   16  N   UNL     1      -8.448   5.253  72.955  1.00  0.00    -0.116 NA 
HETATM   17  C   UNL     1      -7.508   5.413  71.829  1.00  0.00    -0.092 C  
HETATM   18  C   UNL     1      -6.581   6.624  71.975  1.00  0.00    -0.054 C  
HETATM   19  C   UNL     1      -5.762   6.496  73.250  1.00  0.00    -0.046 C  
HETATM   20  C   UNL     1      -6.687   6.330  74.452  1.00  0.00    -0.082 C  
HETATM   21  C   UNL     1      -7.737   5.233  74.240  1.00  0.00    -0.093 C  
ENDBRANCH  15  16
ENDBRANCH  14  15
ENDBRANCH  12  14
ENDBRANCH   9  12
ENDBRANCH   5   6
ENDBRANCH   4   5
ENDBRANCH   3   4
ENDBRANCH   2   3
TORSDOF 8
ENDMDL
MODEL      220
REMARK 921   NORMALIZED FREE ENERGY PREDICTED BY IDOCK:   -2.88 KCAL/MOL
REMARK 922        TOTAL FREE ENERGY PREDICTED BY IDOCK:   -5.35 KCAL/MOL
REMARK 923 INTER-LIGAND FREE ENERGY PREDICTED BY IDOCK:   -4.45 KCAL/MOL
REMARK 924 INTRA-LIGAND FREE ENERGY PREDICTED BY IDOCK:   -0.90 KCAL/MOL
REMARK 927      BINDING AFFINITY PREDICTED BY RF-SCORE:    0.00 PKD
ROOT
HETATM    1  C   UNL     1     -10.469  16.189  68.182  1.00  0.00    -0.279 C  
HETATM    2  C   UNL     1     -10.331  14.900  67.390  1.00  0.00    -0.243 C  
ENDROOT
BRANCH   2   3
HETATM    3  C   UNL     1     -11.691  14.291  67.054  1.00  0.00    -0.427 C  
BRANCH   3   4
HETATM    4  C   UNL     1     -11.537  12.913  66.411  1.00  0.00    -0.371 C  
BRANCH   4   5
HETATM    5  O   UNL     1     -12.256  11.959  67.199  1.00  0.00    -0.501 OA 
BRANCH   5   6
HETATM    6  C   UNL     1     -11.506  11.295  68.136  1.00  0.00    -0.306 A  
HETATM    7  C   UNL     1     -11.921  11.024  69.440  1.00  0.00    -0.408 A  
HETATM    8  C   UNL     1     -11.069  10.338  70.317  1.00  0.00    -0.388 A  
HETATM    9  C   UNL     1      -9.796   9.938  69.898  1.00  0.00    -0.285 A  
HETATM   10  C   UNL     1     -10.262  10.834  67.699  1.00  0.00    -0.221 A  
HETATM   11  C   UNL     1      -9.400  10.167  68.577  1.00  0.00    -0.151 A  
BRANCH   9  12
HETATM   12  C   UNL     1      -8.878   9.314  70.904  1.00  0.00    -0.188 C  
HETATM   13  O   UNL     1      -9.372   8.691  71.846  1.00  0.00    -0.244 OA 
BRANCH  12  14
HETATM   14  C   UNL     1      -7.381   9.510  70.775  1.00  0.00    -0.103 C  
BRANCH  14  15
HETATM   15  C   UNL     1      -6.709   8.171  70.457  1.00  0.00    -0.037 C  
BRANCH  15  16
HETATM   16  N   UNL     1      -5.654   8.208  69.435  1.00  0.00    -0.030 NA 
HETATM   17  C   UNL     1      -5.838   7.115  68.460  1.00  0.00    -0.022 C  
HETATM   18  C   UNL     1      -6.939   7.394  67.433  1.00  0.00    -0.079 C  
HETATM   19  C   UNL     1      -6.613   8.659  66.656  1.00  0.00    -0.060 C  
HETATM   20  C   UNL     1      -6.414   9.827  67.617  1.00  0.00    -0.067 C  
HETATM   21  C   UNL     1      -5.444   9.493  68.757  1.00  0.00    -0.037 C  
ENDBRANCH  15  16
ENDBRANCH  14  15
ENDBRANCH  12  14
ENDBRANCH   9  12
ENDBRANCH   5   6
ENDBRANCH   4   5
ENDBRANCH   3   4
ENDBRANCH   2   3
TORSDOF 8
ENDMDL
MODEL      221
REMARK 921   NORMALIZED FREE ENERGY PREDICTED BY IDOCK:   -2.88 KCAL/MOL
REMARK 922        TOTAL FREE ENERGY PREDICTED BY IDOCK:   -5.34 KCAL/MOL
REMARK 923 INTER-LIGAND FREE ENERGY PREDICTED BY IDOCK:   -5.05 KCAL/MOL
REMARK 924 INTRA-LIGAND FREE ENERGY PREDICTED BY IDOCK:   -0.29 KCAL/MOL
REMARK 927      BINDING AFFINITY PREDICTED BY RF-SCORE:    0.00 PKD
ROOT
HETATM    1  C   UNL     1     -10.764   5.154  71.689  1.00  0.00    -0.181 C  
HETATM    2  C   UNL     1     -11.037   5.676  73.090  1.00  0.00    -0.315 C  
ENDROOT
BRANCH   2   3
HETATM    3  C   UNL     1     -11.466   7.142  73.077  1.00  0.00    -0.121 C  
BRANCH   3   4
HETATM    4  C   UNL     1     -10.306   8.053  72.680  1.00  0.00    -0.329 C  
BRANCH   4   5
HETATM    5  O   UNL     1     -10.049   7.881  71.282  1.00  0.00    -0.179 OA 
BRANCH   5   6
HETATM    6  C   UNL     1     -10.012   9.039  70.549  1.00  0.00    -0.215 A  
HETATM    7  C   UNL     1      -8.844   9.683  70.138  1.00  0.00    -0.266 A  
HETATM    8  C   UNL     1      -8.924  10.868  69.393  1.00  0.00     0.104 A  
HETATM    9  C   UNL     1     -10.169  11.420  69.073  1.00  0.00    -0.137 A  
HETATM   10  C   UNL     1     -11.254   9.555  70.169  1.00  0.00    -0.275 A  
HETATM   11  C   UNL     1     -11.337  10.748  69.443  1.00  0.00    -0.351 A  
BRANCH   9  12
HETATM   12  C   UNL     1     -10.203  12.746  68.378  1.00  0.00    -0.236 C  
HETATM   13  O   UNL     1     -10.909  13.640  68.848  1.00  0.00    -0.247 OA 
BRANCH  12  14
HETATM   14  C   UNL     1      -9.423  12.939  67.092  1.00  0.00    -0.229 C  
BRANCH  14  15
HETATM   15  C   UNL     1     -10.135  12.219  65.943  1.00  0.00    -0.251 C  
BRANCH  15  16
HETATM   16  N   UNL     1     -10.168  12.934  64.660  1.00  0.00    -0.320 NA 
HETATM   17  C   UNL     1     -11.353  12.538  63.875  1.00  0.00    -0.438 C  
HETATM   18  C   UNL     1     -12.650  13.197  64.355  1.00  0.00    -0.315 C  
HETATM   19  C   UNL     1     -12.522  14.709  64.271  1.00  0.00    -0.267 C  
HETATM   20  C   UNL     1     -11.309  15.178  65.070  1.00  0.00    -0.381 C  
HETATM   21  C   UNL     1     -10.037  14.396  64.721  1.00  0.00    -0.103 C  
ENDBRANCH  15  16
ENDBRANCH  14  15
ENDBRANCH  12  14
ENDBRANCH   9  12
ENDBRANCH   5   6
ENDBRANCH   4   5
ENDBRANCH   3   4
ENDBRANCH   2   3
TORSDOF 8
ENDMDL
MODEL      222
REMARK 921   NORMALIZED FREE ENERGY PREDICTED BY IDOCK:   -2.88 KCAL/MOL
REMARK 922        TOTAL FREE ENERGY PREDICTED BY IDOCK:   -5.34 KCAL/MOL
REMARK 923 INTER-LIGAND FREE ENERGY PREDICTED BY IDOCK:   -5.53 KCAL/MOL
REMARK 924 INTRA-LIGAND FREE ENERGY PREDICTED BY IDOCK:    0.19 KCAL/MOL
REMARK 927      BINDING AFFINITY PREDICTED BY RF-SCORE:    0.00 PKD
ROOT
HETATM    1  C   UNL     1      -5.405  17.998  65.353  1.00  0.00    -0.159 C  
HETATM    2  C   UNL     1      -5.612  19.324  64.640  1.00  0.00    -0.281 C  
ENDROOT
BRANCH   2   3
HETATM    3  C   UNL     1      -6.816  20.085  65.194  1.00  0.00    -0.294 C  
BRANCH   3   4
HETATM    4  C   UNL     1      -6.569  20.539  66.632  1.00  0.00    -0.248 C  
BRANCH   4   5
HETATM    5  O   UNL     1      -7.835  20.739  67.269  1.00  0.00    -0.337 OA 
BRANCH   5   6
HETATM    6  C   UNL     1      -8.547  19.595  67.523  1.00  0.00    -0.311 A  
HETATM    7  C   UNL     1      -8.829  18.608  66.578  1.00  0.00    -0.310 A  
HETATM    8  C   UNL     1      -9.570  17.477  66.947  1.00  0.00    -0.279 A  
HETATM    9  C   UNL     1     -10.045  17.338  68.255  1.00  0.00    -0.321 A  
HETATM   10  C   UNL     1      -8.963  19.421  68.845  1.00  0.00    -0.344 A  
HETATM   11  C   UNL     1      -9.720  18.303  69.213  1.00  0.00    -0.007 A  
BRANCH   9  12
HETATM   12  C   UNL     1     -10.929  16.172  68.573  1.00  0.00    -0.338 C  
HETATM   13  O   UNL     1     -11.199  15.374  67.673  1.00  0.00    -0.320 OA 
BRANCH  12  14
HETATM   14  C   UNL     1     -11.516  16.034  69.963  1.00  0.00    -0.334 C  
BRANCH  14  15
HETATM   15  C   UNL     1     -11.475  14.567  70.399  1.00  0.00    -0.203 C  
BRANCH  15  16
HETATM   16  N   UNL     1     -12.629  13.746  70.004  1.00  0.00    -0.224 NA 
HETATM   17  C   UNL     1     -12.235  12.754  68.986  1.00  0.00     0.002 C  
HETATM   18  C   UNL     1     -11.488  11.549  69.565  1.00  0.00    -0.378 C  
HETATM   19  C   UNL     1     -12.363  10.842  70.588  1.00  0.00    -0.470 C  
HETATM   20  C   UNL     1     -12.799  11.824  71.671  1.00  0.00    -0.433 C  
HETATM   21  C   UNL     1     -13.388  13.116  71.093  1.00  0.00     0.061 C  
ENDBRANCH  15  16
ENDBRANCH  14  15
ENDBRANCH  12  14
ENDBRANCH   9  12
ENDBRANCH   5   6
ENDBRANCH   4   5
ENDBRANCH   3   4
ENDBRANCH   2   3
TORSDOF 8
ENDMDL
MODEL      223
REMARK 921   NORMALIZED FREE ENERGY PREDICTED BY IDOCK:   -2.87 KCAL/MOL
REMARK 922        TOTAL FREE ENERGY PREDICTED BY IDOCK:   -5.34 KCAL/MOL
REMARK 923 INTER-LIGAND FREE ENERGY PREDICTED BY IDOCK:   -4.51 KCAL/MOL
REMARK 924 INTRA-LIGAND FREE ENERGY PREDICTED BY IDOCK:   -0.83 KCAL/MOL
REMARK 927      BINDING AFFINITY PREDICTED BY RF-SCORE:    0.00 PKD
ROOT
HETATM    1  C   UNL     1     -11.868  11.925  69.827  1.00  0.00    -0.411 C  
HETATM    2  C   UNL     1     -11.030  11.165  68.812  1.00  0.00    -0.268 C  
ENDROOT
BRANCH   2   3
HETATM    3  C   UNL     1     -11.562  11.342  67.391  1.00  0.00    -0.266 C  
BRANCH   3   4
HETATM    4  C   UNL     1     -10.420  11.519  66.392  1.00  0.00    -0.250 C  
BRANCH   4   5
HETATM    5  O   UNL     1     -10.219  10.279  65.705  1.00  0.00    -0.273 OA 
BRANCH   5   6
HETATM    6  C   UNL     1      -9.578   9.309  66.431  1.00  0.00    -0.238 A  
HETATM    7  C   UNL     1      -8.323   9.457  67.023  1.00  0.00    -0.127 A  
HETATM    8  C   UNL     1      -7.759   8.395  67.743  1.00  0.00    -0.103 A  
HETATM    9  C   UNL     1      -8.439   7.178  67.858  1.00  0.00    -0.121 A  
HETATM   10  C   UNL     1     -10.285   8.116  66.605  1.00  0.00    -0.329 A  
HETATM   11  C   UNL     1      -9.717   7.047  67.306  1.00  0.00    -0.189 A  
BRANCH   9  12
HETATM   12  C   UNL     1      -7.747   6.036  68.535  1.00  0.00    -0.095 C  
HETATM   13  O   UNL     1      -7.565   4.996  67.899  1.00  0.00    -0.081 OA 
BRANCH  12  14
HETATM   14  C   UNL     1      -7.342   6.162  69.990  1.00  0.00    -0.078 C  
BRANCH  14  15
HETATM   15  C   UNL     1      -8.516   5.764  70.890  1.00  0.00    -0.126 C  
BRANCH  15  16
HETATM   16  N   UNL     1      -9.748   6.548  70.723  1.00  0.00    -0.179 NA 
HETATM   17  C   UNL     1     -10.902   5.827  71.293  1.00  0.00    -0.247 C  
HETATM   18  C   UNL     1     -10.977   5.906  72.821  1.00  0.00    -0.303 C  
HETATM   19  C   UNL     1     -11.074   7.359  73.259  1.00  0.00    -0.303 C  
HETATM   20  C   UNL     1      -9.899   8.155  72.698  1.00  0.00    -0.364 C  
HETATM   21  C   UNL     1      -9.708   7.939  71.192  1.00  0.00    -0.158 C  
ENDBRANCH  15  16
ENDBRANCH  14  15
ENDBRANCH  12  14
ENDBRANCH   9  12
ENDBRANCH   5   6
ENDBRANCH   4   5
ENDBRANCH   3   4
ENDBRANCH   2   3
TORSDOF 8
ENDMDL
MODEL      224
REMARK 921   NORMALIZED FREE ENERGY PREDICTED BY IDOCK:   -2.84 KCAL/MOL
REMARK 922        TOTAL FREE ENERGY PREDICTED BY IDOCK:   -5.29 KCAL/MOL
REMARK 923 INTER-LIGAND FREE ENERGY PREDICTED BY IDOCK:   -4.26 KCAL/MOL
REMARK 924 INTRA-LIGAND FREE ENERGY PREDICTED BY IDOCK:   -1.04 KCAL/MOL
REMARK 927      BINDING AFFINITY PREDICTED BY RF-SCORE:    0.00 PKD
ROOT
HETATM    1  C   UNL     1     -12.994   6.712  71.402  1.00  0.00    -0.120 C  
HETATM    2  C   UNL     1     -14.395   7.286  71.538  1.00  0.00    -0.558 C  
ENDROOT
BRANCH   2   3
HETATM    3  C   UNL     1     -14.394   8.616  72.290  1.00  0.00    -0.486 C  
BRANCH   3   4
HETATM    4  C   UNL     1     -12.977   9.024  72.690  1.00  0.00    -0.270 C  
BRANCH   4   5
HETATM    5  O   UNL     1     -12.815  10.422  72.428  1.00  0.00    -0.223 OA 
BRANCH   5   6
HETATM    6  C   UNL     1     -11.989  10.725  71.376  1.00  0.00    -0.089 A  
HETATM    7  C   UNL     1     -11.189   9.802  70.701  1.00  0.00    -0.402 A  
HETATM    8  C   UNL     1     -10.379  10.224  69.638  1.00  0.00    -0.281 A  
HETATM    9  C   UNL     1     -10.354  11.570  69.258  1.00  0.00    -0.010 A  
HETATM   10  C   UNL     1     -12.014  12.056  70.950  1.00  0.00    -0.025 A  
HETATM   11  C   UNL     1     -11.192  12.485  69.902  1.00  0.00     0.088 A  
BRANCH   9  12
HETATM   12  C   UNL     1      -9.387  11.993  68.196  1.00  0.00    -0.199 C  
HETATM   13  O   UNL     1      -8.500  12.797  68.491  1.00  0.00    -0.136 OA 
BRANCH  12  14
HETATM   14  C   UNL     1      -9.554  11.475  66.781  1.00  0.00    -0.203 C  
BRANCH  14  15
HETATM   15  C   UNL     1     -10.917  11.904  66.231  1.00  0.00    -0.302 C  
BRANCH  15  16
HETATM   16  N   UNL     1     -10.890  12.889  65.141  1.00  0.00    -0.289 NA 
HETATM   17  C   UNL     1     -12.077  13.763  65.201  1.00  0.00    -0.399 C  
HETATM   18  C   UNL     1     -11.981  14.848  66.277  1.00  0.00    -0.062 C  
HETATM   19  C   UNL     1     -10.769  15.729  66.016  1.00  0.00    -0.311 C  
HETATM   20  C   UNL     1      -9.507  14.875  65.946  1.00  0.00    -0.290 C  
HETATM   21  C   UNL     1      -9.658  13.677  65.001  1.00  0.00     0.308 C  
ENDBRANCH  15  16
ENDBRANCH  14  15
ENDBRANCH  12  14
ENDBRANCH   9  12
ENDBRANCH   5   6
ENDBRANCH   4   5
ENDBRANCH   3   4
ENDBRANCH   2   3
TORSDOF 8
ENDMDL
MODEL      225
REMARK 921   NORMALIZED FREE ENERGY PREDICTED BY IDOCK:   -2.84 KCAL/MOL
REMARK 922        TOTAL FREE ENERGY PREDICTED BY IDOCK:   -5.29 KCAL/MOL
REMARK 923 INTER-LIGAND FREE ENERGY PREDICTED BY IDOCK:   -5.28 KCAL/MOL
REMARK 924 INTRA-LIGAND FREE ENERGY PREDICTED BY IDOCK:   -0.01 KCAL/MOL
REMARK 927      BINDING AFFINITY PREDICTED BY RF-SCORE:    0.00 PKD
ROOT
HETATM    1  C   UNL     1     -10.031  19.849  68.951  1.00  0.00    -0.430 C  
HETATM    2  C   UNL     1      -9.355  19.522  67.630  1.00  0.00    -0.399 C  
ENDROOT
BRANCH   2   3
HETATM    3  C   UNL     1     -10.352  19.494  66.473  1.00  0.00    -0.583 C  
BRANCH   3   4
HETATM    4  C   UNL     1     -10.386  18.121  65.804  1.00  0.00    -0.172 C  
BRANCH   4   5
HETATM    5  O   UNL     1      -9.111  17.496  65.984  1.00  0.00    -0.489 OA 
BRANCH   5   6
HETATM    6  C   UNL     1      -9.149  16.248  66.551  1.00  0.00    -0.269 A  
HETATM    7  C   UNL     1      -8.868  15.973  67.890  1.00  0.00    -0.180 A  
HETATM    8  C   UNL     1      -8.935  14.656  68.364  1.00  0.00    -0.180 A  
HETATM    9  C   UNL     1      -9.267  13.609  67.498  1.00  0.00    -0.218 A  
HETATM   10  C   UNL     1      -9.547  15.210  65.704  1.00  0.00    -0.295 A  
HETATM   11  C   UNL     1      -9.596  13.891  66.169  1.00  0.00    -0.249 A  
BRANCH   9  12
HETATM   12  C   UNL     1      -9.212  12.207  68.021  1.00  0.00    -0.194 C  
HETATM   13  O   UNL     1      -8.170  11.816  68.552  1.00  0.00    -0.150 OA 
BRANCH  12  14
HETATM   14  C   UNL     1     -10.404  11.291  67.835  1.00  0.00    -0.205 C  
BRANCH  14  15
HETATM   15  C   UNL     1     -10.577  10.407  69.074  1.00  0.00    -0.221 C  
BRANCH  15  16
HETATM   16  N   UNL     1     -10.308   8.975  68.885  1.00  0.00    -0.212 NA 
HETATM   17  C   UNL     1     -10.331   8.627  67.451  1.00  0.00    -0.284 C  
HETATM   18  C   UNL     1      -9.058   9.036  66.704  1.00  0.00    -0.196 C  
HETATM   19  C   UNL     1      -7.852   8.353  67.328  1.00  0.00    -0.098 C  
HETATM   20  C   UNL     1      -7.776   8.680  68.816  1.00  0.00    -0.097 C  
HETATM   21  C   UNL     1      -9.107   8.442  69.540  1.00  0.00    -0.153 C  
ENDBRANCH  15  16
ENDBRANCH  14  15
ENDBRANCH  12  14
ENDBRANCH   9  12
ENDBRANCH   5   6
ENDBRANCH   4   5
ENDBRANCH   3   4
ENDBRANCH   2   3
TORSDOF 8
ENDMDL
MODEL      226
REMARK 921   NORMALIZED FREE ENERGY PREDICTED BY IDOCK:   -2.83 KCAL/MOL
REMARK 922        TOTAL FREE ENERGY PREDICTED BY IDOCK:   -5.27 KCAL/MOL
REMARK 923 INTER-LIGAND FREE ENERGY PREDICTED BY IDOCK:   -4.60 KCAL/MOL
REMARK 924 INTRA-LIGAND FREE ENERGY PREDICTED BY IDOCK:   -0.68 KCAL/MOL
REMARK 927      BINDING AFFINITY PREDICTED BY RF-SCORE:    0.00 PKD
ROOT
HETATM    1  C   UNL     1     -10.527  11.439  64.471  1.00  0.00    -0.381 C  
HETATM    2  C   UNL     1      -9.462  10.412  64.124  1.00  0.00    -0.353 C  
ENDROOT
BRANCH   2   3
HETATM    3  C   UNL     1      -9.276   9.386  65.241  1.00  0.00    -0.299 C  
BRANCH   3   4
HETATM    4  C   UNL     1      -9.670   9.969  66.598  1.00  0.00    -0.194 C  
BRANCH   4   5
HETATM    5  O   UNL     1     -10.771   9.213  67.115  1.00  0.00    -0.255 OA 
BRANCH   5   6
HETATM    6  C   UNL     1     -10.663   8.857  68.435  1.00  0.00    -0.076 A  
HETATM    7  C   UNL     1     -10.840   7.563  68.927  1.00  0.00    -0.063 A  
HETATM    8  C   UNL     1     -10.708   7.313  70.300  1.00  0.00    -0.252 A  
HETATM    9  C   UNL     1     -10.417   8.356  71.185  1.00  0.00    -0.263 A  
HETATM   10  C   UNL     1     -10.304   9.884  69.312  1.00  0.00    -0.235 A  
HETATM   11  C   UNL     1     -10.191   9.642  70.685  1.00  0.00    -0.346 A  
BRANCH   9  12
HETATM   12  C   UNL     1     -10.402   8.062  72.653  1.00  0.00    -0.329 C  
HETATM   13  O   UNL     1     -11.477   7.993  73.252  1.00  0.00    -0.254 OA 
BRANCH  12  14
HETATM   14  C   UNL     1      -9.077   7.916  73.375  1.00  0.00    -0.347 C  
BRANCH  14  15
HETATM   15  C   UNL     1      -8.161   6.972  72.590  1.00  0.00    -0.108 C  
BRANCH  15  16
HETATM   16  N   UNL     1      -7.987   5.627  73.156  1.00  0.00    -0.110 NA 
HETATM   17  C   UNL     1      -9.287   5.068  73.574  1.00  0.00    -0.132 C  
HETATM   18  C   UNL     1     -10.130   4.544  72.408  1.00  0.00    -0.243 C  
HETATM   19  C   UNL     1      -9.370   3.452  71.672  1.00  0.00    -0.206 C  
HETATM   20  C   UNL     1      -8.013   3.976  71.212  1.00  0.00    -0.071 C  
HETATM   21  C   UNL     1      -7.235   4.666  72.339  1.00  0.00    -0.080 C  
ENDBRANCH  15  16
ENDBRANCH  14  15
ENDBRANCH  12  14
ENDBRANCH   9  12
ENDBRANCH   5   6
ENDBRANCH   4   5
ENDBRANCH   3   4
ENDBRANCH   2   3
TORSDOF 8
ENDMDL
MODEL      227
REMARK 921   NORMALIZED FREE ENERGY PREDICTED BY IDOCK:   -2.82 KCAL/MOL
REMARK 922        TOTAL FREE ENERGY PREDICTED BY IDOCK:   -5.27 KCAL/MOL
REMARK 923 INTER-LIGAND FREE ENERGY PREDICTED BY IDOCK:   -4.34 KCAL/MOL
REMARK 924 INTRA-LIGAND FREE ENERGY PREDICTED BY IDOCK:   -0.93 KCAL/MOL
REMARK 927      BINDING AFFINITY PREDICTED BY RF-SCORE:    0.00 PKD
ROOT
HETATM    1  C   UNL     1      -6.260   8.367  70.323  1.00  0.00    -0.034 C  
HETATM    2  C   UNL     1      -6.043   9.124  69.023  1.00  0.00    -0.043 C  
ENDROOT
BRANCH   2   3
HETATM    3  C   UNL     1      -6.646   8.385  67.829  1.00  0.00    -0.062 C  
BRANCH   3   4
HETATM    4  C   UNL     1      -8.164   8.556  67.782  1.00  0.00    -0.122 C  
BRANCH   4   5
HETATM    5  O   UNL     1      -8.599   8.391  66.428  1.00  0.00    -0.116 OA 
BRANCH   5   6
HETATM    6  C   UNL     1      -9.255   9.469  65.892  1.00  0.00    -0.206 A  
HETATM    7  C   UNL     1      -8.875  10.133  64.725  1.00  0.00    -0.219 A  
HETATM    8  C   UNL     1      -9.620  11.229  64.269  1.00  0.00    -0.257 A  
HETATM    9  C   UNL     1     -10.735  11.674  64.986  1.00  0.00    -0.351 A  
HETATM   10  C   UNL     1     -10.409   9.873  66.569  1.00  0.00    -0.259 A  
HETATM   11  C   UNL     1     -11.144  10.979  66.127  1.00  0.00    -0.082 A  
BRANCH   9  12
HETATM   12  C   UNL     1     -11.429  12.919  64.525  1.00  0.00    -0.344 C  
HETATM   13  O   UNL     1     -11.938  12.929  63.402  1.00  0.00    -0.533 OA 
BRANCH  12  14
HETATM   14  C   UNL     1     -11.439  14.145  65.415  1.00  0.00    -0.325 C  
BRANCH  14  15
HETATM   15  C   UNL     1     -10.050  14.352  66.027  1.00  0.00    -0.322 C  
BRANCH  15  16
HETATM   16  N   UNL     1      -9.995  14.404  67.494  1.00  0.00    -0.223 NA 
HETATM   17  C   UNL     1      -9.082  13.370  68.017  1.00  0.00    -0.205 C  
HETATM   18  C   UNL     1      -7.601  13.738  67.879  1.00  0.00    -0.157 C  
HETATM   19  C   UNL     1      -7.319  15.030  68.629  1.00  0.00    -0.118 C  
HETATM   20  C   UNL     1      -8.237  16.140  68.127  1.00  0.00    -0.157 C  
HETATM   21  C   UNL     1      -9.710  15.715  68.093  1.00  0.00    -0.204 C  
ENDBRANCH  15  16
ENDBRANCH  14  15
ENDBRANCH  12  14
ENDBRANCH   9  12
ENDBRANCH   5   6
ENDBRANCH   4   5
ENDBRANCH   3   4
ENDBRANCH   2   3
TORSDOF 8
ENDMDL
MODEL      228
REMARK 921   NORMALIZED FREE ENERGY PREDICTED BY IDOCK:   -2.82 KCAL/MOL
REMARK 922        TOTAL FREE ENERGY PREDICTED BY IDOCK:   -5.27 KCAL/MOL
REMARK 923 INTER-LIGAND FREE ENERGY PREDICTED BY IDOCK:   -4.69 KCAL/MOL
REMARK 924 INTRA-LIGAND FREE ENERGY PREDICTED BY IDOCK:   -0.58 KCAL/MOL
REMARK 927      BINDING AFFINITY PREDICTED BY RF-SCORE:    0.00 PKD
ROOT
HETATM    1  C   UNL     1      -9.888   5.572  71.613  1.00  0.00    -0.221 C  
HETATM    2  C   UNL     1      -8.506   4.939  71.637  1.00  0.00    -0.124 C  
ENDROOT
BRANCH   2   3
HETATM    3  C   UNL     1      -7.732   5.216  70.350  1.00  0.00    -0.074 C  
BRANCH   3   4
HETATM    4  C   UNL     1      -8.537   6.101  69.400  1.00  0.00    -0.123 C  
BRANCH   4   5
HETATM    5  O   UNL     1      -8.183   7.467  69.640  1.00  0.00    -0.125 OA 
BRANCH   5   6
HETATM    6  C   UNL     1      -8.843   8.384  68.863  1.00  0.00    -0.143 A  
HETATM    7  C   UNL     1     -10.109   8.901  69.142  1.00  0.00    -0.202 A  
HETATM    8  C   UNL     1     -10.691   9.834  68.274  1.00  0.00    -0.277 A  
HETATM    9  C   UNL     1     -10.018  10.240  67.117  1.00  0.00    -0.243 A  
HETATM   10  C   UNL     1      -8.143   8.843  67.743  1.00  0.00    -0.106 A  
HETATM   11  C   UNL     1      -8.730   9.760  66.863  1.00  0.00    -0.143 A  
BRANCH   9  12
HETATM   12  C   UNL     1     -10.728  11.149  66.161  1.00  0.00    -0.225 C  
HETATM   13  O   UNL     1     -10.525  11.009  64.953  1.00  0.00    -0.309 OA 
BRANCH  12  14
HETATM   14  C   UNL     1     -11.624  12.247  66.696  1.00  0.00    -0.438 C  
BRANCH  14  15
HETATM   15  C   UNL     1     -11.123  13.609  66.207  1.00  0.00    -0.301 C  
BRANCH  15  16
HETATM   16  N   UNL     1     -10.119  14.267  67.055  1.00  0.00    -0.257 NA 
HETATM   17  C   UNL     1      -9.187  15.063  66.234  1.00  0.00    -0.289 C  
HETATM   18  C   UNL     1      -9.773  16.400  65.769  1.00  0.00    -0.271 C  
HETATM   19  C   UNL     1     -10.163  17.240  66.975  1.00  0.00    -0.320 C  
HETATM   20  C   UNL     1     -11.132  16.464  67.862  1.00  0.00    -0.249 C  
HETATM   21  C   UNL     1     -10.631  15.052  68.187  1.00  0.00    -0.248 C  
ENDBRANCH  15  16
ENDBRANCH  14  15
ENDBRANCH  12  14
ENDBRANCH   9  12
ENDBRANCH   5   6
ENDBRANCH   4   5
ENDBRANCH   3   4
ENDBRANCH   2   3
TORSDOF 8
ENDMDL
MODEL      229
REMARK 921   NORMALIZED FREE ENERGY PREDICTED BY IDOCK:   -2.82 KCAL/MOL
REMARK 922        TOTAL FREE ENERGY PREDICTED BY IDOCK:   -5.26 KCAL/MOL
REMARK 923 INTER-LIGAND FREE ENERGY PREDICTED BY IDOCK:   -4.66 KCAL/MOL
REMARK 924 INTRA-LIGAND FREE ENERGY PREDICTED BY IDOCK:   -0.60 KCAL/MOL
REMARK 927      BINDING AFFINITY PREDICTED BY RF-SCORE:    0.00 PKD
ROOT
HETATM    1  C   UNL     1     -12.141  14.766  64.284  1.00  0.00    -0.415 C  
HETATM    2  C   UNL     1     -12.708  13.789  65.301  1.00  0.00    -0.481 C  
ENDROOT
BRANCH   2   3
HETATM    3  C   UNL     1     -12.319  14.166  66.730  1.00  0.00    -0.333 C  
BRANCH   3   4
HETATM    4  C   UNL     1     -10.801  14.218  66.894  1.00  0.00    -0.298 C  
BRANCH   4   5
HETATM    5  O   UNL     1     -10.236  13.056  66.277  1.00  0.00    -0.274 OA 
BRANCH   5   6
HETATM    6  C   UNL     1      -9.897  12.046  67.141  1.00  0.00    -0.196 A  
HETATM    7  C   UNL     1     -10.426  10.755  67.103  1.00  0.00    -0.285 A  
HETATM    8  C   UNL     1     -10.008   9.800  68.039  1.00  0.00    -0.185 A  
HETATM    9  C   UNL     1      -9.075  10.137  69.025  1.00  0.00    -0.176 A  
HETATM   10  C   UNL     1      -8.914  12.360  68.083  1.00  0.00    -0.196 A  
HETATM   11  C   UNL     1      -8.508  11.415  69.031  1.00  0.00     0.051 A  
BRANCH   9  12
HETATM   12  C   UNL     1      -8.747   9.119  70.074  1.00  0.00    -0.177 C  
HETATM   13  O   UNL     1      -7.989   9.440  70.991  1.00  0.00    -0.303 OA 
BRANCH  12  14
HETATM   14  C   UNL     1      -9.301   7.713  69.953  1.00  0.00    -0.150 C  
BRANCH  14  15
HETATM   15  C   UNL     1      -9.854   7.257  71.306  1.00  0.00    -0.180 C  
BRANCH  15  16
HETATM   16  N   UNL     1     -10.524   5.950  71.319  1.00  0.00    -0.224 NA 
HETATM   17  C   UNL     1      -9.871   5.022  70.376  1.00  0.00    -0.230 C  
HETATM   18  C   UNL     1      -8.561   4.433  70.908  1.00  0.00    -0.117 C  
HETATM   19  C   UNL     1      -8.823   3.675  72.199  1.00  0.00    -0.121 C  
HETATM   20  C   UNL     1      -9.499   4.589  73.217  1.00  0.00    -0.134 C  
HETATM   21  C   UNL     1     -10.712   5.323  72.635  1.00  0.00    -0.239 C  
ENDBRANCH  15  16
ENDBRANCH  14  15
ENDBRANCH  12  14
ENDBRANCH   9  12
ENDBRANCH   5   6
ENDBRANCH   4   5
ENDBRANCH   3   4
ENDBRANCH   2   3
TORSDOF 8
ENDMDL
MODEL      230
REMARK 921   NORMALIZED FREE ENERGY PREDICTED BY IDOCK:   -2.81 KCAL/MOL
REMARK 922        TOTAL FREE ENERGY PREDICTED BY IDOCK:   -5.25 KCAL/MOL
REMARK 923 INTER-LIGAND FREE ENERGY PREDICTED BY IDOCK:   -4.27 KCAL/MOL
REMARK 924 INTRA-LIGAND FREE ENERGY PREDICTED BY IDOCK:   -0.97 KCAL/MOL
REMARK 927      BINDING AFFINITY PREDICTED BY RF-SCORE:    0.00 PKD
ROOT
HETATM    1  C   UNL     1      -9.287  11.248  66.625  1.00  0.00    -0.196 C  
HETATM    2  C   UNL     1      -9.801   9.835  66.403  1.00  0.00    -0.298 C  
ENDROOT
BRANCH   2   3
HETATM    3  C   UNL     1     -10.585   9.321  67.609  1.00  0.00    -0.324 C  
BRANCH   3   4
HETATM    4  C   UNL     1     -10.105   9.978  68.902  1.00  0.00    -0.190 C  
BRANCH   4   5
HETATM    5  O   UNL     1     -11.105   9.785  69.909  1.00  0.00    -0.240 OA 
BRANCH   5   6
HETATM    6  C   UNL     1     -10.931   8.676  70.697  1.00  0.00    -0.240 A  
HETATM    7  C   UNL     1     -11.716   7.524  70.633  1.00  0.00    -0.240 A  
HETATM    8  C   UNL     1     -11.449   6.448  71.491  1.00  0.00    -0.360 A  
HETATM    9  C   UNL     1     -10.411   6.527  72.424  1.00  0.00    -0.210 A  
HETATM   10  C   UNL     1      -9.851   8.726  71.582  1.00  0.00    -0.378 A  
HETATM   11  C   UNL     1      -9.594   7.661  72.453  1.00  0.00    -0.220 A  
BRANCH   9  12
HETATM   12  C   UNL     1     -10.239   5.401  73.396  1.00  0.00    -0.196 C  
HETATM   13  O   UNL     1     -10.704   5.526  74.531  1.00  0.00    -0.259 OA 
BRANCH  12  14
HETATM   14  C   UNL     1      -9.454   4.171  72.987  1.00  0.00    -0.143 C  
BRANCH  14  15
HETATM   15  C   UNL     1      -8.042   4.577  72.556  1.00  0.00    -0.101 C  
BRANCH  15  16
HETATM   16  N   UNL     1      -7.565   4.001  71.291  1.00  0.00    -0.054 NA 
HETATM   17  C   UNL     1      -8.551   3.044  70.753  1.00  0.00    -0.070 C  
HETATM   18  C   UNL     1      -9.748   3.717  70.075  1.00  0.00    -0.211 C  
HETATM   19  C   UNL     1      -9.268   4.587  68.924  1.00  0.00    -0.190 C  
HETATM   20  C   UNL     1      -8.244   5.601  69.424  1.00  0.00    -0.103 C  
HETATM   21  C   UNL     1      -7.133   4.953  70.259  1.00  0.00    -0.049 C  
ENDBRANCH  15  16
ENDBRANCH  14  15
ENDBRANCH  12  14
ENDBRANCH   9  12
ENDBRANCH   5   6
ENDBRANCH   4   5
ENDBRANCH   3   4
ENDBRANCH   2   3
TORSDOF 8
ENDMDL
MODEL      231
REMARK 921   NORMALIZED FREE ENERGY PREDICTED BY IDOCK:   -2.80 KCAL/MOL
REMARK 922        TOTAL FREE ENERGY PREDICTED BY IDOCK:   -5.23 KCAL/MOL
REMARK 923 INTER-LIGAND FREE ENERGY PREDICTED BY IDOCK:   -4.49 KCAL/MOL
REMARK 924 INTRA-LIGAND FREE ENERGY PREDICTED BY IDOCK:   -0.74 KCAL/MOL
REMARK 927      BINDING AFFINITY PREDICTED BY RF-SCORE:    0.00 PKD
ROOT
HETATM    1  C   UNL     1     -10.447  16.129  67.538  1.00  0.00    -0.302 C  
HETATM    2  C   UNL     1     -10.526  14.951  66.581  1.00  0.00    -0.292 C  
ENDROOT
BRANCH   2   3
HETATM    3  C   UNL     1     -11.936  14.367  66.514  1.00  0.00    -0.406 C  
BRANCH   3   4
HETATM    4  C   UNL     1     -11.931  12.979  65.877  1.00  0.00    -0.435 C  
BRANCH   4   5
HETATM    5  O   UNL     1     -12.284  12.018  66.877  1.00  0.00    -0.529 OA 
BRANCH   5   6
HETATM    6  C   UNL     1     -11.239  11.282  67.372  1.00  0.00    -0.303 A  
HETATM    7  C   UNL     1     -10.815  11.297  68.702  1.00  0.00    -0.246 A  
HETATM    8  C   UNL     1      -9.729  10.505  69.099  1.00  0.00    -0.226 A  
HETATM    9  C   UNL     1      -9.054   9.711  68.167  1.00  0.00    -0.123 A  
HETATM   10  C   UNL     1     -10.606  10.437  66.457  1.00  0.00    -0.220 A  
HETATM   11  C   UNL     1      -9.509   9.660  66.846  1.00  0.00    -0.198 A  
BRANCH   9  12
HETATM   12  C   UNL     1      -7.829   8.974  68.612  1.00  0.00    -0.101 C  
HETATM   13  O   UNL     1      -6.872   9.624  69.039  1.00  0.00    -0.049 OA 
BRANCH  12  14
HETATM   14  C   UNL     1      -7.770   7.466  68.474  1.00  0.00    -0.120 C  
BRANCH  14  15
HETATM   15  C   UNL     1      -8.175   6.809  69.798  1.00  0.00    -0.127 C  
BRANCH  15  16
HETATM   16  N   UNL     1      -8.290   5.344  69.780  1.00  0.00    -0.099 NA 
HETATM   17  C   UNL     1      -7.284   4.734  70.670  1.00  0.00    -0.049 C  
HETATM   18  C   UNL     1      -7.655   4.815  72.154  1.00  0.00    -0.084 C  
HETATM   19  C   UNL     1      -8.978   4.107  72.395  1.00  0.00    -0.131 C  
HETATM   20  C   UNL     1     -10.061   4.701  71.498  1.00  0.00    -0.255 C  
HETATM   21  C   UNL     1      -9.626   4.789  70.030  1.00  0.00    -0.190 C  
ENDBRANCH  15  16
ENDBRANCH  14  15
ENDBRANCH  12  14
ENDBRANCH   9  12
ENDBRANCH   5   6
ENDBRANCH   4   5
ENDBRANCH   3   4
ENDBRANCH   2   3
TORSDOF 8
ENDMDL
MODEL      232
REMARK 921   NORMALIZED FREE ENERGY PREDICTED BY IDOCK:   -2.79 KCAL/MOL
REMARK 922        TOTAL FREE ENERGY PREDICTED BY IDOCK:   -5.22 KCAL/MOL
REMARK 923 INTER-LIGAND FREE ENERGY PREDICTED BY IDOCK:   -3.86 KCAL/MOL
REMARK 924 INTRA-LIGAND FREE ENERGY PREDICTED BY IDOCK:   -1.36 KCAL/MOL
REMARK 927      BINDING AFFINITY PREDICTED BY RF-SCORE:    0.00 PKD
ROOT
HETATM    1  C   UNL     1      -7.550   6.971  63.741  1.00  0.00    -0.105 C  
HETATM    2  C   UNL     1      -6.347   6.418  64.487  1.00  0.00    -0.030 C  
ENDROOT
BRANCH   2   3
HETATM    3  C   UNL     1      -6.762   5.632  65.730  1.00  0.00    -0.055 C  
BRANCH   3   4
HETATM    4  C   UNL     1      -6.666   6.495  66.987  1.00  0.00    -0.060 C  
BRANCH   4   5
HETATM    5  O   UNL     1      -7.992   6.830  67.412  1.00  0.00    -0.111 OA 
BRANCH   5   6
HETATM    6  C   UNL     1      -8.434   6.158  68.522  1.00  0.00    -0.114 A  
HETATM    7  C   UNL     1      -7.610   5.666  69.536  1.00  0.00    -0.072 A  
HETATM    8  C   UNL     1      -8.171   4.990  70.627  1.00  0.00    -0.102 A  
HETATM    9  C   UNL     1      -9.553   4.789  70.701  1.00  0.00    -0.255 A  
HETATM   10  C   UNL     1      -9.820   6.017  68.633  1.00  0.00    -0.166 A  
HETATM   11  C   UNL     1     -10.382   5.325  69.712  1.00  0.00    -0.369 A  
BRANCH   9  12
HETATM   12  C   UNL     1     -10.094   3.961  71.826  1.00  0.00    -0.116 C  
HETATM   13  O   UNL     1     -10.072   2.733  71.717  1.00  0.00    -0.149 OA 
BRANCH  12  14
HETATM   14  C   UNL     1     -10.704   4.644  73.033  1.00  0.00    -0.302 C  
BRANCH  14  15
HETATM   15  C   UNL     1      -9.655   5.529  73.712  1.00  0.00    -0.142 C  
BRANCH  15  16
HETATM   16  N   UNL     1     -10.074   6.904  74.016  1.00  0.00    -0.343 NA 
HETATM   17  C   UNL     1      -8.943   7.839  73.858  1.00  0.00    -0.259 C  
HETATM   18  C   UNL     1      -8.635   8.182  72.398  1.00  0.00    -0.245 C  
HETATM   19  C   UNL     1      -9.854   8.815  71.748  1.00  0.00    -0.391 C  
HETATM   20  C   UNL     1     -11.059   7.888  71.879  1.00  0.00    -0.317 C  
HETATM   21  C   UNL     1     -11.268   7.395  73.316  1.00  0.00    -0.155 C  
ENDBRANCH  15  16
ENDBRANCH  14  15
ENDBRANCH  12  14
ENDBRANCH   9  12
ENDBRANCH   5   6
ENDBRANCH   4   5
ENDBRANCH   3   4
ENDBRANCH   2   3
TORSDOF 8
ENDMDL
MODEL      233
REMARK 921   NORMALIZED FREE ENERGY PREDICTED BY IDOCK:   -2.77 KCAL/MOL
REMARK 922        TOTAL FREE ENERGY PREDICTED BY IDOCK:   -5.18 KCAL/MOL
REMARK 923 INTER-LIGAND FREE ENERGY PREDICTED BY IDOCK:   -4.79 KCAL/MOL
REMARK 924 INTRA-LIGAND FREE ENERGY PREDICTED BY IDOCK:   -0.39 KCAL/MOL
REMARK 927      BINDING AFFINITY PREDICTED BY RF-SCORE:    0.00 PKD
ROOT
HETATM    1  C   UNL     1     -10.177   5.057  70.592  1.00  0.00    -0.306 C  
HETATM    2  C   UNL     1      -9.305   5.552  71.734  1.00  0.00    -0.162 C  
ENDROOT
BRANCH   2   3
HETATM    3  C   UNL     1      -9.303   7.077  71.828  1.00  0.00    -0.150 C  
BRANCH   3   4
HETATM    4  C   UNL     1      -8.015   7.665  71.252  1.00  0.00    -0.094 C  
BRANCH   4   5
HETATM    5  O   UNL     1      -8.172   7.805  69.836  1.00  0.00    -0.121 OA 
BRANCH   5   6
HETATM    6  C   UNL     1      -8.231   9.097  69.382  1.00  0.00    -0.118 A  
HETATM    7  C   UNL     1      -7.138   9.824  68.907  1.00  0.00    -0.067 A  
HETATM    8  C   UNL     1      -7.313  11.144  68.469  1.00  0.00    -0.104 A  
HETATM    9  C   UNL     1      -8.575  11.745  68.519  1.00  0.00    -0.123 A  
HETATM   10  C   UNL     1      -9.502   9.676  69.366  1.00  0.00    -0.201 A  
HETATM   11  C   UNL     1      -9.677  11.000  68.948  1.00  0.00    -0.184 A  
BRANCH   9  12
HETATM   12  C   UNL     1      -8.690  13.192  68.151  1.00  0.00    -0.193 C  
HETATM   13  O   UNL     1      -7.670  13.801  67.823  1.00  0.00    -0.136 OA 
BRANCH  12  14
HETATM   14  C   UNL     1     -10.035  13.884  68.246  1.00  0.00    -0.238 C  
BRANCH  14  15
HETATM   15  C   UNL     1     -10.608  14.097  66.842  1.00  0.00    -0.280 C  
BRANCH  15  16
HETATM   16  N   UNL     1     -11.662  13.162  66.429  1.00  0.00    -0.360 NA 
HETATM   17  C   UNL     1     -12.212  13.547  65.115  1.00  0.00    -0.428 C  
HETATM   18  C   UNL     1     -11.311  13.160  63.939  1.00  0.00    -0.420 C  
HETATM   19  C   UNL     1     -11.095  11.655  63.928  1.00  0.00    -0.477 C  
HETATM   20  C   UNL     1     -10.523  11.198  65.267  1.00  0.00    -0.326 C  
HETATM   21  C   UNL     1     -11.321  11.733  66.462  1.00  0.00    -0.305 C  
ENDBRANCH  15  16
ENDBRANCH  14  15
ENDBRANCH  12  14
ENDBRANCH   9  12
ENDBRANCH   5   6
ENDBRANCH   4   5
ENDBRANCH   3   4
ENDBRANCH   2   3
TORSDOF 8
ENDMDL
MODEL      234
REMARK 921   NORMALIZED FREE ENERGY PREDICTED BY IDOCK:   -2.76 KCAL/MOL
REMARK 922        TOTAL FREE ENERGY PREDICTED BY IDOCK:   -5.16 KCAL/MOL
REMARK 923 INTER-LIGAND FREE ENERGY PREDICTED BY IDOCK:   -4.87 KCAL/MOL
REMARK 924 INTRA-LIGAND FREE ENERGY PREDICTED BY IDOCK:   -0.29 KCAL/MOL
REMARK 927      BINDING AFFINITY PREDICTED BY RF-SCORE:    0.00 PKD
ROOT
HETATM    1  C   UNL     1     -11.237  10.262  69.341  1.00  0.00    -0.292 C  
HETATM    2  C   UNL     1     -10.001   9.574  68.786  1.00  0.00    -0.185 C  
ENDROOT
BRANCH   2   3
HETATM    3  C   UNL     1      -9.192  10.503  67.882  1.00  0.00    -0.143 C  
BRANCH   3   4
HETATM    4  C   UNL     1      -8.068  11.188  68.657  1.00  0.00    -0.150 C  
BRANCH   4   5
HETATM    5  O   UNL     1      -7.193  11.827  67.721  1.00  0.00    -0.085 OA 
BRANCH   5   6
HETATM    6  C   UNL     1      -6.844  13.114  68.036  1.00  0.00    -0.118 A  
HETATM    7  C   UNL     1      -5.742  13.472  68.814  1.00  0.00    -0.082 A  
HETATM    8  C   UNL     1      -5.480  14.824  69.076  1.00  0.00    -0.093 A  
HETATM    9  C   UNL     1      -6.327  15.819  68.578  1.00  0.00    -0.108 A  
HETATM   10  C   UNL     1      -7.649  14.113  67.482  1.00  0.00    -0.200 A  
HETATM   11  C   UNL     1      -7.403  15.463  67.758  1.00  0.00    -0.180 A  
BRANCH   9  12
HETATM   12  C   UNL     1      -6.075  17.239  68.982  1.00  0.00    -0.199 C  
HETATM   13  O   UNL     1      -5.563  17.457  70.082  1.00  0.00    -0.229 OA 
BRANCH  12  14
HETATM   14  C   UNL     1      -6.503  18.366  68.064  1.00  0.00    -0.201 C  
BRANCH  14  15
HETATM   15  C   UNL     1      -7.589  19.204  68.746  1.00  0.00    -0.353 C  
BRANCH  15  16
HETATM   16  N   UNL     1      -8.963  18.700  68.622  1.00  0.00    -0.324 NA 
HETATM   17  C   UNL     1      -9.932  19.811  68.691  1.00  0.00    -0.434 C  
HETATM   18  C   UNL     1     -10.035  20.613  67.391  1.00  0.00    -0.457 C  
HETATM   19  C   UNL     1     -10.458  19.698  66.253  1.00  0.00    -0.621 C  
HETATM   20  C   UNL     1      -9.487  18.528  66.132  1.00  0.00    -0.175 C  
HETATM   21  C   UNL     1      -9.240  17.827  67.473  1.00  0.00    -0.244 C  
ENDBRANCH  15  16
ENDBRANCH  14  15
ENDBRANCH  12  14
ENDBRANCH   9  12
ENDBRANCH   5   6
ENDBRANCH   4   5
ENDBRANCH   3   4
ENDBRANCH   2   3
TORSDOF 8
ENDMDL
MODEL      235
REMARK 921   NORMALIZED FREE ENERGY PREDICTED BY IDOCK:   -2.75 KCAL/MOL
REMARK 922        TOTAL FREE ENERGY PREDICTED BY IDOCK:   -5.16 KCAL/MOL
REMARK 923 INTER-LIGAND FREE ENERGY PREDICTED BY IDOCK:   -4.95 KCAL/MOL
REMARK 924 INTRA-LIGAND FREE ENERGY PREDICTED BY IDOCK:   -0.21 KCAL/MOL
REMARK 927      BINDING AFFINITY PREDICTED BY RF-SCORE:    0.00 PKD
ROOT
HETATM    1  C   UNL     1      -6.429  18.629  65.910  1.00  0.00    -0.278 C  
HETATM    2  C   UNL     1      -5.869  18.117  67.228  1.00  0.00    -0.151 C  
ENDROOT
BRANCH   2   3
HETATM    3  C   UNL     1      -5.845  16.590  67.279  1.00  0.00    -0.191 C  
BRANCH   3   4
HETATM    4  C   UNL     1      -5.898  16.084  68.719  1.00  0.00    -0.105 C  
BRANCH   4   5
HETATM    5  O   UNL     1      -7.264  16.074  69.148  1.00  0.00    -0.182 OA 
BRANCH   5   6
HETATM    6  C   UNL     1      -7.989  14.978  68.757  1.00  0.00    -0.162 A  
HETATM    7  C   UNL     1      -9.309  15.017  68.306  1.00  0.00    -0.192 A  
HETATM    8  C   UNL     1      -9.957  13.832  67.933  1.00  0.00    -0.240 A  
HETATM    9  C   UNL     1      -9.293  12.604  68.026  1.00  0.00    -0.209 A  
HETATM   10  C   UNL     1      -7.306  13.760  68.783  1.00  0.00    -0.103 A  
HETATM   11  C   UNL     1      -7.955  12.571  68.430  1.00  0.00    -0.139 A  
BRANCH   9  12
HETATM   12  C   UNL     1     -10.062  11.354  67.728  1.00  0.00    -0.181 C  
HETATM   13  O   UNL     1      -9.678  10.293  68.224  1.00  0.00    -0.139 OA 
BRANCH  12  14
HETATM   14  C   UNL     1     -11.248  11.410  66.786  1.00  0.00    -0.319 C  
BRANCH  14  15
HETATM   15  C   UNL     1     -10.870  10.785  65.440  1.00  0.00     0.008 C  
BRANCH  15  16
HETATM   16  N   UNL     1     -11.143  11.604  64.251  1.00  0.00    -0.343 NA 
HETATM   17  C   UNL     1     -12.523  12.124  64.286  1.00  0.00    -0.363 C  
HETATM   18  C   UNL     1     -12.703  13.314  65.233  1.00  0.00    -0.474 C  
HETATM   19  C   UNL     1     -11.789  14.453  64.811  1.00  0.00    -0.439 C  
HETATM   20  C   UNL     1     -10.342  13.971  64.760  1.00  0.00    -0.407 C  
HETATM   21  C   UNL     1     -10.181  12.675  63.958  1.00  0.00    -0.338 C  
ENDBRANCH  15  16
ENDBRANCH  14  15
ENDBRANCH  12  14
ENDBRANCH   9  12
ENDBRANCH   5   6
ENDBRANCH   4   5
ENDBRANCH   3   4
ENDBRANCH   2   3
TORSDOF 8
ENDMDL
MODEL      236
REMARK 921   NORMALIZED FREE ENERGY PREDICTED BY IDOCK:   -2.73 KCAL/MOL
REMARK 922        TOTAL FREE ENERGY PREDICTED BY IDOCK:   -5.13 KCAL/MOL
REMARK 923 INTER-LIGAND FREE ENERGY PREDICTED BY IDOCK:   -4.79 KCAL/MOL
REMARK 924 INTRA-LIGAND FREE ENERGY PREDICTED BY IDOCK:   -0.34 KCAL/MOL
REMARK 927      BINDING AFFINITY PREDICTED BY RF-SCORE:    0.00 PKD
ROOT
HETATM    1  C   UNL     1     -10.762  14.655  65.501  1.00  0.00    -0.360 C  
HETATM    2  C   UNL     1     -10.194  15.693  66.456  1.00  0.00    -0.291 C  
ENDROOT
BRANCH   2   3
HETATM    3  C   UNL     1     -10.970  15.740  67.771  1.00  0.00    -0.314 C  
BRANCH   3   4
HETATM    4  C   UNL     1     -10.607  14.559  68.669  1.00  0.00    -0.255 C  
BRANCH   4   5
HETATM    5  O   UNL     1     -11.760  13.721  68.808  1.00  0.00    -0.309 OA 
BRANCH   5   6
HETATM    6  C   UNL     1     -11.507  12.374  68.781  1.00  0.00    -0.304 A  
HETATM    7  C   UNL     1     -11.540  11.535  69.897  1.00  0.00    -0.387 A  
HETATM    8  C   UNL     1     -11.261  10.169  69.753  1.00  0.00    -0.325 A  
HETATM    9  C   UNL     1     -10.933   9.642  68.501  1.00  0.00    -0.153 A  
HETATM   10  C   UNL     1     -11.247  11.832  67.520  1.00  0.00    -0.354 A  
HETATM   11  C   UNL     1     -10.949  10.472  67.376  1.00  0.00    -0.352 A  
BRANCH   9  12
HETATM   12  C   UNL     1     -10.529   8.202  68.417  1.00  0.00    -0.161 C  
HETATM   13  O   UNL     1     -10.091   7.652  69.430  1.00  0.00    -0.186 OA 
BRANCH  12  14
HETATM   14  C   UNL     1     -10.611   7.477  67.089  1.00  0.00    -0.415 C  
BRANCH  14  15
HETATM   15  C   UNL     1      -9.732   6.223  67.128  1.00  0.00    -0.139 C  
BRANCH  15  16
HETATM   16  N   UNL     1      -8.376   6.372  66.581  1.00  0.00    -0.111 NA 
HETATM   17  C   UNL     1      -7.603   7.351  67.369  1.00  0.00    -0.112 C  
HETATM   18  C   UNL     1      -7.082   6.791  68.696  1.00  0.00    -0.082 C  
HETATM   19  C   UNL     1      -6.183   5.593  68.433  1.00  0.00    -0.030 C  
HETATM   20  C   UNL     1      -6.934   4.543  67.620  1.00  0.00    -0.060 C  
HETATM   21  C   UNL     1      -7.613   5.133  66.378  1.00  0.00    -0.088 C  
ENDBRANCH  15  16
ENDBRANCH  14  15
ENDBRANCH  12  14
ENDBRANCH   9  12
ENDBRANCH   5   6
ENDBRANCH   4   5
ENDBRANCH   3   4
ENDBRANCH   2   3
TORSDOF 8
ENDMDL
MODEL      237
REMARK 921   NORMALIZED FREE ENERGY PREDICTED BY IDOCK:   -2.73 KCAL/MOL
REMARK 922        TOTAL FREE ENERGY PREDICTED BY IDOCK:   -5.12 KCAL/MOL
REMARK 923 INTER-LIGAND FREE ENERGY PREDICTED BY IDOCK:   -4.38 KCAL/MOL
REMARK 924 INTRA-LIGAND FREE ENERGY PREDICTED BY IDOCK:   -0.75 KCAL/MOL
REMARK 927      BINDING AFFINITY PREDICTED BY RF-SCORE:    0.00 PKD
ROOT
HETATM    1  C   UNL     1     -12.106   8.222  71.997  1.00  0.00    -0.402 C  
HETATM    2  C   UNL     1     -11.767   8.129  70.518  1.00  0.00    -0.067 C  
ENDROOT
BRANCH   2   3
HETATM    3  C   UNL     1     -10.297   8.448  70.252  1.00  0.00    -0.212 C  
BRANCH   3   4
HETATM    4  C   UNL     1     -10.090   8.955  68.826  1.00  0.00    -0.200 C  
BRANCH   4   5
HETATM    5  O   UNL     1     -11.236   9.725  68.446  1.00  0.00    -0.152 OA 
BRANCH   5   6
HETATM    6  C   UNL     1     -10.959  10.957  67.913  1.00  0.00    -0.271 A  
HETATM    7  C   UNL     1     -10.647  11.192  66.573  1.00  0.00    -0.314 A  
HETATM    8  C   UNL     1     -10.377  12.496  66.136  1.00  0.00    -0.274 A  
HETATM    9  C   UNL     1     -10.401  13.564  67.038  1.00  0.00    -0.252 A  
HETATM   10  C   UNL     1     -11.050  12.035  68.798  1.00  0.00    -0.298 A  
HETATM   11  C   UNL     1     -10.762  13.335  68.369  1.00  0.00    -0.273 A  
BRANCH   9  12
HETATM   12  C   UNL     1      -9.992  14.920  66.549  1.00  0.00    -0.265 C  
HETATM   13  O   UNL     1     -10.866  15.692  66.151  1.00  0.00    -0.314 OA 
BRANCH  12  14
HETATM   14  C   UNL     1      -8.522  15.286  66.500  1.00  0.00    -0.202 C  
BRANCH  14  15
HETATM   15  C   UNL     1      -7.827  14.807  67.778  1.00  0.00    -0.151 C  
BRANCH  15  16
HETATM   16  N   UNL     1      -6.565  14.078  67.589  1.00  0.00    -0.210 NA 
HETATM   17  C   UNL     1      -5.434  14.844  68.146  1.00  0.00    -0.121 C  
HETATM   18  C   UNL     1      -5.334  14.761  69.672  1.00  0.00    -0.092 C  
HETATM   19  C   UNL     1      -5.169  13.311  70.100  1.00  0.00    -0.096 C  
HETATM   20  C   UNL     1      -6.316  12.469  69.552  1.00  0.00    -0.112 C  
HETATM   21  C   UNL     1      -6.539  12.683  68.050  1.00  0.00    -0.095 C  
ENDBRANCH  15  16
ENDBRANCH  14  15
ENDBRANCH  12  14
ENDBRANCH   9  12
ENDBRANCH   5   6
ENDBRANCH   4   5
ENDBRANCH   3   4
ENDBRANCH   2   3
TORSDOF 8
ENDMDL
MODEL      238
REMARK 921   NORMALIZED FREE ENERGY PREDICTED BY IDOCK:   -2.72 KCAL/MOL
REMARK 922        TOTAL FREE ENERGY PREDICTED BY IDOCK:   -5.12 KCAL/MOL
REMARK 923 INTER-LIGAND FREE ENERGY PREDICTED BY IDOCK:   -4.18 KCAL/MOL
REMARK 924 INTRA-LIGAND FREE ENERGY PREDICTED BY IDOCK:   -0.94 KCAL/MOL
REMARK 927      BINDING AFFINITY PREDICTED BY RF-SCORE:    0.00 PKD
ROOT
HETATM    1  C   UNL     1      -8.386   4.000  71.064  1.00  0.00    -0.090 C  
HETATM    2  C   UNL     1      -7.765   2.863  70.269  1.00  0.00    -0.043 C  
ENDROOT
BRANCH   2   3
HETATM    3  C   UNL     1      -7.924   3.070  68.764  1.00  0.00    -0.065 C  
BRANCH   3   4
HETATM    4  C   UNL     1      -9.289   3.668  68.429  1.00  0.00    -0.165 C  
BRANCH   4   5
HETATM    5  O   UNL     1      -9.086   4.910  67.746  1.00  0.00    -0.111 OA 
BRANCH   5   6
HETATM    6  C   UNL     1      -9.575   6.016  68.391  1.00  0.00    -0.120 A  
HETATM    7  C   UNL     1      -8.912   7.241  68.485  1.00  0.00    -0.130 A  
HETATM    8  C   UNL     1      -9.506   8.307  69.174  1.00  0.00    -0.155 A  
HETATM    9  C   UNL     1     -10.754   8.147  69.785  1.00  0.00    -0.229 A  
HETATM   10  C   UNL     1     -10.852   5.881  68.943  1.00  0.00    -0.373 A  
HETATM   11  C   UNL     1     -11.439   6.937  69.648  1.00  0.00    -0.204 A  
BRANCH   9  12
HETATM   12  C   UNL     1     -11.294   9.276  70.608  1.00  0.00    -0.275 C  
HETATM   13  O   UNL     1     -11.807   9.018  71.699  1.00  0.00    -0.312 OA 
BRANCH  12  14
HETATM   14  C   UNL     1     -11.254  10.689  70.060  1.00  0.00    -0.382 C  
BRANCH  14  15
HETATM   15  C   UNL     1     -11.711  10.691  68.599  1.00  0.00    -0.158 C  
BRANCH  15  16
HETATM   16  N   UNL     1     -11.251  11.822  67.783  1.00  0.00    -0.245 NA 
HETATM   17  C   UNL     1      -9.972  12.348  68.299  1.00  0.00    -0.224 C  
HETATM   18  C   UNL     1      -8.762  11.491  67.918  1.00  0.00    -0.144 C  
HETATM   19  C   UNL     1      -8.649  11.400  66.405  1.00  0.00    -0.174 C  
HETATM   20  C   UNL     1      -9.947  10.858  65.814  1.00  0.00    -0.299 C  
HETATM   21  C   UNL     1     -11.185  11.600  66.332  1.00  0.00    -0.287 C  
ENDBRANCH  15  16
ENDBRANCH  14  15
ENDBRANCH  12  14
ENDBRANCH   9  12
ENDBRANCH   5   6
ENDBRANCH   4   5
ENDBRANCH   3   4
ENDBRANCH   2   3
TORSDOF 8
ENDMDL
MODEL      239
REMARK 921   NORMALIZED FREE ENERGY PREDICTED BY IDOCK:   -2.71 KCAL/MOL
REMARK 922        TOTAL FREE ENERGY PREDICTED BY IDOCK:   -5.10 KCAL/MOL
REMARK 923 INTER-LIGAND FREE ENERGY PREDICTED BY IDOCK:   -4.52 KCAL/MOL
REMARK 924 INTRA-LIGAND FREE ENERGY PREDICTED BY IDOCK:   -0.58 KCAL/MOL
REMARK 927      BINDING AFFINITY PREDICTED BY RF-SCORE:    0.00 PKD
ROOT
HETATM    1  C   UNL     1     -12.996   6.713  71.400  1.00  0.00    -0.120 C  
HETATM    2  C   UNL     1     -14.401   7.276  71.536  1.00  0.00    -0.558 C  
ENDROOT
BRANCH   2   3
HETATM    3  C   UNL     1     -14.409   8.608  72.284  1.00  0.00    -0.486 C  
BRANCH   3   4
HETATM    4  C   UNL     1     -12.994   9.036  72.668  1.00  0.00    -0.270 C  
BRANCH   4   5
HETATM    5  O   UNL     1     -12.856  10.437  72.408  1.00  0.00    -0.223 OA 
BRANCH   5   6
HETATM    6  C   UNL     1     -12.071  10.753  71.329  1.00  0.00    -0.261 A  
HETATM    7  C   UNL     1     -12.186  11.924  70.577  1.00  0.00    -0.426 A  
HETATM    8  C   UNL     1     -11.330  12.144  69.490  1.00  0.00    -0.277 A  
HETATM    9  C   UNL     1     -10.371  11.189  69.139  1.00  0.00    -0.186 A  
HETATM   10  C   UNL     1     -11.067   9.833  71.019  1.00  0.00    -0.431 A  
HETATM   11  C   UNL     1     -10.223  10.040  69.922  1.00  0.00    -0.304 A  
BRANCH   9  12
HETATM   12  C   UNL     1      -9.560  11.414  67.901  1.00  0.00    -0.177 C  
HETATM   13  O   UNL     1      -9.072  10.437  67.329  1.00  0.00    -0.136 OA 
BRANCH  12  14
HETATM   14  C   UNL     1      -9.309  12.828  67.416  1.00  0.00    -0.193 C  
BRANCH  14  15
HETATM   15  C   UNL     1      -8.557  13.618  68.492  1.00  0.00    -0.103 C  
BRANCH  15  16
HETATM   16  N   UNL     1      -7.118  13.806  68.264  1.00  0.00    -0.096 NA 
HETATM   17  C   UNL     1      -6.390  13.847  69.546  1.00  0.00    -0.118 C  
HETATM   18  C   UNL     1      -6.180  12.465  70.172  1.00  0.00    -0.037 C  
HETATM   19  C   UNL     1      -5.393  11.580  69.219  1.00  0.00    -0.047 C  
HETATM   20  C   UNL     1      -6.103  11.500  67.871  1.00  0.00    -0.048 C  
HETATM   21  C   UNL     1      -6.478  12.880  67.320  1.00  0.00    -0.025 C  
ENDBRANCH  15  16
ENDBRANCH  14  15
ENDBRANCH  12  14
ENDBRANCH   9  12
ENDBRANCH   5   6
ENDBRANCH   4   5
ENDBRANCH   3   4
ENDBRANCH   2   3
TORSDOF 8
ENDMDL
MODEL      240
REMARK 921   NORMALIZED FREE ENERGY PREDICTED BY IDOCK:   -2.71 KCAL/MOL
REMARK 922        TOTAL FREE ENERGY PREDICTED BY IDOCK:   -5.09 KCAL/MOL
REMARK 923 INTER-LIGAND FREE ENERGY PREDICTED BY IDOCK:   -4.97 KCAL/MOL
REMARK 924 INTRA-LIGAND FREE ENERGY PREDICTED BY IDOCK:   -0.12 KCAL/MOL
REMARK 927      BINDING AFFINITY PREDICTED BY RF-SCORE:    0.00 PKD
ROOT
HETATM    1  C   UNL     1     -11.039  15.157  65.500  1.00  0.00    -0.347 C  
HETATM    2  C   UNL     1     -10.164  16.148  66.251  1.00  0.00    -0.333 C  
ENDROOT
BRANCH   2   3
HETATM    3  C   UNL     1     -10.773  16.537  67.597  1.00  0.00    -0.311 C  
BRANCH   3   4
HETATM    4  C   UNL     1     -10.380  15.544  68.689  1.00  0.00    -0.219 C  
BRANCH   4   5
HETATM    5  O   UNL     1     -11.573  15.056  69.312  1.00  0.00    -0.281 OA 
BRANCH   5   6
HETATM    6  C   UNL     1     -11.594  13.707  69.556  1.00  0.00    -0.301 A  
HETATM    7  C   UNL     1     -12.471  13.071  70.435  1.00  0.00    -0.266 A  
HETATM    8  C   UNL     1     -12.400  11.682  70.610  1.00  0.00    -0.437 A  
HETATM    9  C   UNL     1     -11.444  10.929  69.921  1.00  0.00    -0.402 A  
HETATM   10  C   UNL     1     -10.685  12.945  68.817  1.00  0.00    -0.249 A  
HETATM   11  C   UNL     1     -10.599  11.561  69.004  1.00  0.00    -0.207 A  
BRANCH   9  12
HETATM   12  C   UNL     1     -11.330   9.468  70.228  1.00  0.00    -0.236 C  
HETATM   13  O   UNL     1     -11.809   9.048  71.283  1.00  0.00    -0.282 OA 
BRANCH  12  14
HETATM   14  C   UNL     1     -10.584   8.558  69.273  1.00  0.00    -0.193 C  
BRANCH  14  15
HETATM   15  C   UNL     1     -10.759   7.099  69.705  1.00  0.00    -0.239 C  
BRANCH  15  16
HETATM   16  N   UNL     1      -9.564   6.250  69.601  1.00  0.00    -0.145 NA 
HETATM   17  C   UNL     1      -8.741   6.652  68.445  1.00  0.00    -0.122 C  
HETATM   18  C   UNL     1      -7.908   7.912  68.697  1.00  0.00    -0.119 C  
HETATM   19  C   UNL     1      -6.974   7.686  69.876  1.00  0.00    -0.054 C  
HETATM   20  C   UNL     1      -7.775   7.268  71.106  1.00  0.00    -0.092 C  
HETATM   21  C   UNL     1      -8.746   6.118  70.814  1.00  0.00    -0.136 C  
ENDBRANCH  15  16
ENDBRANCH  14  15
ENDBRANCH  12  14
ENDBRANCH   9  12
ENDBRANCH   5   6
ENDBRANCH   4   5
ENDBRANCH   3   4
ENDBRANCH   2   3
TORSDOF 8
ENDMDL
MODEL      241
REMARK 921   NORMALIZED FREE ENERGY PREDICTED BY IDOCK:   -2.70 KCAL/MOL
REMARK 922        TOTAL FREE ENERGY PREDICTED BY IDOCK:   -5.08 KCAL/MOL
REMARK 923 INTER-LIGAND FREE ENERGY PREDICTED BY IDOCK:   -4.31 KCAL/MOL
REMARK 924 INTRA-LIGAND FREE ENERGY PREDICTED BY IDOCK:   -0.76 KCAL/MOL
REMARK 927      BINDING AFFINITY PREDICTED BY RF-SCORE:    0.00 PKD
ROOT
HETATM    1  C   UNL     1      -9.125   2.609  63.698  1.00  0.00    -0.097 C  
HETATM    2  C   UNL     1      -7.728   3.068  64.086  1.00  0.00    -0.077 C  
ENDROOT
BRANCH   2   3
HETATM    3  C   UNL     1      -7.592   4.588  64.023  1.00  0.00    -0.071 C  
BRANCH   3   4
HETATM    4  C   UNL     1      -7.878   5.226  65.382  1.00  0.00    -0.094 C  
BRANCH   4   5
HETATM    5  O   UNL     1      -8.857   6.255  65.204  1.00  0.00    -0.028 OA 
BRANCH   5   6
HETATM    6  C   UNL     1      -9.156   6.974  66.333  1.00  0.00    -0.160 A  
HETATM    7  C   UNL     1     -10.266   6.749  67.149  1.00  0.00    -0.291 A  
HETATM    8  C   UNL     1     -10.476   7.550  68.280  1.00  0.00    -0.223 A  
HETATM    9  C   UNL     1      -9.589   8.586  68.588  1.00  0.00    -0.153 A  
HETATM   10  C   UNL     1      -8.235   7.965  66.681  1.00  0.00    -0.119 A  
HETATM   11  C   UNL     1      -8.452   8.779  67.799  1.00  0.00    -0.125 A  
BRANCH   9  12
HETATM   12  C   UNL     1      -9.918   9.487  69.738  1.00  0.00    -0.213 C  
HETATM   13  O   UNL     1      -9.063   9.671  70.607  1.00  0.00    -0.220 OA 
BRANCH  12  14
HETATM   14  C   UNL     1     -11.300  10.101  69.838  1.00  0.00    -0.335 C  
BRANCH  14  15
HETATM   15  C   UNL     1     -11.524  11.066  68.670  1.00  0.00    -0.308 C  
BRANCH  15  16
HETATM   16  N   UNL     1     -10.941  12.406  68.822  1.00  0.00    -0.240 NA 
HETATM   17  C   UNL     1      -9.729  12.543  67.991  1.00  0.00    -0.215 C  
HETATM   18  C   UNL     1     -10.030  12.767  66.506  1.00  0.00    -0.256 C  
HETATM   19  C   UNL     1     -10.858  14.030  66.332  1.00  0.00    -0.299 C  
HETATM   20  C   UNL     1     -12.129  13.944  67.171  1.00  0.00    -0.422 C  
HETATM   21  C   UNL     1     -11.850  13.542  68.624  1.00  0.00    -0.369 C  
ENDBRANCH  15  16
ENDBRANCH  14  15
ENDBRANCH  12  14
ENDBRANCH   9  12
ENDBRANCH   5   6
ENDBRANCH   4   5
ENDBRANCH   3   4
ENDBRANCH   2   3
TORSDOF 8
ENDMDL
MODEL      242
REMARK 921   NORMALIZED FREE ENERGY PREDICTED BY IDOCK:   -2.69 KCAL/MOL
REMARK 922        TOTAL FREE ENERGY PREDICTED BY IDOCK:   -5.07 KCAL/MOL
REMARK 923 INTER-LIGAND FREE ENERGY PREDICTED BY IDOCK:   -4.12 KCAL/MOL
REMARK 924 INTRA-LIGAND FREE ENERGY PREDICTED BY IDOCK:   -0.95 KCAL/MOL
REMARK 927      BINDING AFFINITY PREDICTED BY RF-SCORE:    0.00 PKD
ROOT
HETATM    1  C   UNL     1      -6.985  12.643  68.756  1.00  0.00    -0.096 C  
HETATM    2  C   UNL     1      -8.176  12.016  68.050  1.00  0.00    -0.156 C  
ENDROOT
BRANCH   2   3
HETATM    3  C   UNL     1      -8.487  12.718  66.729  1.00  0.00    -0.036 C  
BRANCH   3   4
HETATM    4  C   UNL     1      -9.914  12.427  66.270  1.00  0.00    -0.246 C  
BRANCH   4   5
HETATM    5  O   UNL     1      -9.868  11.419  65.253  1.00  0.00    -0.229 OA 
BRANCH   5   6
HETATM    6  C   UNL     1      -9.867  10.128  65.714  1.00  0.00    -0.266 A  
HETATM    7  C   UNL     1      -9.024   9.118  65.248  1.00  0.00    -0.246 A  
HETATM    8  C   UNL     1      -9.111   7.828  65.791  1.00  0.00    -0.063 A  
HETATM    9  C   UNL     1     -10.050   7.541  66.786  1.00  0.00    -0.313 A  
HETATM   10  C   UNL     1     -10.757   9.856  66.756  1.00  0.00    -0.154 A  
HETATM   11  C   UNL     1     -10.860   8.565  67.287  1.00  0.00    -0.076 A  
BRANCH   9  12
HETATM   12  C   UNL     1     -10.186   6.124  67.251  1.00  0.00    -0.191 C  
HETATM   13  O   UNL     1     -11.035   5.407  66.718  1.00  0.00    -0.196 OA 
BRANCH  12  14
HETATM   14  C   UNL     1      -9.326   5.626  68.396  1.00  0.00    -0.133 C  
BRANCH  14  15
HETATM   15  C   UNL     1     -10.188   5.439  69.647  1.00  0.00    -0.274 C  
BRANCH  15  16
HETATM   16  N   UNL     1     -10.687   6.671  70.274  1.00  0.00    -0.231 NA 
HETATM   17  C   UNL     1     -11.906   6.397  71.060  1.00  0.00    -0.258 C  
HETATM   18  C   UNL     1     -11.623   5.739  72.414  1.00  0.00    -0.320 C  
HETATM   19  C   UNL     1     -10.726   6.640  73.248  1.00  0.00    -0.315 C  
HETATM   20  C   UNL     1      -9.444   6.955  72.483  1.00  0.00    -0.154 C  
HETATM   21  C   UNL     1      -9.716   7.447  71.056  1.00  0.00    -0.164 C  
ENDBRANCH  15  16
ENDBRANCH  14  15
ENDBRANCH  12  14
ENDBRANCH   9  12
ENDBRANCH   5   6
ENDBRANCH   4   5
ENDBRANCH   3   4
ENDBRANCH   2   3
TORSDOF 8
ENDMDL
MODEL      243
REMARK 921   NORMALIZED FREE ENERGY PREDICTED BY IDOCK:   -2.68 KCAL/MOL
REMARK 922        TOTAL FREE ENERGY PREDICTED BY IDOCK:   -5.06 KCAL/MOL
REMARK 923 INTER-LIGAND FREE ENERGY PREDICTED BY IDOCK:   -4.25 KCAL/MOL
REMARK 924 INTRA-LIGAND FREE ENERGY PREDICTED BY IDOCK:   -0.81 KCAL/MOL
REMARK 927      BINDING AFFINITY PREDICTED BY RF-SCORE:    0.00 PKD
ROOT
HETATM    1  C   UNL     1      -6.175  19.134  64.799  1.00  0.00    -0.256 C  
HETATM    2  C   UNL     1      -5.866  18.716  66.228  1.00  0.00    -0.187 C  
ENDROOT
BRANCH   2   3
HETATM    3  C   UNL     1      -5.817  17.196  66.377  1.00  0.00    -0.166 C  
BRANCH   3   4
HETATM    4  C   UNL     1      -6.210  16.766  67.789  1.00  0.00    -0.144 C  
BRANCH   4   5
HETATM    5  O   UNL     1      -7.596  17.068  67.988  1.00  0.00    -0.173 OA 
BRANCH   5   6
HETATM    6  C   UNL     1      -8.464  16.058  67.662  1.00  0.00    -0.158 A  
HETATM    7  C   UNL     1      -8.119  14.709  67.574  1.00  0.00    -0.200 A  
HETATM    8  C   UNL     1      -9.090  13.759  67.230  1.00  0.00    -0.232 A  
HETATM    9  C   UNL     1     -10.402  14.156  66.955  1.00  0.00    -0.267 A  
HETATM   10  C   UNL     1      -9.791  16.444  67.455  1.00  0.00    -0.244 A  
HETATM   11  C   UNL     1     -10.759  15.501  67.091  1.00  0.00    -0.315 A  
BRANCH   9  12
HETATM   12  C   UNL     1     -11.375  13.123  66.478  1.00  0.00    -0.315 C  
HETATM   13  O   UNL     1     -12.050  13.366  65.475  1.00  0.00    -0.377 OA 
BRANCH  12  14
HETATM   14  C   UNL     1     -11.549  11.838  67.263  1.00  0.00    -0.344 C  
BRANCH  14  15
HETATM   15  C   UNL     1     -11.870  12.166  68.725  1.00  0.00    -0.303 C  
BRANCH  15  16
HETATM   16  N   UNL     1     -10.989  11.554  69.729  1.00  0.00    -0.076 NA 
HETATM   17  C   UNL     1     -11.690  11.419  71.021  1.00  0.00     0.363 C  
HETATM   18  C   UNL     1     -12.670  10.244  71.063  1.00  0.00    -0.491 C  
HETATM   19  C   UNL     1     -11.928   8.943  70.800  1.00  0.00    -0.184 C  
HETATM   20  C   UNL     1     -11.185   9.024  69.470  1.00  0.00     0.053 C  
HETATM   21  C   UNL     1     -10.336  10.295  69.347  1.00  0.00    -0.235 C  
ENDBRANCH  15  16
ENDBRANCH  14  15
ENDBRANCH  12  14
ENDBRANCH   9  12
ENDBRANCH   5   6
ENDBRANCH   4   5
ENDBRANCH   3   4
ENDBRANCH   2   3
TORSDOF 8
ENDMDL
MODEL      244
REMARK 921   NORMALIZED FREE ENERGY PREDICTED BY IDOCK:   -2.68 KCAL/MOL
REMARK 922        TOTAL FREE ENERGY PREDICTED BY IDOCK:   -5.05 KCAL/MOL
REMARK 923 INTER-LIGAND FREE ENERGY PREDICTED BY IDOCK:   -4.08 KCAL/MOL
REMARK 924 INTRA-LIGAND FREE ENERGY PREDICTED BY IDOCK:   -0.97 KCAL/MOL
REMARK 927      BINDING AFFINITY PREDICTED BY RF-SCORE:    0.00 PKD
ROOT
HETATM    1  C   UNL     1      -9.105   2.966  63.657  1.00  0.00    -0.096 C  
HETATM    2  C   UNL     1      -7.971   3.904  63.276  1.00  0.00    -0.079 C  
ENDROOT
BRANCH   2   3
HETATM    3  C   UNL     1      -8.407   5.368  63.315  1.00  0.00    -0.104 C  
BRANCH   3   4
HETATM    4  C   UNL     1      -7.743   6.112  64.473  1.00  0.00    -0.105 C  
BRANCH   4   5
HETATM    5  O   UNL     1      -7.908   5.337  65.666  1.00  0.00    -0.096 OA 
BRANCH   5   6
HETATM    6  C   UNL     1      -8.605   5.957  66.671  1.00  0.00    -0.119 A  
HETATM    7  C   UNL     1      -8.038   6.785  67.640  1.00  0.00    -0.116 A  
HETATM    8  C   UNL     1      -8.848   7.366  68.625  1.00  0.00    -0.126 A  
HETATM    9  C   UNL     1     -10.221   7.107  68.655  1.00  0.00    -0.186 A  
HETATM   10  C   UNL     1      -9.988   5.755  66.662  1.00  0.00    -0.212 A  
HETATM   11  C   UNL     1     -10.797   6.317  67.656  1.00  0.00    -0.433 A  
BRANCH   9  12
HETATM   12  C   UNL     1     -11.025   7.655  69.794  1.00  0.00    -0.170 C  
HETATM   13  O   UNL     1     -11.020   8.872  69.988  1.00  0.00    -0.236 OA 
BRANCH  12  14
HETATM   14  C   UNL     1     -11.772   6.704  70.708  1.00  0.00    -0.445 C  
BRANCH  14  15
HETATM   15  C   UNL     1     -10.789   5.715  71.341  1.00  0.00    -0.222 C  
BRANCH  15  16
HETATM   16  N   UNL     1     -10.544   5.883  72.780  1.00  0.00    -0.213 NA 
HETATM   17  C   UNL     1      -9.237   5.309  73.154  1.00  0.00    -0.132 C  
HETATM   18  C   UNL     1      -8.049   6.199  72.776  1.00  0.00    -0.106 C  
HETATM   19  C   UNL     1      -8.177   7.549  73.463  1.00  0.00    -0.179 C  
HETATM   20  C   UNL     1      -9.514   8.193  73.109  1.00  0.00    -0.316 C  
HETATM   21  C   UNL     1     -10.699   7.242  73.316  1.00  0.00    -0.383 C  
ENDBRANCH  15  16
ENDBRANCH  14  15
ENDBRANCH  12  14
ENDBRANCH   9  12
ENDBRANCH   5   6
ENDBRANCH   4   5
ENDBRANCH   3   4
ENDBRANCH   2   3
TORSDOF 8
ENDMDL
MODEL      245
REMARK 921   NORMALIZED FREE ENERGY PREDICTED BY IDOCK:   -2.62 KCAL/MOL
REMARK 922        TOTAL FREE ENERGY PREDICTED BY IDOCK:   -4.97 KCAL/MOL
REMARK 923 INTER-LIGAND FREE ENERGY PREDICTED BY IDOCK:   -4.21 KCAL/MOL
REMARK 924 INTRA-LIGAND FREE ENERGY PREDICTED BY IDOCK:   -0.76 KCAL/MOL
REMARK 927      BINDING AFFINITY PREDICTED BY RF-SCORE:    0.00 PKD
ROOT
HETATM    1  C   UNL     1     -10.301  18.776  68.763  1.00  0.00    -0.192 C  
HETATM    2  C   UNL     1      -9.635  18.701  67.399  1.00  0.00    -0.317 C  
ENDROOT
BRANCH   2   3
HETATM    3  C   UNL     1     -10.657  18.752  66.264  1.00  0.00    -0.429 C  
BRANCH   3   4
HETATM    4  C   UNL     1     -10.803  17.389  65.590  1.00  0.00    -0.011 C  
BRANCH   4   5
HETATM    5  O   UNL     1      -9.531  16.732  65.610  1.00  0.00    -0.523 OA 
BRANCH   5   6
HETATM    6  C   UNL     1      -9.560  15.421  66.009  1.00  0.00    -0.347 A  
HETATM    7  C   UNL     1      -9.979  14.356  65.210  1.00  0.00    -0.314 A  
HETATM    8  C   UNL     1      -9.970  13.051  65.723  1.00  0.00    -0.260 A  
HETATM    9  C   UNL     1      -9.560  12.810  67.038  1.00  0.00    -0.229 A  
HETATM   10  C   UNL     1      -9.086  15.169  67.299  1.00  0.00    -0.210 A  
HETATM   11  C   UNL     1      -9.094  13.871  67.820  1.00  0.00    -0.191 A  
BRANCH   9  12
HETATM   12  C   UNL     1      -9.678  11.419  67.578  1.00  0.00    -0.178 C  
HETATM   13  O   UNL     1     -10.804  10.947  67.751  1.00  0.00    -0.218 OA 
BRANCH  12  14
HETATM   14  C   UNL     1      -8.426  10.651  67.952  1.00  0.00    -0.120 C  
BRANCH  14  15
HETATM   15  C   UNL     1      -8.534   9.208  67.451  1.00  0.00    -0.115 C  
BRANCH  15  16
HETATM   16  N   UNL     1      -7.303   8.625  66.900  1.00  0.00    -0.079 NA 
HETATM   17  C   UNL     1      -7.523   7.217  66.516  1.00  0.00    -0.088 C  
HETATM   18  C   UNL     1      -8.275   7.056  65.192  1.00  0.00    -0.113 C  
HETATM   19  C   UNL     1      -7.497   7.727  64.071  1.00  0.00    -0.103 C  
HETATM   20  C   UNL     1      -7.243   9.192  64.414  1.00  0.00    -0.099 C  
HETATM   21  C   UNL     1      -6.652   9.374  65.817  1.00  0.00    -0.073 C  
ENDBRANCH  15  16
ENDBRANCH  14  15
ENDBRANCH  12  14
ENDBRANCH   9  12
ENDBRANCH   5   6
ENDBRANCH   4   5
ENDBRANCH   3   4
ENDBRANCH   2   3
TORSDOF 8
ENDMDL
MODEL      246
REMARK 921   NORMALIZED FREE ENERGY PREDICTED BY IDOCK:   -2.61 KCAL/MOL
REMARK 922        TOTAL FREE ENERGY PREDICTED BY IDOCK:   -4.96 KCAL/MOL
REMARK 923 INTER-LIGAND FREE ENERGY PREDICTED BY IDOCK:   -4.42 KCAL/MOL
REMARK 924 INTRA-LIGAND FREE ENERGY PREDICTED BY IDOCK:   -0.54 KCAL/MOL
REMARK 927      BINDING AFFINITY PREDICTED BY RF-SCORE:    0.00 PKD
ROOT
HETATM    1  C   UNL     1      -5.909   7.867  70.935  1.00  0.00    -0.034 C  
HETATM    2  C   UNL     1      -7.415   7.661  70.939  1.00  0.00    -0.071 C  
ENDROOT
BRANCH   2   3
HETATM    3  C   UNL     1      -8.004   7.749  69.533  1.00  0.00    -0.117 C  
BRANCH   3   4
HETATM    4  C   UNL     1      -8.360   9.190  69.171  1.00  0.00    -0.123 C  
BRANCH   4   5
HETATM    5  O   UNL     1      -9.080   9.185  67.933  1.00  0.00    -0.128 OA 
BRANCH   5   6
HETATM    6  C   UNL     1      -9.327  10.422  67.398  1.00  0.00    -0.145 A  
HETATM    7  C   UNL     1      -9.548  10.674  66.043  1.00  0.00    -0.244 A  
HETATM    8  C   UNL     1      -9.789  11.983  65.605  1.00  0.00    -0.265 A  
HETATM    9  C   UNL     1      -9.792  13.045  66.515  1.00  0.00    -0.263 A  
HETATM   10  C   UNL     1      -9.398  11.475  68.314  1.00  0.00    -0.190 A  
HETATM   11  C   UNL     1      -9.619  12.786  67.878  1.00  0.00    -0.211 A  
BRANCH   9  12
HETATM   12  C   UNL     1      -9.936  14.438  65.985  1.00  0.00    -0.317 C  
HETATM   13  O   UNL     1     -10.203  14.590  64.791  1.00  0.00    -0.390 OA 
BRANCH  12  14
HETATM   14  C   UNL     1      -9.696  15.618  66.904  1.00  0.00    -0.240 C  
BRANCH  14  15
HETATM   15  C   UNL     1      -8.705  16.588  66.253  1.00  0.00    -0.333 C  
BRANCH  15  16
HETATM   16  N   UNL     1      -7.750  17.237  67.161  1.00  0.00    -0.185 NA 
HETATM   17  C   UNL     1      -6.368  17.053  66.679  1.00  0.00    -0.212 C  
HETATM   18  C   UNL     1      -5.999  17.979  65.516  1.00  0.00    -0.195 C  
HETATM   19  C   UNL     1      -6.152  19.430  65.944  1.00  0.00    -0.207 C  
HETATM   20  C   UNL     1      -7.568  19.680  66.452  1.00  0.00    -0.302 C  
HETATM   21  C   UNL     1      -8.012  18.644  67.492  1.00  0.00    -0.244 C  
ENDBRANCH  15  16
ENDBRANCH  14  15
ENDBRANCH  12  14
ENDBRANCH   9  12
ENDBRANCH   5   6
ENDBRANCH   4   5
ENDBRANCH   3   4
ENDBRANCH   2   3
TORSDOF 8
ENDMDL
MODEL      247
REMARK 921   NORMALIZED FREE ENERGY PREDICTED BY IDOCK:   -2.61 KCAL/MOL
REMARK 922        TOTAL FREE ENERGY PREDICTED BY IDOCK:   -4.95 KCAL/MOL
REMARK 923 INTER-LIGAND FREE ENERGY PREDICTED BY IDOCK:   -4.65 KCAL/MOL
REMARK 924 INTRA-LIGAND FREE ENERGY PREDICTED BY IDOCK:   -0.31 KCAL/MOL
REMARK 927      BINDING AFFINITY PREDICTED BY RF-SCORE:    0.00 PKD
ROOT
HETATM    1  C   UNL     1     -10.125  20.441  68.343  1.00  0.00    -0.224 C  
HETATM    2  C   UNL     1     -10.002  18.997  67.885  1.00  0.00    -0.427 C  
ENDROOT
BRANCH   2   3
HETATM    3  C   UNL     1     -10.738  18.754  66.568  1.00  0.00    -0.335 C  
BRANCH   3   4
HETATM    4  C   UNL     1     -10.389  17.386  65.984  1.00  0.00    -0.304 C  
BRANCH   4   5
HETATM    5  O   UNL     1      -8.968  17.307  65.827  1.00  0.00    -0.521 OA 
BRANCH   5   6
HETATM    6  C   UNL     1      -8.371  16.247  66.459  1.00  0.00    -0.308 A  
HETATM    7  C   UNL     1      -7.108  16.282  67.052  1.00  0.00    -0.259 A  
HETATM    8  C   UNL     1      -6.593  15.135  67.670  1.00  0.00    -0.195 A  
HETATM    9  C   UNL     1      -7.330  13.947  67.683  1.00  0.00    -0.186 A  
HETATM   10  C   UNL     1      -9.134  15.079  66.534  1.00  0.00    -0.319 A  
HETATM   11  C   UNL     1      -8.615  13.926  67.133  1.00  0.00    -0.217 A  
BRANCH   9  12
HETATM   12  C   UNL     1      -6.691  12.717  68.252  1.00  0.00    -0.087 C  
HETATM   13  O   UNL     1      -6.409  12.700  69.452  1.00  0.00    -0.104 OA 
BRANCH  12  14
HETATM   14  C   UNL     1      -6.353  11.557  67.337  1.00  0.00    -0.091 C  
BRANCH  14  15
HETATM   15  C   UNL     1      -7.435  11.414  66.263  1.00  0.00     0.047 C  
BRANCH  15  16
HETATM   16  N   UNL     1      -7.987  10.064  66.082  1.00  0.00    -0.109 NA 
HETATM   17  C   UNL     1      -8.090   9.368  67.379  1.00  0.00    -0.110 C  
HETATM   18  C   UNL     1      -9.288   9.819  68.220  1.00  0.00    -0.134 C  
HETATM   19  C   UNL     1     -10.578   9.571  67.455  1.00  0.00    -0.338 C  
HETATM   20  C   UNL     1     -10.528  10.273  66.101  1.00  0.00    -0.200 C  
HETATM   21  C   UNL     1      -9.242   9.965  65.326  1.00  0.00    -0.226 C  
ENDBRANCH  15  16
ENDBRANCH  14  15
ENDBRANCH  12  14
ENDBRANCH   9  12
ENDBRANCH   5   6
ENDBRANCH   4   5
ENDBRANCH   3   4
ENDBRANCH   2   3
TORSDOF 8
ENDMDL
MODEL      248
REMARK 921   NORMALIZED FREE ENERGY PREDICTED BY IDOCK:   -2.59 KCAL/MOL
REMARK 922        TOTAL FREE ENERGY PREDICTED BY IDOCK:   -4.92 KCAL/MOL
REMARK 923 INTER-LIGAND FREE ENERGY PREDICTED BY IDOCK:   -4.33 KCAL/MOL
REMARK 924 INTRA-LIGAND FREE ENERGY PREDICTED BY IDOCK:   -0.59 KCAL/MOL
REMARK 927      BINDING AFFINITY PREDICTED BY RF-SCORE:    0.00 PKD
ROOT
HETATM    1  C   UNL     1      -8.372  13.163  67.948  1.00  0.00    -0.170 C  
HETATM    2  C   UNL     1      -9.761  13.693  68.269  1.00  0.00    -0.231 C  
ENDROOT
BRANCH   2   3
HETATM    3  C   UNL     1     -10.828  12.608  68.130  1.00  0.00    -0.250 C  
BRANCH   3   4
HETATM    4  C   UNL     1     -10.977  11.810  69.424  1.00  0.00    -0.125 C  
BRANCH   4   5
HETATM    5  O   UNL     1     -10.011  10.753  69.421  1.00  0.00    -0.198 OA 
BRANCH   5   6
HETATM    6  C   UNL     1     -10.166   9.820  70.414  1.00  0.00    -0.281 A  
HETATM    7  C   UNL     1     -11.305   9.687  71.209  1.00  0.00    -0.458 A  
HETATM    8  C   UNL     1     -11.354   8.697  72.200  1.00  0.00    -0.434 A  
HETATM    9  C   UNL     1     -10.260   7.851  72.410  1.00  0.00    -0.327 A  
HETATM   10  C   UNL     1      -9.102   8.930  70.579  1.00  0.00    -0.233 A  
HETATM   11  C   UNL     1      -9.139   7.953  71.580  1.00  0.00    -0.175 A  
BRANCH   9  12
HETATM   12  C   UNL     1     -10.313   6.887  73.555  1.00  0.00    -0.338 C  
HETATM   13  O   UNL     1      -9.647   7.132  74.563  1.00  0.00    -0.177 OA 
BRANCH  12  14
HETATM   14  C   UNL     1     -11.129   5.616  73.428  1.00  0.00    -0.238 C  
BRANCH  14  15
HETATM   15  C   UNL     1     -10.801   4.922  72.103  1.00  0.00    -0.066 C  
BRANCH  15  16
HETATM   16  N   UNL     1      -9.969   3.714  72.199  1.00  0.00    -0.169 NA 
HETATM   17  C   UNL     1      -8.756   3.853  71.371  1.00  0.00    -0.094 C  
HETATM   18  C   UNL     1      -7.678   4.731  72.011  1.00  0.00    -0.095 C  
HETATM   19  C   UNL     1      -7.261   4.143  73.350  1.00  0.00    -0.070 C  
HETATM   20  C   UNL     1      -8.480   3.979  74.252  1.00  0.00    -0.096 C  
HETATM   21  C   UNL     1      -9.637   3.254  73.554  1.00  0.00    -0.106 C  
ENDBRANCH  15  16
ENDBRANCH  14  15
ENDBRANCH  12  14
ENDBRANCH   9  12
ENDBRANCH   5   6
ENDBRANCH   4   5
ENDBRANCH   3   4
ENDBRANCH   2   3
TORSDOF 8
ENDMDL
MODEL      249
REMARK 921   NORMALIZED FREE ENERGY PREDICTED BY IDOCK:   -2.57 KCAL/MOL
REMARK 922        TOTAL FREE ENERGY PREDICTED BY IDOCK:   -4.89 KCAL/MOL
REMARK 923 INTER-LIGAND FREE ENERGY PREDICTED BY IDOCK:   -4.49 KCAL/MOL
REMARK 924 INTRA-LIGAND FREE ENERGY PREDICTED BY IDOCK:   -0.40 KCAL/MOL
REMARK 927      BINDING AFFINITY PREDICTED BY RF-SCORE:    0.00 PKD
ROOT
HETATM    1  C   UNL     1     -10.203   5.095  70.582  1.00  0.00    -0.326 C  
HETATM    2  C   UNL     1      -9.472   5.803  71.711  1.00  0.00    -0.167 C  
ENDROOT
BRANCH   2   3
HETATM    3  C   UNL     1      -9.722   7.310  71.693  1.00  0.00    -0.166 C  
BRANCH   3   4
HETATM    4  C   UNL     1      -8.524   8.062  71.115  1.00  0.00    -0.123 C  
BRANCH   4   5
HETATM    5  O   UNL     1      -8.610   8.026  69.686  1.00  0.00    -0.132 OA 
BRANCH   5   6
HETATM    6  C   UNL     1      -8.890   9.228  69.089  1.00  0.00    -0.141 A  
HETATM    7  C   UNL     1      -7.930  10.128  68.624  1.00  0.00    -0.103 A  
HETATM    8  C   UNL     1      -8.330  11.333  68.031  1.00  0.00    -0.136 A  
HETATM    9  C   UNL     1      -9.688  11.648  67.916  1.00  0.00    -0.181 A  
HETATM   10  C   UNL     1     -10.246   9.514  68.911  1.00  0.00    -0.213 A  
HETATM   11  C   UNL     1     -10.649  10.725  68.336  1.00  0.00    -0.228 A  
BRANCH   9  12
HETATM   12  C   UNL     1     -10.064  12.996  67.382  1.00  0.00    -0.231 C  
HETATM   13  O   UNL     1      -9.164  13.783  67.080  1.00  0.00    -0.223 OA 
BRANCH  12  14
HETATM   14  C   UNL     1     -11.526  13.381  67.282  1.00  0.00    -0.374 C  
BRANCH  14  15
HETATM   15  C   UNL     1     -12.142  13.442  68.683  1.00  0.00    -0.246 C  
BRANCH  15  16
HETATM   16  N   UNL     1     -12.490  14.783  69.174  1.00  0.00    -0.055 NA 
HETATM   17  C   UNL     1     -13.177  14.696  70.477  1.00  0.00    -0.120 C  
HETATM   18  C   UNL     1     -12.228  14.436  71.651  1.00  0.00    -0.385 C  
HETATM   19  C   UNL     1     -11.201  15.553  71.742  1.00  0.00    -0.376 C  
HETATM   20  C   UNL     1     -10.455  15.687  70.418  1.00  0.00    -0.211 C  
HETATM   21  C   UNL     1     -11.402  15.769  69.214  1.00  0.00    -0.350 C  
ENDBRANCH  15  16
ENDBRANCH  14  15
ENDBRANCH  12  14
ENDBRANCH   9  12
ENDBRANCH   5   6
ENDBRANCH   4   5
ENDBRANCH   3   4
ENDBRANCH   2   3
TORSDOF 8
ENDMDL
MODEL      250
REMARK 921   NORMALIZED FREE ENERGY PREDICTED BY IDOCK:   -2.56 KCAL/MOL
REMARK 922        TOTAL FREE ENERGY PREDICTED BY IDOCK:   -4.88 KCAL/MOL
REMARK 923 INTER-LIGAND FREE ENERGY PREDICTED BY IDOCK:   -4.01 KCAL/MOL
REMARK 924 INTRA-LIGAND FREE ENERGY PREDICTED BY IDOCK:   -0.87 KCAL/MOL
REMARK 927      BINDING AFFINITY PREDICTED BY RF-SCORE:    0.00 PKD
ROOT
HETATM    1  C   UNL     1      -9.878   9.918  65.288  1.00  0.00    -0.373 C  
HETATM    2  C   UNL     1     -10.240  11.137  66.120  1.00  0.00    -0.293 C  
ENDROOT
BRANCH   2   3
HETATM    3  C   UNL     1      -9.031  11.693  66.870  1.00  0.00    -0.191 C  
BRANCH   3   4
HETATM    4  C   UNL     1      -7.913  10.655  66.963  1.00  0.00    -0.121 C  
BRANCH   4   5
HETATM    5  O   UNL     1      -7.189  10.875  68.178  1.00  0.00    -0.080 OA 
BRANCH   5   6
HETATM    6  C   UNL     1      -7.126   9.795  69.021  1.00  0.00    -0.067 A  
HETATM    7  C   UNL     1      -6.314   8.677  68.823  1.00  0.00    -0.049 A  
HETATM    8  C   UNL     1      -6.332   7.627  69.750  1.00  0.00    -0.031 A  
HETATM    9  C   UNL     1      -7.171   7.683  70.867  1.00  0.00    -0.062 A  
HETATM   10  C   UNL     1      -7.912   9.880  70.173  1.00  0.00    -0.181 A  
HETATM   11  C   UNL     1      -7.946   8.825  71.091  1.00  0.00    -0.170 A  
BRANCH   9  12
HETATM   12  C   UNL     1      -7.242   6.488  71.767  1.00  0.00    -0.086 C  
HETATM   13  O   UNL     1      -6.449   6.410  72.708  1.00  0.00    -0.061 OA 
BRANCH  12  14
HETATM   14  C   UNL     1      -8.237   5.384  71.469  1.00  0.00    -0.118 C  
BRANCH  14  15
HETATM   15  C   UNL     1      -9.319   5.905  70.520  1.00  0.00    -0.163 C  
BRANCH  15  16
HETATM   16  N   UNL     1     -10.704   5.791  70.999  1.00  0.00    -0.259 NA 
HETATM   17  C   UNL     1     -10.753   5.883  72.470  1.00  0.00    -0.234 C  
HETATM   18  C   UNL     1     -10.615   7.315  72.997  1.00  0.00    -0.371 C  
HETATM   19  C   UNL     1     -11.735   8.179  72.440  1.00  0.00    -0.461 C  
HETATM   20  C   UNL     1     -11.731   8.124  70.915  1.00  0.00    -0.259 C  
HETATM   21  C   UNL     1     -11.688   6.688  70.378  1.00  0.00    -0.386 C  
ENDBRANCH  15  16
ENDBRANCH  14  15
ENDBRANCH  12  14
ENDBRANCH   9  12
ENDBRANCH   5   6
ENDBRANCH   4   5
ENDBRANCH   3   4
ENDBRANCH   2   3
TORSDOF 8
ENDMDL
MODEL      251
REMARK 921   NORMALIZED FREE ENERGY PREDICTED BY IDOCK:   -2.56 KCAL/MOL
REMARK 922        TOTAL FREE ENERGY PREDICTED BY IDOCK:   -4.88 KCAL/MOL
REMARK 923 INTER-LIGAND FREE ENERGY PREDICTED BY IDOCK:   -3.95 KCAL/MOL
REMARK 924 INTRA-LIGAND FREE ENERGY PREDICTED BY IDOCK:   -0.93 KCAL/MOL
REMARK 927      BINDING AFFINITY PREDICTED BY RF-SCORE:    0.00 PKD
ROOT
HETATM    1  C   UNL     1     -11.877  11.967  69.820  1.00  0.00    -0.401 C  
HETATM    2  C   UNL     1     -10.994  11.711  68.609  1.00  0.00    -0.266 C  
ENDROOT
BRANCH   2   3
HETATM    3  C   UNL     1     -11.606  12.279  67.330  1.00  0.00    -0.427 C  
BRANCH   3   4
HETATM    4  C   UNL     1     -10.551  12.979  66.476  1.00  0.00    -0.282 C  
BRANCH   4   5
HETATM    5  O   UNL     1     -10.232  12.136  65.364  1.00  0.00    -0.258 OA 
BRANCH   5   6
HETATM    6  C   UNL     1      -9.379  11.101  65.644  1.00  0.00    -0.219 A  
HETATM    7  C   UNL     1      -8.122  11.243  66.234  1.00  0.00    -0.108 A  
HETATM    8  C   UNL     1      -7.329  10.112  66.473  1.00  0.00    -0.108 A  
HETATM    9  C   UNL     1      -7.782   8.841  66.109  1.00  0.00    -0.101 A  
HETATM   10  C   UNL     1      -9.858   9.822  65.344  1.00  0.00    -0.365 A  
HETATM   11  C   UNL     1      -9.061   8.693  65.564  1.00  0.00    -0.190 A  
BRANCH   9  12
HETATM   12  C   UNL     1      -6.853   7.678  66.277  1.00  0.00    -0.062 C  
HETATM   13  O   UNL     1      -6.567   7.004  65.285  1.00  0.00    -0.045 OA 
BRANCH  12  14
HETATM   14  C   UNL     1      -6.339   7.323  67.657  1.00  0.00    -0.048 C  
BRANCH  14  15
HETATM   15  C   UNL     1      -7.318   6.366  68.344  1.00  0.00    -0.087 C  
BRANCH  15  16
HETATM   16  N   UNL     1      -8.682   6.875  68.542  1.00  0.00    -0.125 NA 
HETATM   17  C   UNL     1      -9.620   5.763  68.787  1.00  0.00    -0.127 C  
HETATM   18  C   UNL     1      -9.547   5.206  70.211  1.00  0.00    -0.249 C  
HETATM   19  C   UNL     1      -9.860   6.306  71.212  1.00  0.00    -0.197 C  
HETATM   20  C   UNL     1      -8.915   7.486  71.007  1.00  0.00    -0.147 C  
HETATM   21  C   UNL     1      -8.846   7.937  69.543  1.00  0.00    -0.142 C  
ENDBRANCH  15  16
ENDBRANCH  14  15
ENDBRANCH  12  14
ENDBRANCH   9  12
ENDBRANCH   5   6
ENDBRANCH   4   5
ENDBRANCH   3   4
ENDBRANCH   2   3
TORSDOF 8
ENDMDL
MODEL      252
REMARK 921   NORMALIZED FREE ENERGY PREDICTED BY IDOCK:   -2.52 KCAL/MOL
REMARK 922        TOTAL FREE ENERGY PREDICTED BY IDOCK:   -4.82 KCAL/MOL
REMARK 923 INTER-LIGAND FREE ENERGY PREDICTED BY IDOCK:   -4.18 KCAL/MOL
REMARK 924 INTRA-LIGAND FREE ENERGY PREDICTED BY IDOCK:   -0.63 KCAL/MOL
REMARK 927      BINDING AFFINITY PREDICTED BY RF-SCORE:    0.00 PKD
ROOT
HETATM    1  C   UNL     1      -8.015   5.191  64.446  1.00  0.00    -0.107 C  
HETATM    2  C   UNL     1      -7.246   6.424  64.000  1.00  0.00    -0.062 C  
ENDROOT
BRANCH   2   3
HETATM    3  C   UNL     1      -8.152   7.648  63.885  1.00  0.00    -0.041 C  
BRANCH   3   4
HETATM    4  C   UNL     1      -8.736   8.034  65.243  1.00  0.00    -0.029 C  
BRANCH   4   5
HETATM    5  O   UNL     1      -9.348   9.323  65.126  1.00  0.00    -0.240 OA 
BRANCH   5   6
HETATM    6  C   UNL     1      -9.898   9.813  66.282  1.00  0.00    -0.250 A  
HETATM    7  C   UNL     1     -10.043   9.087  67.465  1.00  0.00    -0.285 A  
HETATM    8  C   UNL     1     -10.623   9.690  68.590  1.00  0.00    -0.246 A  
HETATM    9  C   UNL     1     -11.074  11.012  68.530  1.00  0.00    -0.297 A  
HETATM   10  C   UNL     1     -10.286  11.155  66.246  1.00  0.00    -0.286 A  
HETATM   11  C   UNL     1     -10.883  11.754  67.361  1.00  0.00    -0.299 A  
BRANCH   9  12
HETATM   12  C   UNL     1     -11.792  11.574  69.718  1.00  0.00    -0.357 C  
HETATM   13  O   UNL     1     -11.865  10.891  70.741  1.00  0.00    -0.333 OA 
BRANCH  12  14
HETATM   14  C   UNL     1     -12.456  12.933  69.618  1.00  0.00     0.084 C  
BRANCH  14  15
HETATM   15  C   UNL     1     -11.672  13.955  70.447  1.00  0.00    -0.199 C  
BRANCH  15  16
HETATM   16  N   UNL     1     -11.467  15.268  69.821  1.00  0.00    -0.289 NA 
HETATM   17  C   UNL     1     -10.176  15.847  70.241  1.00  0.00     0.015 C  
HETATM   18  C   UNL     1      -8.971  15.237  69.519  1.00  0.00    -0.183 C  
HETATM   19  C   UNL     1      -9.107  15.445  68.020  1.00  0.00    -0.175 C  
HETATM   20  C   UNL     1     -10.428  14.862  67.527  1.00  0.00    -0.254 C  
HETATM   21  C   UNL     1     -11.626  15.330  68.362  1.00  0.00    -0.349 C  
ENDBRANCH  15  16
ENDBRANCH  14  15
ENDBRANCH  12  14
ENDBRANCH   9  12
ENDBRANCH   5   6
ENDBRANCH   4   5
ENDBRANCH   3   4
ENDBRANCH   2   3
TORSDOF 8
ENDMDL
MODEL      253
REMARK 921   NORMALIZED FREE ENERGY PREDICTED BY IDOCK:   -2.47 KCAL/MOL
REMARK 922        TOTAL FREE ENERGY PREDICTED BY IDOCK:   -4.74 KCAL/MOL
REMARK 923 INTER-LIGAND FREE ENERGY PREDICTED BY IDOCK:   -5.31 KCAL/MOL
REMARK 924 INTRA-LIGAND FREE ENERGY PREDICTED BY IDOCK:    0.57 KCAL/MOL
REMARK 927      BINDING AFFINITY PREDICTED BY RF-SCORE:    0.00 PKD
ROOT
HETATM    1  C   UNL     1     -10.069  19.846  68.894  1.00  0.00    -0.438 C  
HETATM    2  C   UNL     1      -9.575  19.443  67.514  1.00  0.00    -0.415 C  
ENDROOT
BRANCH   2   3
HETATM    3  C   UNL     1     -10.710  19.417  66.491  1.00  0.00    -0.516 C  
BRANCH   3   4
HETATM    4  C   UNL     1     -10.688  18.127  65.674  1.00  0.00    -0.032 C  
BRANCH   4   5
HETATM    5  O   UNL     1      -9.340  17.647  65.616  1.00  0.00    -0.435 OA 
BRANCH   5   6
HETATM    6  C   UNL     1      -9.114  16.466  66.274  1.00  0.00    -0.327 A  
HETATM    7  C   UNL     1      -8.648  16.363  67.586  1.00  0.00    -0.181 A  
HETATM    8  C   UNL     1      -8.450  15.100  68.160  1.00  0.00    -0.152 A  
HETATM    9  C   UNL     1      -8.698  13.939  67.421  1.00  0.00    -0.208 A  
HETATM   10  C   UNL     1      -9.427  15.306  65.562  1.00  0.00    -0.141 A  
HETATM   11  C   UNL     1      -9.211  14.043  66.125  1.00  0.00    -0.062 A  
BRANCH   9  12
HETATM   12  C   UNL     1      -8.360  12.616  68.036  1.00  0.00    -0.175 C  
HETATM   13  O   UNL     1      -7.180  12.370  68.294  1.00  0.00    -0.087 OA 
BRANCH  12  14
HETATM   14  C   UNL     1      -9.457  11.597  68.271  1.00  0.00    -0.191 C  
BRANCH  14  15
HETATM   15  C   UNL     1     -10.522  11.722  67.178  1.00  0.00    -0.220 C  
BRANCH  15  16
HETATM   16  N   UNL     1     -11.907  11.877  67.643  1.00  0.00    -0.583 NA 
HETATM   17  C   UNL     1     -12.148  11.050  68.841  1.00  0.00    -0.169 C  
HETATM   18  C   UNL     1     -11.574  11.654  70.126  1.00  0.00    -0.303 C  
HETATM   19  C   UNL     1     -12.192  13.021  70.374  1.00  0.00    -0.386 C  
HETATM   20  C   UNL     1     -11.971  13.924  69.164  1.00  0.00    -0.404 C  
HETATM   21  C   UNL     1     -12.379  13.253  67.847  1.00  0.00     0.111 C  
ENDBRANCH  15  16
ENDBRANCH  14  15
ENDBRANCH  12  14
ENDBRANCH   9  12
ENDBRANCH   5   6
ENDBRANCH   4   5
ENDBRANCH   3   4
ENDBRANCH   2   3
TORSDOF 8
ENDMDL
MODEL      254
REMARK 921   NORMALIZED FREE ENERGY PREDICTED BY IDOCK:   -2.42 KCAL/MOL
REMARK 922        TOTAL FREE ENERGY PREDICTED BY IDOCK:   -4.68 KCAL/MOL
REMARK 923 INTER-LIGAND FREE ENERGY PREDICTED BY IDOCK:   -4.29 KCAL/MOL
REMARK 924 INTRA-LIGAND FREE ENERGY PREDICTED BY IDOCK:   -0.39 KCAL/MOL
REMARK 927      BINDING AFFINITY PREDICTED BY RF-SCORE:    0.00 PKD
ROOT
HETATM    1  C   UNL     1      -8.611   7.072  74.400  1.00  0.00    -0.212 C  
HETATM    2  C   UNL     1      -9.982   6.420  74.474  1.00  0.00    -0.370 C  
ENDROOT
BRANCH   2   3
HETATM    3  C   UNL     1      -9.888   4.896  74.435  1.00  0.00    -0.200 C  
BRANCH   3   4
HETATM    4  C   UNL     1     -10.588   4.330  73.201  1.00  0.00    -0.195 C  
BRANCH   4   5
HETATM    5  O   UNL     1     -11.542   5.292  72.737  1.00  0.00    -0.284 OA 
BRANCH   5   6
HETATM    6  C   UNL     1     -11.322   5.764  71.469  1.00  0.00    -0.125 A  
HETATM    7  C   UNL     1     -12.038   6.802  70.871  1.00  0.00    -0.421 A  
HETATM    8  C   UNL     1     -11.729   7.204  69.565  1.00  0.00     0.204 A  
HETATM    9  C   UNL     1     -10.718   6.558  68.846  1.00  0.00    -0.318 A  
HETATM   10  C   UNL     1     -10.266   5.167  70.775  1.00  0.00    -0.308 A  
HETATM   11  C   UNL     1      -9.968   5.552  69.463  1.00  0.00    -0.278 A  
BRANCH   9  12
HETATM   12  C   UNL     1     -10.503   6.942  67.415  1.00  0.00    -0.269 C  
HETATM   13  O   UNL     1     -10.542   6.060  66.555  1.00  0.00    -0.228 OA 
BRANCH  12  14
HETATM   14  C   UNL     1     -10.187   8.383  67.065  1.00  0.00    -0.377 C  
BRANCH  14  15
HETATM   15  C   UNL     1      -9.034   8.430  66.059  1.00  0.00    -0.184 C  
BRANCH  15  16
HETATM   16  N   UNL     1      -8.603   9.770  65.636  1.00  0.00    -0.136 NA 
HETATM   17  C   UNL     1      -9.252  10.807  66.461  1.00  0.00    -0.168 C  
HETATM   18  C   UNL     1      -8.621  10.966  67.847  1.00  0.00    -0.130 C  
HETATM   19  C   UNL     1      -7.153  11.334  67.708  1.00  0.00    -0.087 C  
HETATM   20  C   UNL     1      -6.429  10.291  66.863  1.00  0.00    -0.071 C  
HETATM   21  C   UNL     1      -7.154   9.994  65.545  1.00  0.00    -0.132 C  
ENDBRANCH  15  16
ENDBRANCH  14  15
ENDBRANCH  12  14
ENDBRANCH   9  12
ENDBRANCH   5   6
ENDBRANCH   4   5
ENDBRANCH   3   4
ENDBRANCH   2   3
TORSDOF 8
ENDMDL
MODEL      255
REMARK 921   NORMALIZED FREE ENERGY PREDICTED BY IDOCK:   -2.38 KCAL/MOL
REMARK 922        TOTAL FREE ENERGY PREDICTED BY IDOCK:   -4.62 KCAL/MOL
REMARK 923 INTER-LIGAND FREE ENERGY PREDICTED BY IDOCK:   -3.18 KCAL/MOL
REMARK 924 INTRA-LIGAND FREE ENERGY PREDICTED BY IDOCK:   -1.44 KCAL/MOL
REMARK 927      BINDING AFFINITY PREDICTED BY RF-SCORE:    0.00 PKD
ROOT
HETATM    1  C   UNL     1      -9.236  10.460  62.774  1.00  0.00    -0.323 C  
HETATM    2  C   UNL     1      -8.814   9.016  62.560  1.00  0.00    -0.150 C  
ENDROOT
BRANCH   2   3
HETATM    3  C   UNL     1      -7.335   8.804  62.880  1.00  0.00    -0.095 C  
BRANCH   3   4
HETATM    4  C   UNL     1      -6.738  10.026  63.576  1.00  0.00    -0.135 C  
BRANCH   4   5
HETATM    5  O   UNL     1      -6.052   9.588  64.754  1.00  0.00    -0.072 OA 
BRANCH   5   6
HETATM    6  C   UNL     1      -6.838   9.454  65.869  1.00  0.00    -0.089 A  
HETATM    7  C   UNL     1      -7.957  10.238  66.154  1.00  0.00    -0.131 A  
HETATM    8  C   UNL     1      -8.689  10.014  67.328  1.00  0.00    -0.127 A  
HETATM    9  C   UNL     1      -8.294   9.019  68.228  1.00  0.00    -0.121 A  
HETATM   10  C   UNL     1      -6.487   8.415  66.736  1.00  0.00    -0.056 A  
HETATM   11  C   UNL     1      -7.203   8.202  67.919  1.00  0.00    -0.091 A  
BRANCH   9  12
HETATM   12  C   UNL     1      -9.036   8.895  69.524  1.00  0.00    -0.145 C  
HETATM   13  O   UNL     1      -8.775   9.688  70.431  1.00  0.00    -0.221 OA 
BRANCH  12  14
HETATM   14  C   UNL     1     -10.037   7.772  69.709  1.00  0.00    -0.194 C  
BRANCH  14  15
HETATM   15  C   UNL     1     -10.589   7.341  68.347  1.00  0.00    -0.170 C  
BRANCH  15  16
HETATM   16  N   UNL     1     -10.797   5.898  68.165  1.00  0.00    -0.266 NA 
HETATM   17  C   UNL     1     -10.781   5.548  66.732  1.00  0.00    -0.253 C  
HETATM   18  C   UNL     1      -9.373   5.491  66.133  1.00  0.00    -0.169 C  
HETATM   19  C   UNL     1      -8.539   4.458  66.872  1.00  0.00    -0.104 C  
HETATM   20  C   UNL     1      -8.517   4.772  68.365  1.00  0.00    -0.096 C  
HETATM   21  C   UNL     1      -9.920   5.007  68.938  1.00  0.00    -0.166 C  
ENDBRANCH  15  16
ENDBRANCH  14  15
ENDBRANCH  12  14
ENDBRANCH   9  12
ENDBRANCH   5   6
ENDBRANCH   4   5
ENDBRANCH   3   4
ENDBRANCH   2   3
TORSDOF 8
ENDMDL
MODEL      256
REMARK 921   NORMALIZED FREE ENERGY PREDICTED BY IDOCK:   -2.29 KCAL/MOL
REMARK 922        TOTAL FREE ENERGY PREDICTED BY IDOCK:   -4.48 KCAL/MOL
REMARK 923 INTER-LIGAND FREE ENERGY PREDICTED BY IDOCK:   -3.65 KCAL/MOL
REMARK 924 INTRA-LIGAND FREE ENERGY PREDICTED BY IDOCK:   -0.84 KCAL/MOL
REMARK 927      BINDING AFFINITY PREDICTED BY RF-SCORE:    0.00 PKD
ROOT
HETATM    1  C   UNL     1      -9.186  10.490  62.688  1.00  0.00    -0.329 C  
HETATM    2  C   UNL     1      -8.739   9.079  62.340  1.00  0.00    -0.210 C  
ENDROOT
BRANCH   2   3
HETATM    3  C   UNL     1      -7.246   8.878  62.594  1.00  0.00    -0.095 C  
BRANCH   3   4
HETATM    4  C   UNL     1      -6.671  10.012  63.442  1.00  0.00    -0.134 C  
BRANCH   4   5
HETATM    5  O   UNL     1      -6.013   9.442  64.578  1.00  0.00    -0.071 OA 
BRANCH   5   6
HETATM    6  C   UNL     1      -6.815   9.228  65.669  1.00  0.00    -0.074 A  
HETATM    7  C   UNL     1      -7.337  10.236  66.482  1.00  0.00    -0.113 A  
HETATM    8  C   UNL     1      -8.146   9.902  67.577  1.00  0.00    -0.110 A  
HETATM    9  C   UNL     1      -8.421   8.563  67.872  1.00  0.00    -0.130 A  
HETATM   10  C   UNL     1      -7.148   7.895  65.925  1.00  0.00    -0.061 A  
HETATM   11  C   UNL     1      -7.939   7.558  67.028  1.00  0.00    -0.116 A  
BRANCH   9  12
HETATM   12  C   UNL     1      -9.192   8.251  69.117  1.00  0.00    -0.151 C  
HETATM   13  O   UNL     1      -8.877   8.820  70.164  1.00  0.00    -0.138 OA 
BRANCH  12  14
HETATM   14  C   UNL     1     -10.292   7.209  69.076  1.00  0.00    -0.204 C  
BRANCH  14  15
HETATM   15  C   UNL     1     -10.138   6.246  70.256  1.00  0.00    -0.184 C  
BRANCH  15  16
HETATM   16  N   UNL     1     -11.211   6.281  71.259  1.00  0.00    -0.288 NA 
HETATM   17  C   UNL     1     -10.914   5.355  72.369  1.00  0.00    -0.240 C  
HETATM   18  C   UNL     1      -9.879   5.900  73.357  1.00  0.00    -0.167 C  
HETATM   19  C   UNL     1     -10.377   7.204  73.960  1.00  0.00    -0.243 C  
HETATM   20  C   UNL     1     -10.699   8.204  72.854  1.00  0.00    -0.317 C  
HETATM   21  C   UNL     1     -11.595   7.606  71.763  1.00  0.00    -0.270 C  
ENDBRANCH  15  16
ENDBRANCH  14  15
ENDBRANCH  12  14
ENDBRANCH   9  12
ENDBRANCH   5   6
ENDBRANCH   4   5
ENDBRANCH   3   4
ENDBRANCH   2   3
TORSDOF 8
ENDMDL
MODEL      257
REMARK 921   NORMALIZED FREE ENERGY PREDICTED BY IDOCK:   -2.26 KCAL/MOL
REMARK 922        TOTAL FREE ENERGY PREDICTED BY IDOCK:   -4.44 KCAL/MOL
REMARK 923 INTER-LIGAND FREE ENERGY PREDICTED BY IDOCK:   -3.83 KCAL/MOL
REMARK 924 INTRA-LIGAND FREE ENERGY PREDICTED BY IDOCK:   -0.61 KCAL/MOL
REMARK 927      BINDING AFFINITY PREDICTED BY RF-SCORE:    0.00 PKD
ROOT
HETATM    1  C   UNL     1      -8.712   7.080  74.366  1.00  0.00    -0.229 C  
HETATM    2  C   UNL     1     -10.163   6.629  74.410  1.00  0.00    -0.289 C  
ENDROOT
BRANCH   2   3
HETATM    3  C   UNL     1     -10.282   5.109  74.500  1.00  0.00    -0.303 C  
BRANCH   3   4
HETATM    4  C   UNL     1     -11.019   4.540  73.288  1.00  0.00    -0.288 C  
BRANCH   4   5
HETATM    5  O   UNL     1     -11.731   5.603  72.647  1.00  0.00    -0.303 OA 
BRANCH   5   6
HETATM    6  C   UNL     1     -11.360   5.855  71.352  1.00  0.00    -0.178 A  
HETATM    7  C   UNL     1     -11.788   6.950  70.600  1.00  0.00    -0.418 A  
HETATM    8  C   UNL     1     -11.346   7.108  69.279  1.00  0.00     0.041 A  
HETATM    9  C   UNL     1     -10.491   6.163  68.702  1.00  0.00    -0.285 A  
HETATM   10  C   UNL     1     -10.452   4.950  70.796  1.00  0.00    -0.166 A  
HETATM   11  C   UNL     1     -10.024   5.094  69.471  1.00  0.00    -0.301 A  
BRANCH   9  12
HETATM   12  C   UNL     1     -10.140   6.311  67.253  1.00  0.00    -0.163 C  
HETATM   13  O   UNL     1     -10.430   5.396  66.480  1.00  0.00    -0.252 OA 
BRANCH  12  14
HETATM   14  C   UNL     1      -9.391   7.543  66.786  1.00  0.00    -0.209 C  
BRANCH  14  15
HETATM   15  C   UNL     1      -8.169   7.125  65.964  1.00  0.00    -0.129 C  
BRANCH  15  16
HETATM   16  N   UNL     1      -7.482   8.202  65.239  1.00  0.00    -0.076 NA 
HETATM   17  C   UNL     1      -6.092   8.343  65.714  1.00  0.00    -0.048 C  
HETATM   18  C   UNL     1      -5.146   7.274  65.160  1.00  0.00    -0.028 C  
HETATM   19  C   UNL     1      -5.127   7.339  63.641  1.00  0.00    -0.029 C  
HETATM   20  C   UNL     1      -6.543   7.195  63.092  1.00  0.00    -0.052 C  
HETATM   21  C   UNL     1      -7.537   8.144  63.772  1.00  0.00    -0.128 C  
ENDBRANCH  15  16
ENDBRANCH  14  15
ENDBRANCH  12  14
ENDBRANCH   9  12
ENDBRANCH   5   6
ENDBRANCH   4   5
ENDBRANCH   3   4
ENDBRANCH   2   3
TORSDOF 8
ENDMDL
MODEL      258
REMARK 921   NORMALIZED FREE ENERGY PREDICTED BY IDOCK:   -2.25 KCAL/MOL
REMARK 922        TOTAL FREE ENERGY PREDICTED BY IDOCK:   -4.42 KCAL/MOL
REMARK 923 INTER-LIGAND FREE ENERGY PREDICTED BY IDOCK:   -3.75 KCAL/MOL
REMARK 924 INTRA-LIGAND FREE ENERGY PREDICTED BY IDOCK:   -0.67 KCAL/MOL
REMARK 927      BINDING AFFINITY PREDICTED BY RF-SCORE:    0.00 PKD
ROOT
HETATM    1  C   UNL     1     -11.110  10.166  69.414  1.00  0.00    -0.288 C  
HETATM    2  C   UNL     1     -10.025   9.165  69.050  1.00  0.00    -0.189 C  
ENDROOT
BRANCH   2   3
HETATM    3  C   UNL     1      -8.808   9.848  68.429  1.00  0.00    -0.120 C  
BRANCH   3   4
HETATM    4  C   UNL     1      -7.911  10.462  69.503  1.00  0.00    -0.155 C  
BRANCH   4   5
HETATM    5  O   UNL     1      -6.671  10.843  68.897  1.00  0.00    -0.057 OA 
BRANCH   5   6
HETATM    6  C   UNL     1      -6.498  12.192  68.725  1.00  0.00    -0.078 A  
HETATM    7  C   UNL     1      -5.901  13.043  69.657  1.00  0.00    -0.111 A  
HETATM    8  C   UNL     1      -5.778  14.411  69.378  1.00  0.00    -0.092 A  
HETATM    9  C   UNL     1      -6.266  14.934  68.176  1.00  0.00    -0.144 A  
HETATM   10  C   UNL     1      -6.922  12.706  67.497  1.00  0.00    -0.150 A  
HETATM   11  C   UNL     1      -6.818  14.075  67.223  1.00  0.00     0.170 A  
BRANCH   9  12
HETATM   12  C   UNL     1      -6.218  16.417  67.973  1.00  0.00    -0.124 C  
HETATM   13  O   UNL     1      -6.452  17.152  68.935  1.00  0.00    -0.171 OA 
BRANCH  12  14
HETATM   14  C   UNL     1      -5.943  16.976  66.591  1.00  0.00    -0.217 C  
BRANCH  14  15
HETATM   15  C   UNL     1      -7.205  17.653  66.047  1.00  0.00    -0.281 C  
BRANCH  15  16
HETATM   16  N   UNL     1      -7.050  19.050  65.617  1.00  0.00    -0.432 NA 
HETATM   17  C   UNL     1      -8.190  19.864  66.079  1.00  0.00    -0.289 C  
HETATM   18  C   UNL     1      -8.111  20.239  67.562  1.00  0.00    -0.351 C  
HETATM   19  C   UNL     1      -6.838  21.028  67.827  1.00  0.00    -0.315 C  
HETATM   20  C   UNL     1      -5.622  20.230  67.370  1.00  0.00    -0.198 C  
HETATM   21  C   UNL     1      -5.771  19.696  65.940  1.00  0.00    -0.163 C  
ENDBRANCH  15  16
ENDBRANCH  14  15
ENDBRANCH  12  14
ENDBRANCH   9  12
ENDBRANCH   5   6
ENDBRANCH   4   5
ENDBRANCH   3   4
ENDBRANCH   2   3
TORSDOF 8
ENDMDL
MODEL      259
REMARK 921   NORMALIZED FREE ENERGY PREDICTED BY IDOCK:   -2.20 KCAL/MOL
REMARK 922        TOTAL FREE ENERGY PREDICTED BY IDOCK:   -4.35 KCAL/MOL
REMARK 923 INTER-LIGAND FREE ENERGY PREDICTED BY IDOCK:   -4.25 KCAL/MOL
REMARK 924 INTRA-LIGAND FREE ENERGY PREDICTED BY IDOCK:   -0.10 KCAL/MOL
REMARK 927      BINDING AFFINITY PREDICTED BY RF-SCORE:    0.00 PKD
ROOT
HETATM    1  C   UNL     1      -6.486  18.658  65.875  1.00  0.00    -0.278 C  
HETATM    2  C   UNL     1      -6.023  18.112  67.216  1.00  0.00    -0.162 C  
ENDROOT
BRANCH   2   3
HETATM    3  C   UNL     1      -6.037  16.585  67.243  1.00  0.00    -0.204 C  
BRANCH   3   4
HETATM    4  C   UNL     1      -6.228  16.059  68.665  1.00  0.00    -0.115 C  
BRANCH   4   5
HETATM    5  O   UNL     1      -7.622  16.110  68.987  1.00  0.00    -0.189 OA 
BRANCH   5   6
HETATM    6  C   UNL     1      -8.354  15.025  68.578  1.00  0.00    -0.161 A  
HETATM    7  C   UNL     1      -7.809  13.825  68.118  1.00  0.00    -0.149 A  
HETATM    8  C   UNL     1      -8.654  12.780  67.722  1.00  0.00    -0.184 A  
HETATM    9  C   UNL     1     -10.043  12.936  67.768  1.00  0.00    -0.229 A  
HETATM   10  C   UNL     1      -9.741  15.154  68.688  1.00  0.00    -0.216 A  
HETATM   11  C   UNL     1     -10.588  14.120  68.275  1.00  0.00    -0.254 A  
BRANCH   9  12
HETATM   12  C   UNL     1     -10.903  11.837  67.226  1.00  0.00    -0.253 C  
HETATM   13  O   UNL     1     -11.999  12.128  66.745  1.00  0.00    -0.606 OA 
BRANCH  12  14
HETATM   14  C   UNL     1     -10.436  10.399  67.332  1.00  0.00    -0.299 C  
BRANCH  14  15
HETATM   15  C   UNL     1     -11.219   9.681  68.436  1.00  0.00     0.055 C  
BRANCH  15  16
HETATM   16  N   UNL     1     -10.457   8.717  69.242  1.00  0.00    -0.221 NA 
HETATM   17  C   UNL     1      -9.715   7.785  68.372  1.00  0.00    -0.159 C  
HETATM   18  C   UNL     1      -8.444   8.392  67.770  1.00  0.00    -0.131 C  
HETATM   19  C   UNL     1      -7.507   8.834  68.883  1.00  0.00    -0.083 C  
HETATM   20  C   UNL     1      -8.223   9.805  69.816  1.00  0.00    -0.182 C  
HETATM   21  C   UNL     1      -9.585   9.278  70.283  1.00  0.00    -0.235 C  
ENDBRANCH  15  16
ENDBRANCH  14  15
ENDBRANCH  12  14
ENDBRANCH   9  12
ENDBRANCH   5   6
ENDBRANCH   4   5
ENDBRANCH   3   4
ENDBRANCH   2   3
TORSDOF 8
ENDMDL
MODEL      260
REMARK 921   NORMALIZED FREE ENERGY PREDICTED BY IDOCK:   -2.18 KCAL/MOL
REMARK 922        TOTAL FREE ENERGY PREDICTED BY IDOCK:   -4.32 KCAL/MOL
REMARK 923 INTER-LIGAND FREE ENERGY PREDICTED BY IDOCK:   -3.59 KCAL/MOL
REMARK 924 INTRA-LIGAND FREE ENERGY PREDICTED BY IDOCK:   -0.72 KCAL/MOL
REMARK 927      BINDING AFFINITY PREDICTED BY RF-SCORE:    0.00 PKD
ROOT
HETATM    1  C   UNL     1     -13.021  13.410  72.592  1.00  0.00    -0.217 C  
HETATM    2  C   UNL     1     -12.795  13.453  71.090  1.00  0.00    -0.372 C  
ENDROOT
BRANCH   2   3
HETATM    3  C   UNL     1     -12.997  14.859  70.526  1.00  0.00    -0.339 C  
BRANCH   3   4
HETATM    4  C   UNL     1     -11.772  15.737  70.777  1.00  0.00    -0.399 C  
BRANCH   4   5
HETATM    5  O   UNL     1     -10.881  15.605  69.664  1.00  0.00    -0.239 OA 
BRANCH   5   6
HETATM    6  C   UNL     1     -10.670  16.755  68.948  1.00  0.00    -0.333 A  
HETATM    7  C   UNL     1     -10.679  16.838  67.555  1.00  0.00    -0.275 A  
HETATM    8  C   UNL     1     -10.447  18.069  66.927  1.00  0.00    -0.350 A  
HETATM    9  C   UNL     1     -10.191  19.215  67.686  1.00  0.00    -0.492 A  
HETATM   10  C   UNL     1     -10.482  17.914  69.706  1.00  0.00     0.668 A  
HETATM   11  C   UNL     1     -10.231  19.141  69.082  1.00  0.00    -0.149 A  
BRANCH   9  12
HETATM   12  C   UNL     1      -9.834  20.481  66.970  1.00  0.00    -0.393 C  
HETATM   13  O   UNL     1     -10.616  20.921  66.125  1.00  0.00     0.614 OA 
BRANCH  12  14
HETATM   14  C   UNL     1      -8.506  21.153  67.253  1.00  0.00     0.164 C  
BRANCH  14  15
HETATM   15  C   UNL     1      -7.368  20.329  66.644  1.00  0.00    -0.274 C  
BRANCH  15  16
HETATM   16  N   UNL     1      -6.305  19.917  67.570  1.00  0.00    -0.200 NA 
HETATM   17  C   UNL     1      -6.866  19.136  68.689  1.00  0.00    -0.287 C  
HETATM   18  C   UNL     1      -7.199  17.688  68.317  1.00  0.00    -0.227 C  
HETATM   19  C   UNL     1      -5.944  16.977  67.838  1.00  0.00    -0.143 C  
HETATM   20  C   UNL     1      -5.319  17.741  66.675  1.00  0.00    -0.198 C  
HETATM   21  C   UNL     1      -5.147  19.235  66.977  1.00  0.00    -0.151 C  
ENDBRANCH  15  16
ENDBRANCH  14  15
ENDBRANCH  12  14
ENDBRANCH   9  12
ENDBRANCH   5   6
ENDBRANCH   4   5
ENDBRANCH   3   4
ENDBRANCH   2   3
TORSDOF 8
ENDMDL
MODEL      261
REMARK 921   NORMALIZED FREE ENERGY PREDICTED BY IDOCK:   -2.12 KCAL/MOL
REMARK 922        TOTAL FREE ENERGY PREDICTED BY IDOCK:   -4.24 KCAL/MOL
REMARK 923 INTER-LIGAND FREE ENERGY PREDICTED BY IDOCK:   -3.31 KCAL/MOL
REMARK 924 INTRA-LIGAND FREE ENERGY PREDICTED BY IDOCK:   -0.92 KCAL/MOL
REMARK 927      BINDING AFFINITY PREDICTED BY RF-SCORE:    0.00 PKD
ROOT
HETATM    1  C   UNL     1      -9.646   3.872  69.831  1.00  0.00    -0.270 C  
HETATM    2  C   UNL     1      -8.479   2.920  70.032  1.00  0.00    -0.091 C  
ENDROOT
BRANCH   2   3
HETATM    3  C   UNL     1      -7.810   2.553  68.709  1.00  0.00    -0.058 C  
BRANCH   3   4
HETATM    4  C   UNL     1      -8.015   3.648  67.663  1.00  0.00    -0.081 C  
BRANCH   4   5
HETATM    5  O   UNL     1      -6.760   4.296  67.431  1.00  0.00    -0.046 OA 
BRANCH   5   6
HETATM    6  C   UNL     1      -6.759   5.652  67.635  1.00  0.00    -0.059 A  
HETATM    7  C   UNL     1      -5.994   6.312  68.597  1.00  0.00    -0.020 A  
HETATM    8  C   UNL     1      -6.073   7.705  68.720  1.00  0.00    -0.031 A  
HETATM    9  C   UNL     1      -6.930   8.441  67.895  1.00  0.00    -0.078 A  
HETATM   10  C   UNL     1      -7.562   6.396  66.766  1.00  0.00    -0.098 A  
HETATM   11  C   UNL     1      -7.659   7.785  66.898  1.00  0.00    -0.099 A  
BRANCH   9  12
HETATM   12  C   UNL     1      -7.069   9.912  68.141  1.00  0.00    -0.077 C  
HETATM   13  O   UNL     1      -6.071  10.626  68.025  1.00  0.00    -0.047 OA 
BRANCH  12  14
HETATM   14  C   UNL     1      -8.406  10.474  68.581  1.00  0.00    -0.132 C  
BRANCH  14  15
HETATM   15  C   UNL     1      -9.059   9.527  69.592  1.00  0.00    -0.196 C  
BRANCH  15  16
HETATM   16  N   UNL     1     -10.479   9.226  69.366  1.00  0.00    -0.214 NA 
HETATM   17  C   UNL     1     -10.921   8.124  70.241  1.00  0.00    -0.240 C  
HETATM   18  C   UNL     1     -11.171   8.556  71.689  1.00  0.00    -0.361 C  
HETATM   19  C   UNL     1     -12.239   9.637  71.728  1.00  0.00    -0.464 C  
HETATM   20  C   UNL     1     -11.833  10.808  70.840  1.00  0.00    -0.400 C  
HETATM   21  C   UNL     1     -11.408  10.362  69.435  1.00  0.00    -0.250 C  
ENDBRANCH  15  16
ENDBRANCH  14  15
ENDBRANCH  12  14
ENDBRANCH   9  12
ENDBRANCH   5   6
ENDBRANCH   4   5
ENDBRANCH   3   4
ENDBRANCH   2   3
TORSDOF 8
ENDMDL
MODEL      262
REMARK 921   NORMALIZED FREE ENERGY PREDICTED BY IDOCK:   -2.07 KCAL/MOL
REMARK 922        TOTAL FREE ENERGY PREDICTED BY IDOCK:   -4.17 KCAL/MOL
REMARK 923 INTER-LIGAND FREE ENERGY PREDICTED BY IDOCK:   -4.16 KCAL/MOL
REMARK 924 INTRA-LIGAND FREE ENERGY PREDICTED BY IDOCK:   -0.00 KCAL/MOL
REMARK 927      BINDING AFFINITY PREDICTED BY RF-SCORE:    0.00 PKD
ROOT
HETATM    1  C   UNL     1      -7.475  17.518  66.252  1.00  0.00    -0.355 C  
HETATM    2  C   UNL     1      -8.807  18.176  66.573  1.00  0.00    -0.286 C  
ENDROOT
BRANCH   2   3
HETATM    3  C   UNL     1      -9.405  17.643  67.874  1.00  0.00    -0.268 C  
BRANCH   3   4
HETATM    4  C   UNL     1     -10.862  17.227  67.684  1.00  0.00    -0.238 C  
BRANCH   4   5
HETATM    5  O   UNL     1     -11.031  16.757  66.342  1.00  0.00    -0.058 OA 
BRANCH   5   6
HETATM    6  C   UNL     1     -10.828  15.413  66.167  1.00  0.00    -0.313 A  
HETATM    7  C   UNL     1     -10.314  14.830  65.008  1.00  0.00    -0.420 A  
HETATM    8  C   UNL     1     -10.151  13.440  64.936  1.00  0.00    -0.256 A  
HETATM    9  C   UNL     1     -10.517  12.628  66.015  1.00  0.00    -0.288 A  
HETATM   10  C   UNL     1     -11.128  14.606  67.268  1.00  0.00    -0.331 A  
HETATM   11  C   UNL     1     -10.985  13.216  67.193  1.00  0.00    -0.289 A  
BRANCH   9  12
HETATM   12  C   UNL     1     -10.434  11.142  65.849  1.00  0.00    -0.253 C  
HETATM   13  O   UNL     1     -11.114  10.427  66.589  1.00  0.00    -0.079 OA 
BRANCH  12  14
HETATM   14  C   UNL     1      -9.483  10.554  64.827  1.00  0.00    -0.312 C  
BRANCH  14  15
HETATM   15  C   UNL     1      -8.056  11.033  65.111  1.00  0.00     0.201 C  
BRANCH  15  16
HETATM   16  N   UNL     1      -6.978  10.133  64.680  1.00  0.00    -0.136 NA 
HETATM   17  C   UNL     1      -6.604   9.211  65.770  1.00  0.00    -0.068 C  
HETATM   18  C   UNL     1      -7.590   8.054  65.955  1.00  0.00    -0.086 C  
HETATM   19  C   UNL     1      -7.681   7.244  64.672  1.00  0.00    -0.116 C  
HETATM   20  C   UNL     1      -8.068   8.149  63.506  1.00  0.00    -0.113 C  
HETATM   21  C   UNL     1      -7.195   9.406  63.422  1.00  0.00    -0.102 C  
ENDBRANCH  15  16
ENDBRANCH  14  15
ENDBRANCH  12  14
ENDBRANCH   9  12
ENDBRANCH   5   6
ENDBRANCH   4   5
ENDBRANCH   3   4
ENDBRANCH   2   3
TORSDOF 8
ENDMDL
MODEL      263
REMARK 921   NORMALIZED FREE ENERGY PREDICTED BY IDOCK:   -2.06 KCAL/MOL
REMARK 922        TOTAL FREE ENERGY PREDICTED BY IDOCK:   -4.14 KCAL/MOL
REMARK 923 INTER-LIGAND FREE ENERGY PREDICTED BY IDOCK:   -3.16 KCAL/MOL
REMARK 924 INTRA-LIGAND FREE ENERGY PREDICTED BY IDOCK:   -0.99 KCAL/MOL
REMARK 927      BINDING AFFINITY PREDICTED BY RF-SCORE:    0.00 PKD
ROOT
HETATM    1  C   UNL     1     -13.526  14.045  73.453  1.00  0.00     0.830 C  
HETATM    2  C   UNL     1     -13.445  13.127  72.244  1.00  0.00    -0.665 C  
ENDROOT
BRANCH   2   3
HETATM    3  C   UNL     1     -13.571  13.901  70.933  1.00  0.00     0.047 C  
BRANCH   3   4
HETATM    4  C   UNL     1     -13.546  15.409  71.177  1.00  0.00    -0.462 C  
BRANCH   4   5
HETATM    5  O   UNL     1     -12.181  15.833  71.266  1.00  0.00    -0.380 OA 
BRANCH   5   6
HETATM    6  C   UNL     1     -11.467  15.745  70.099  1.00  0.00    -0.361 A  
HETATM    7  C   UNL     1     -12.028  15.733  68.822  1.00  0.00    -0.226 A  
HETATM    8  C   UNL     1     -11.201  15.637  67.695  1.00  0.00    -0.274 A  
HETATM    9  C   UNL     1      -9.814  15.535  67.842  1.00  0.00    -0.216 A  
HETATM   10  C   UNL     1     -10.077  15.713  70.241  1.00  0.00    -0.021 A  
HETATM   11  C   UNL     1      -9.249  15.597  69.119  1.00  0.00    -0.254 A  
BRANCH   9  12
HETATM   12  C   UNL     1      -8.981  15.316  66.617  1.00  0.00    -0.291 C  
HETATM   13  O   UNL     1      -8.667  16.294  65.935  1.00  0.00    -0.380 OA 
BRANCH  12  14
HETATM   14  C   UNL     1      -8.597  13.907  66.213  1.00  0.00     0.511 C  
BRANCH  14  15
HETATM   15  C   UNL     1      -9.851  13.032  66.130  1.00  0.00    -0.273 C  
BRANCH  15  16
HETATM   16  N   UNL     1      -9.724  11.672  66.671  1.00  0.00    -0.198 NA 
HETATM   17  C   UNL     1      -9.002  11.691  67.958  1.00  0.00    -0.176 C  
HETATM   18  C   UNL     1      -9.866  12.153  69.135  1.00  0.00     0.334 C  
HETATM   19  C   UNL     1     -11.065  11.231  69.288  1.00  0.00    -0.314 C  
HETATM   20  C   UNL     1     -11.853  11.175  67.983  1.00  0.00    -0.203 C  
HETATM   21  C   UNL     1     -10.962  10.888  66.769  1.00  0.00    -0.185 C  
ENDBRANCH  15  16
ENDBRANCH  14  15
ENDBRANCH  12  14
ENDBRANCH   9  12
ENDBRANCH   5   6
ENDBRANCH   4   5
ENDBRANCH   3   4
ENDBRANCH   2   3
TORSDOF 8
ENDMDL
MODEL      264
REMARK 921   NORMALIZED FREE ENERGY PREDICTED BY IDOCK:   -2.04 KCAL/MOL
REMARK 922        TOTAL FREE ENERGY PREDICTED BY IDOCK:   -4.11 KCAL/MOL
REMARK 923 INTER-LIGAND FREE ENERGY PREDICTED BY IDOCK:   -3.33 KCAL/MOL
REMARK 924 INTRA-LIGAND FREE ENERGY PREDICTED BY IDOCK:   -0.78 KCAL/MOL
REMARK 927      BINDING AFFINITY PREDICTED BY RF-SCORE:    0.00 PKD
ROOT
HETATM    1  C   UNL     1      -5.727  14.700  70.944  1.00  0.00    -0.154 C  
HETATM    2  C   UNL     1      -5.996  13.379  70.242  1.00  0.00    -0.141 C  
ENDROOT
BRANCH   2   3
HETATM    3  C   UNL     1      -5.248  12.223  70.903  1.00  0.00    -0.153 C  
BRANCH   3   4
HETATM    4  C   UNL     1      -5.985  10.900  70.700  1.00  0.00    -0.087 C  
BRANCH   4   5
HETATM    5  O   UNL     1      -6.100  10.654  69.295  1.00  0.00    -0.041 OA 
BRANCH   5   6
HETATM    6  C   UNL     1      -7.307  10.996  68.741  1.00  0.00    -0.111 A  
HETATM    7  C   UNL     1      -8.484  11.200  69.463  1.00  0.00     0.413 A  
HETATM    8  C   UNL     1      -9.665  11.545  68.793  1.00  0.00    -0.137 A  
HETATM    9  C   UNL     1      -9.678  11.669  67.400  1.00  0.00    -0.186 A  
HETATM   10  C   UNL     1      -7.306  11.188  67.357  1.00  0.00    -0.108 A  
HETATM   11  C   UNL     1      -8.488  11.513  66.682  1.00  0.00    -0.172 A  
BRANCH   9  12
HETATM   12  C   UNL     1     -10.987  11.924  66.718  1.00  0.00    -0.292 C  
HETATM   13  O   UNL     1     -11.763  10.979  66.560  1.00  0.00    -0.134 OA 
BRANCH  12  14
HETATM   14  C   UNL     1     -11.300  13.309  66.190  1.00  0.00    -0.335 C  
BRANCH  14  15
HETATM   15  C   UNL     1     -10.039  14.176  66.233  1.00  0.00    -0.300 C  
BRANCH  15  16
HETATM   16  N   UNL     1     -10.212  15.538  66.758  1.00  0.00    -0.273 NA 
HETATM   17  C   UNL     1     -10.865  15.505  68.081  1.00  0.00    -0.296 C  
HETATM   18  C   UNL     1      -9.918  15.111  69.219  1.00  0.00    -0.243 C  
HETATM   19  C   UNL     1      -8.765  16.099  69.295  1.00  0.00    -0.190 C  
HETATM   20  C   UNL     1      -8.048  16.172  67.950  1.00  0.00    -0.152 C  
HETATM   21  C   UNL     1      -9.014  16.389  66.779  1.00  0.00    -0.236 C  
ENDBRANCH  15  16
ENDBRANCH  14  15
ENDBRANCH  12  14
ENDBRANCH   9  12
ENDBRANCH   5   6
ENDBRANCH   4   5
ENDBRANCH   3   4
ENDBRANCH   2   3
TORSDOF 8
ENDMDL
MODEL      265
REMARK 921   NORMALIZED FREE ENERGY PREDICTED BY IDOCK:   -2.03 KCAL/MOL
REMARK 922        TOTAL FREE ENERGY PREDICTED BY IDOCK:   -4.10 KCAL/MOL
REMARK 923 INTER-LIGAND FREE ENERGY PREDICTED BY IDOCK:   -3.44 KCAL/MOL
REMARK 924 INTRA-LIGAND FREE ENERGY PREDICTED BY IDOCK:   -0.66 KCAL/MOL
REMARK 927      BINDING AFFINITY PREDICTED BY RF-SCORE:    0.00 PKD
ROOT
HETATM    1  C   UNL     1      -6.570   4.662  62.850  1.00  0.00    -0.027 C  
HETATM    2  C   UNL     1      -5.586   5.779  62.543  1.00  0.00    -0.014 C  
ENDROOT
BRANCH   2   3
HETATM    3  C   UNL     1      -6.247   7.154  62.617  1.00  0.00    -0.052 C  
BRANCH   3   4
HETATM    4  C   UNL     1      -6.775   7.440  64.021  1.00  0.00    -0.048 C  
BRANCH   4   5
HETATM    5  O   UNL     1      -8.136   7.871  63.917  1.00  0.00    -0.145 OA 
BRANCH   5   6
HETATM    6  C   UNL     1      -8.487   8.898  64.755  1.00  0.00    -0.176 A  
HETATM    7  C   UNL     1      -7.704  10.026  65.003  1.00  0.00    -0.138 A  
HETATM    8  C   UNL     1      -8.162  11.016  65.884  1.00  0.00    -0.100 A  
HETATM    9  C   UNL     1      -9.393  10.872  66.531  1.00  0.00    -0.195 A  
HETATM   10  C   UNL     1      -9.747   8.790  65.350  1.00  0.00     0.242 A  
HETATM   11  C   UNL     1     -10.199   9.766  66.245  1.00  0.00    -0.282 A  
BRANCH   9  12
HETATM   12  C   UNL     1      -9.786  11.897  67.551  1.00  0.00    -0.188 C  
HETATM   13  O   UNL     1      -9.284  11.833  68.675  1.00  0.00    -0.169 OA 
BRANCH  12  14
HETATM   14  C   UNL     1     -10.826  12.942  67.200  1.00  0.00    -0.278 C  
BRANCH  14  15
HETATM   15  C   UNL     1     -10.517  14.247  67.940  1.00  0.00    -0.240 C  
BRANCH  15  16
HETATM   16  N   UNL     1      -9.498  15.109  67.326  1.00  0.00    -0.207 NA 
HETATM   17  C   UNL     1      -9.721  15.222  65.872  1.00  0.00    -0.355 C  
HETATM   18  C   UNL     1     -10.855  16.183  65.503  1.00  0.00    -0.280 C  
HETATM   19  C   UNL     1     -10.547  17.573  66.035  1.00  0.00    -0.217 C  
HETATM   20  C   UNL     1     -10.309  17.517  67.541  1.00  0.00    -0.356 C  
HETATM   21  C   UNL     1      -9.302  16.430  67.937  1.00  0.00    -0.214 C  
ENDBRANCH  15  16
ENDBRANCH  14  15
ENDBRANCH  12  14
ENDBRANCH   9  12
ENDBRANCH   5   6
ENDBRANCH   4   5
ENDBRANCH   3   4
ENDBRANCH   2   3
TORSDOF 8
ENDMDL
MODEL      266
REMARK 921   NORMALIZED FREE ENERGY PREDICTED BY IDOCK:   -1.95 KCAL/MOL
REMARK 922        TOTAL FREE ENERGY PREDICTED BY IDOCK:   -3.98 KCAL/MOL
REMARK 923 INTER-LIGAND FREE ENERGY PREDICTED BY IDOCK:   -3.09 KCAL/MOL
REMARK 924 INTRA-LIGAND FREE ENERGY PREDICTED BY IDOCK:   -0.89 KCAL/MOL
REMARK 927      BINDING AFFINITY PREDICTED BY RF-SCORE:    0.00 PKD
ROOT
HETATM    1  C   UNL     1      -8.829   8.998  62.332  1.00  0.00    -0.177 C  
HETATM    2  C   UNL     1      -7.924   7.779  62.411  1.00  0.00    -0.141 C  
ENDROOT
BRANCH   2   3
HETATM    3  C   UNL     1      -6.472   8.166  62.682  1.00  0.00    -0.086 C  
BRANCH   3   4
HETATM    4  C   UNL     1      -6.338   9.666  62.936  1.00  0.00    -0.104 C  
BRANCH   4   5
HETATM    5  O   UNL     1      -5.433   9.865  64.028  1.00  0.00    -0.077 OA 
BRANCH   5   6
HETATM    6  C   UNL     1      -5.965   9.642  65.272  1.00  0.00    -0.069 A  
HETATM    7  C   UNL     1      -5.335   8.925  66.290  1.00  0.00    -0.030 A  
HETATM    8  C   UNL     1      -5.975   8.757  67.526  1.00  0.00    -0.047 A  
HETATM    9  C   UNL     1      -7.250   9.289  67.741  1.00  0.00    -0.083 A  
HETATM   10  C   UNL     1      -7.209  10.232  65.512  1.00  0.00    -0.149 A  
HETATM   11  C   UNL     1      -7.859  10.049  66.738  1.00  0.00    -0.110 A  
BRANCH   9  12
HETATM   12  C   UNL     1      -7.941   8.984  69.034  1.00  0.00    -0.102 C  
HETATM   13  O   UNL     1      -8.551   9.890  69.605  1.00  0.00    -0.166 OA 
BRANCH  12  14
HETATM   14  C   UNL     1      -7.825   7.598  69.637  1.00  0.00    -0.108 C  
BRANCH  14  15
HETATM   15  C   UNL     1      -7.773   7.700  71.164  1.00  0.00    -0.085 C  
BRANCH  15  16
HETATM   16  N   UNL     1      -8.871   7.046  71.889  1.00  0.00    -0.125 NA 
HETATM   17  C   UNL     1      -9.556   8.010  72.772  1.00  0.00    -0.277 C  
HETATM   18  C   UNL     1     -10.513   8.946  72.028  1.00  0.00    -0.383 C  
HETATM   19  C   UNL     1     -11.579   8.132  71.313  1.00  0.00    -0.305 C  
HETATM   20  C   UNL     1     -10.926   7.116  70.381  1.00  0.00    -0.290 C  
HETATM   21  C   UNL     1      -9.836   6.293  71.078  1.00  0.00    -0.181 C  
ENDBRANCH  15  16
ENDBRANCH  14  15
ENDBRANCH  12  14
ENDBRANCH   9  12
ENDBRANCH   5   6
ENDBRANCH   4   5
ENDBRANCH   3   4
ENDBRANCH   2   3
TORSDOF 8
ENDMDL
MODEL      267
REMARK 921   NORMALIZED FREE ENERGY PREDICTED BY IDOCK:   -1.75 KCAL/MOL
REMARK 922        TOTAL FREE ENERGY PREDICTED BY IDOCK:   -3.69 KCAL/MOL
REMARK 923 INTER-LIGAND FREE ENERGY PREDICTED BY IDOCK:   -2.62 KCAL/MOL
REMARK 924 INTRA-LIGAND FREE ENERGY PREDICTED BY IDOCK:   -1.07 KCAL/MOL
REMARK 927      BINDING AFFINITY PREDICTED BY RF-SCORE:    0.00 PKD
ROOT
HETATM    1  C   UNL     1      -9.648   3.617  69.986  1.00  0.00    -0.244 C  
HETATM    2  C   UNL     1      -8.570   2.613  70.360  1.00  0.00    -0.106 C  
ENDROOT
BRANCH   2   3
HETATM    3  C   UNL     1      -7.802   2.122  69.134  1.00  0.00    -0.052 C  
BRANCH   3   4
HETATM    4  C   UNL     1      -7.796   3.175  68.027  1.00  0.00    -0.066 C  
BRANCH   4   5
HETATM    5  O   UNL     1      -6.483   3.741  67.944  1.00  0.00    -0.036 OA 
BRANCH   5   6
HETATM    6  C   UNL     1      -6.433   5.108  68.033  1.00  0.00    -0.048 A  
HETATM    7  C   UNL     1      -5.869   5.816  69.096  1.00  0.00    -0.016 A  
HETATM    8  C   UNL     1      -5.875   7.218  69.084  1.00  0.00    -0.019 A  
HETATM    9  C   UNL     1      -6.458   7.914  68.020  1.00  0.00    -0.052 A  
HETATM   10  C   UNL     1      -6.952   5.806  66.939  1.00  0.00    -0.065 A  
HETATM   11  C   UNL     1      -6.978   7.205  66.933  1.00  0.00    -0.077 A  
BRANCH   9  12
HETATM   12  C   UNL     1      -6.545   9.407  68.107  1.00  0.00    -0.059 C  
HETATM   13  O   UNL     1      -5.499  10.060  68.094  1.00  0.00    -0.039 OA 
BRANCH  12  14
HETATM   14  C   UNL     1      -7.898  10.070  68.268  1.00  0.00    -0.089 C  
BRANCH  14  15
HETATM   15  C   UNL     1      -8.695   9.361  69.366  1.00  0.00    -0.157 C  
BRANCH  15  16
HETATM   16  N   UNL     1     -10.117   9.126  69.079  1.00  0.00    -0.185 NA 
HETATM   17  C   UNL     1     -10.460   9.611  67.729  1.00  0.00    -0.256 C  
HETATM   18  C   UNL     1     -10.007   8.670  66.609  1.00  0.00    -0.357 C  
HETATM   19  C   UNL     1     -10.651   7.305  66.789  1.00  0.00    -0.288 C  
HETATM   20  C   UNL     1     -10.326   6.751  68.173  1.00  0.00    -0.219 C  
HETATM   21  C   UNL     1     -10.611   7.759  69.293  1.00  0.00    -0.192 C  
ENDBRANCH  15  16
ENDBRANCH  14  15
ENDBRANCH  12  14
ENDBRANCH   9  12
ENDBRANCH   5   6
ENDBRANCH   4   5
ENDBRANCH   3   4
ENDBRANCH   2   3
TORSDOF 8
ENDMDL
MODEL      268
REMARK 921   NORMALIZED FREE ENERGY PREDICTED BY IDOCK:   -1.65 KCAL/MOL
REMARK 922        TOTAL FREE ENERGY PREDICTED BY IDOCK:   -3.54 KCAL/MOL
REMARK 923 INTER-LIGAND FREE ENERGY PREDICTED BY IDOCK:   -2.33 KCAL/MOL
REMARK 924 INTRA-LIGAND FREE ENERGY PREDICTED BY IDOCK:   -1.21 KCAL/MOL
REMARK 927      BINDING AFFINITY PREDICTED BY RF-SCORE:    0.00 PKD
ROOT
HETATM    1  C   UNL     1     -10.588   9.930  65.835  1.00  0.00     0.058 C  
HETATM    2  C   UNL     1     -10.575  11.053  66.859  1.00  0.00    -0.307 C  
ENDROOT
BRANCH   2   3
HETATM    3  C   UNL     1      -9.152  11.436  67.263  1.00  0.00    -0.162 C  
BRANCH   3   4
HETATM    4  C   UNL     1      -8.124  10.511  66.612  1.00  0.00    -0.127 C  
BRANCH   4   5
HETATM    5  O   UNL     1      -7.000  10.390  67.491  1.00  0.00    -0.082 OA 
BRANCH   5   6
HETATM    6  C   UNL     1      -6.780   9.130  67.984  1.00  0.00    -0.068 A  
HETATM    7  C   UNL     1      -7.332   7.962  67.457  1.00  0.00    -0.092 A  
HETATM    8  C   UNL     1      -7.040   6.723  68.044  1.00  0.00    -0.085 A  
HETATM    9  C   UNL     1      -6.212   6.651  69.169  1.00  0.00    -0.030 A  
HETATM   10  C   UNL     1      -5.898   9.048  69.065  1.00  0.00    -0.040 A  
HETATM   11  C   UNL     1      -5.620   7.816  69.666  1.00  0.00    -0.023 A  
BRANCH   9  12
HETATM   12  C   UNL     1      -6.023   5.321  69.831  1.00  0.00    -0.018 C  
HETATM   13  O   UNL     1      -5.209   4.531  69.348  1.00  0.00    -0.003 OA 
BRANCH  12  14
HETATM   14  C   UNL     1      -6.871   4.956  71.033  1.00  0.00    -0.039 C  
BRANCH  14  15
HETATM   15  C   UNL     1      -7.400   6.230  71.699  1.00  0.00    -0.089 C  
BRANCH  15  16
HETATM   16  N   UNL     1      -8.848   6.272  71.946  1.00  0.00    -0.139 NA 
HETATM   17  C   UNL     1      -9.205   7.467  72.736  1.00  0.00    -0.149 C  
HETATM   18  C   UNL     1      -9.238   8.756  71.910  1.00  0.00    -0.320 C  
HETATM   19  C   UNL     1     -10.252   8.623  70.785  1.00  0.00    -0.250 C  
HETATM   20  C   UNL     1      -9.930   7.401  69.931  1.00  0.00    -0.188 C  
HETATM   21  C   UNL     1      -9.718   6.135  70.771  1.00  0.00    -0.177 C  
ENDBRANCH  15  16
ENDBRANCH  14  15
ENDBRANCH  12  14
ENDBRANCH   9  12
ENDBRANCH   5   6
ENDBRANCH   4   5
ENDBRANCH   3   4
ENDBRANCH   2   3
TORSDOF 8
ENDMDL
MODEL      269
REMARK 921   NORMALIZED FREE ENERGY PREDICTED BY IDOCK:   -1.59 KCAL/MOL
REMARK 922        TOTAL FREE ENERGY PREDICTED BY IDOCK:   -3.46 KCAL/MOL
REMARK 923 INTER-LIGAND FREE ENERGY PREDICTED BY IDOCK:   -2.51 KCAL/MOL
REMARK 924 INTRA-LIGAND FREE ENERGY PREDICTED BY IDOCK:   -0.95 KCAL/MOL
REMARK 927      BINDING AFFINITY PREDICTED BY RF-SCORE:    0.00 PKD
ROOT
HETATM    1  C   UNL     1      -6.085  12.894  70.040  1.00  0.00    -0.110 C  
HETATM    2  C   UNL     1      -6.340  11.571  69.336  1.00  0.00    -0.103 C  
ENDROOT
BRANCH   2   3
HETATM    3  C   UNL     1      -5.954  11.630  67.859  1.00  0.00    -0.047 C  
BRANCH   3   4
HETATM    4  C   UNL     1      -5.680  10.234  67.303  1.00  0.00    -0.045 C  
BRANCH   4   5
HETATM    5  O   UNL     1      -6.548  10.010  66.187  1.00  0.00    -0.079 OA 
BRANCH   5   6
HETATM    6  C   UNL     1      -7.358   8.909  66.291  1.00  0.00    -0.087 A  
HETATM    7  C   UNL     1      -8.158   8.611  67.396  1.00  0.00    -0.102 A  
HETATM    8  C   UNL     1      -8.947   7.452  67.396  1.00  0.00    -0.124 A  
HETATM    9  C   UNL     1      -8.925   6.581  66.303  1.00  0.00    -0.168 A  
HETATM   10  C   UNL     1      -7.391   8.073  65.172  1.00  0.00    -0.074 A  
HETATM   11  C   UNL     1      -8.162   6.905  65.177  1.00  0.00    -0.115 A  
BRANCH   9  12
HETATM   12  C   UNL     1      -9.693   5.299  66.398  1.00  0.00    -0.169 C  
HETATM   13  O   UNL     1     -10.915   5.330  66.238  1.00  0.00    -0.237 OA 
BRANCH  12  14
HETATM   14  C   UNL     1      -8.967   4.014  66.744  1.00  0.00    -0.137 C  
BRANCH  14  15
HETATM   15  C   UNL     1      -9.467   3.483  68.090  1.00  0.00    -0.155 C  
BRANCH  15  16
HETATM   16  N   UNL     1      -8.454   3.351  69.146  1.00  0.00    -0.060 NA 
HETATM   17  C   UNL     1      -8.009   4.679  69.607  1.00  0.00    -0.065 C  
HETATM   18  C   UNL     1      -9.003   5.362  70.551  1.00  0.00    -0.156 C  
HETATM   19  C   UNL     1      -9.228   4.495  71.779  1.00  0.00    -0.179 C  
HETATM   20  C   UNL     1      -9.694   3.104  71.361  1.00  0.00    -0.219 C  
HETATM   21  C   UNL     1      -8.800   2.484  70.280  1.00  0.00    -0.081 C  
ENDBRANCH  15  16
ENDBRANCH  14  15
ENDBRANCH  12  14
ENDBRANCH   9  12
ENDBRANCH   5   6
ENDBRANCH   4   5
ENDBRANCH   3   4
ENDBRANCH   2   3
TORSDOF 8
ENDMDL
MODEL      270
REMARK 921   NORMALIZED FREE ENERGY PREDICTED BY IDOCK:   -1.54 KCAL/MOL
REMARK 922        TOTAL FREE ENERGY PREDICTED BY IDOCK:   -3.38 KCAL/MOL
REMARK 923 INTER-LIGAND FREE ENERGY PREDICTED BY IDOCK:   -3.59 KCAL/MOL
REMARK 924 INTRA-LIGAND FREE ENERGY PREDICTED BY IDOCK:    0.21 KCAL/MOL
REMARK 927      BINDING AFFINITY PREDICTED BY RF-SCORE:    0.00 PKD
ROOT
HETATM    1  C   UNL     1     -10.487   9.499  69.792  1.00  0.00    -0.253 C  
HETATM    2  C   UNL     1     -11.505   9.112  68.731  1.00  0.00     0.580 C  
ENDROOT
BRANCH   2   3
HETATM    3  C   UNL     1     -10.844   8.852  67.379  1.00  0.00    -0.096 C  
BRANCH   3   4
HETATM    4  C   UNL     1     -10.160  10.110  66.845  1.00  0.00    -0.223 C  
BRANCH   4   5
HETATM    5  O   UNL     1     -10.351  11.167  67.792  1.00  0.00    -0.178 OA 
BRANCH   5   6
HETATM    6  C   UNL     1      -9.992  12.415  67.350  1.00  0.00    -0.202 A  
HETATM    7  C   UNL     1      -8.730  12.754  66.862  1.00  0.00    -0.169 A  
HETATM    8  C   UNL     1      -8.472  14.064  66.438  1.00  0.00     0.464 A  
HETATM    9  C   UNL     1      -9.468  15.043  66.518  1.00  0.00    -0.306 A  
HETATM   10  C   UNL     1     -11.006  13.377  67.364  1.00  0.00    -0.287 A  
HETATM   11  C   UNL     1     -10.746  14.691  66.961  1.00  0.00    -0.290 A  
BRANCH   9  12
HETATM   12  C   UNL     1      -9.112  16.454  66.165  1.00  0.00    -0.326 C  
HETATM   13  O   UNL     1      -9.895  17.104  65.470  1.00  0.00    -0.549 OA 
BRANCH  12  14
HETATM   14  C   UNL     1      -7.782  17.026  66.615  1.00  0.00    -0.302 C  
BRANCH  14  15
HETATM   15  C   UNL     1      -7.963  17.778  67.937  1.00  0.00    -0.233 C  
BRANCH  15  16
HETATM   16  N   UNL     1      -6.742  18.002  68.721  1.00  0.00    -0.239 NA 
HETATM   17  C   UNL     1      -5.560  18.054  67.839  1.00  0.00    -0.154 C  
HETATM   18  C   UNL     1      -5.411  19.384  67.096  1.00  0.00    -0.161 C  
HETATM   19  C   UNL     1      -5.293  20.523  68.096  1.00  0.00    -0.264 C  
HETATM   20  C   UNL     1      -6.494  20.521  69.037  1.00  0.00    -0.218 C  
HETATM   21  C   UNL     1      -6.759  19.141  69.650  1.00  0.00    -0.182 C  
ENDBRANCH  15  16
ENDBRANCH  14  15
ENDBRANCH  12  14
ENDBRANCH   9  12
ENDBRANCH   5   6
ENDBRANCH   4   5
ENDBRANCH   3   4
ENDBRANCH   2   3
TORSDOF 8
ENDMDL
MODEL      271
REMARK 921   NORMALIZED FREE ENERGY PREDICTED BY IDOCK:   -1.45 KCAL/MOL
REMARK 922        TOTAL FREE ENERGY PREDICTED BY IDOCK:   -3.25 KCAL/MOL
REMARK 923 INTER-LIGAND FREE ENERGY PREDICTED BY IDOCK:   -3.40 KCAL/MOL
REMARK 924 INTRA-LIGAND FREE ENERGY PREDICTED BY IDOCK:    0.15 KCAL/MOL
REMARK 927      BINDING AFFINITY PREDICTED BY RF-SCORE:    0.00 PKD
ROOT
HETATM    1  C   UNL     1      -6.096  12.850  70.045  1.00  0.00    -0.110 C  
HETATM    2  C   UNL     1      -6.429  11.402  69.724  1.00  0.00    -0.133 C  
ENDROOT
BRANCH   2   3
HETATM    3  C   UNL     1      -6.014  11.025  68.303  1.00  0.00    -0.046 C  
BRANCH   3   4
HETATM    4  C   UNL     1      -5.752   9.525  68.183  1.00  0.00    -0.040 C  
BRANCH   4   5
HETATM    5  O   UNL     1      -6.520   9.015  67.088  1.00  0.00    -0.059 OA 
BRANCH   5   6
HETATM    6  C   UNL     1      -7.483   9.864  66.607  1.00  0.00    -0.099 A  
HETATM    7  C   UNL     1      -7.246  11.165  66.160  1.00  0.00     0.000 A  
HETATM    8  C   UNL     1      -8.309  11.948  65.691  1.00  0.00     0.596 A  
HETATM    9  C   UNL     1      -9.612  11.440  65.682  1.00  0.00    -0.258 A  
HETATM   10  C   UNL     1      -8.774   9.335  66.532  1.00  0.00    -0.145 A  
HETATM   11  C   UNL     1      -9.841  10.120  66.082  1.00  0.00    -0.297 A  
BRANCH   9  12
HETATM   12  C   UNL     1     -10.730  12.352  65.282  1.00  0.00    -0.287 C  
HETATM   13  O   UNL     1     -10.909  12.576  64.083  1.00  0.00    -0.326 OA 
BRANCH  12  14
HETATM   14  C   UNL     1     -11.571  13.021  66.351  1.00  0.00    -0.413 C  
BRANCH  14  15
HETATM   15  C   UNL     1     -11.323  14.532  66.335  1.00  0.00    -0.349 C  
BRANCH  15  16
HETATM   16  N   UNL     1     -10.875  15.123  67.603  1.00  0.00    -0.287 NA 
HETATM   17  C   UNL     1      -9.531  14.629  67.960  1.00  0.00    -0.207 C  
HETATM   18  C   UNL     1      -8.404  15.299  67.168  1.00  0.00    -0.244 C  
HETATM   19  C   UNL     1      -8.426  16.800  67.410  1.00  0.00    -0.203 C  
HETATM   20  C   UNL     1      -9.797  17.368  67.054  1.00  0.00    -0.286 C  
HETATM   21  C   UNL     1     -10.945  16.587  67.704  1.00  0.00    -0.207 C  
ENDBRANCH  15  16
ENDBRANCH  14  15
ENDBRANCH  12  14
ENDBRANCH   9  12
ENDBRANCH   5   6
ENDBRANCH   4   5
ENDBRANCH   3   4
ENDBRANCH   2   3
TORSDOF 8
ENDMDL
MODEL      272
REMARK 921   NORMALIZED FREE ENERGY PREDICTED BY IDOCK:   -1.44 KCAL/MOL
REMARK 922        TOTAL FREE ENERGY PREDICTED BY IDOCK:   -3.24 KCAL/MOL
REMARK 923 INTER-LIGAND FREE ENERGY PREDICTED BY IDOCK:   -2.53 KCAL/MOL
REMARK 924 INTRA-LIGAND FREE ENERGY PREDICTED BY IDOCK:   -0.71 KCAL/MOL
REMARK 927      BINDING AFFINITY PREDICTED BY RF-SCORE:    0.00 PKD
ROOT
HETATM    1  C   UNL     1      -5.912  12.688  69.946  1.00  0.00    -0.141 C  
HETATM    2  C   UNL     1      -6.133  11.184  69.982  1.00  0.00    -0.134 C  
ENDROOT
BRANCH   2   3
HETATM    3  C   UNL     1      -5.451  10.482  68.810  1.00  0.00    -0.041 C  
BRANCH   3   4
HETATM    4  C   UNL     1      -5.171   9.015  69.132  1.00  0.00    -0.036 C  
BRANCH   4   5
HETATM    5  O   UNL     1      -5.680   8.209  68.063  1.00  0.00    -0.033 OA 
BRANCH   5   6
HETATM    6  C   UNL     1      -6.516   7.193  68.447  1.00  0.00    -0.040 A  
HETATM    7  C   UNL     1      -7.495   7.299  69.436  1.00  0.00    -0.092 A  
HETATM    8  C   UNL     1      -8.295   6.192  69.751  1.00  0.00    -0.124 A  
HETATM    9  C   UNL     1      -8.107   4.973  69.091  1.00  0.00    -0.083 A  
HETATM   10  C   UNL     1      -6.377   5.995  67.742  1.00  0.00    -0.037 A  
HETATM   11  C   UNL     1      -7.161   4.882  68.067  1.00  0.00    -0.062 A  
BRANCH   9  12
HETATM   12  C   UNL     1      -8.904   3.788  69.542  1.00  0.00    -0.092 C  
HETATM   13  O   UNL     1      -9.572   3.174  68.708  1.00  0.00    -0.157 OA 
BRANCH  12  14
HETATM   14  C   UNL     1      -8.919   3.410  71.010  1.00  0.00    -0.161 C  
BRANCH  14  15
HETATM   15  C   UNL     1     -10.142   4.031  71.692  1.00  0.00    -0.113 C  
BRANCH  15  16
HETATM   16  N   UNL     1      -9.997   4.332  73.123  1.00  0.00    -0.137 NA 
HETATM   17  C   UNL     1      -8.617   4.756  73.426  1.00  0.00    -0.102 C  
HETATM   18  C   UNL     1      -8.321   6.203  73.022  1.00  0.00    -0.115 C  
HETATM   19  C   UNL     1      -9.268   7.146  73.747  1.00  0.00    -0.253 C  
HETATM   20  C   UNL     1     -10.715   6.754  73.467  1.00  0.00    -0.319 C  
HETATM   21  C   UNL     1     -10.977   5.262  73.700  1.00  0.00    -0.255 C  
ENDBRANCH  15  16
ENDBRANCH  14  15
ENDBRANCH  12  14
ENDBRANCH   9  12
ENDBRANCH   5   6
ENDBRANCH   4   5
ENDBRANCH   3   4
ENDBRANCH   2   3
TORSDOF 8
ENDMDL
MODEL      273
REMARK 921   NORMALIZED FREE ENERGY PREDICTED BY IDOCK:   -1.21 KCAL/MOL
REMARK 922        TOTAL FREE ENERGY PREDICTED BY IDOCK:   -2.90 KCAL/MOL
REMARK 923 INTER-LIGAND FREE ENERGY PREDICTED BY IDOCK:   -1.92 KCAL/MOL
REMARK 924 INTRA-LIGAND FREE ENERGY PREDICTED BY IDOCK:   -0.98 KCAL/MOL
REMARK 927      BINDING AFFINITY PREDICTED BY RF-SCORE:    0.00 PKD
ROOT
HETATM    1  C   UNL     1      -6.007  12.594  70.123  1.00  0.00    -0.138 C  
HETATM    2  C   UNL     1      -6.218  11.094  70.246  1.00  0.00    -0.134 C  
ENDROOT
BRANCH   2   3
HETATM    3  C   UNL     1      -5.299  10.313  69.309  1.00  0.00    -0.038 C  
BRANCH   3   4
HETATM    4  C   UNL     1      -5.209   8.844  69.720  1.00  0.00    -0.030 C  
BRANCH   4   5
HETATM    5  O   UNL     1      -5.168   8.041  68.535  1.00  0.00    -0.029 OA 
BRANCH   5   6
HETATM    6  C   UNL     1      -5.970   6.929  68.558  1.00  0.00    -0.025 A  
HETATM    7  C   UNL     1      -7.219   6.861  69.178  1.00  0.00    -0.090 A  
HETATM    8  C   UNL     1      -7.953   5.668  69.142  1.00  0.00    -0.096 A  
HETATM    9  C   UNL     1      -7.435   4.537  68.503  1.00  0.00    -0.064 A  
HETATM   10  C   UNL     1      -5.485   5.819  67.862  1.00  0.00    -0.008 A  
HETATM   11  C   UNL     1      -6.207   4.620  67.840  1.00  0.00    -0.036 A  
BRANCH   9  12
HETATM   12  C   UNL     1      -8.203   3.254  68.591  1.00  0.00    -0.060 C  
HETATM   13  O   UNL     1      -7.874   2.428  69.444  1.00  0.00    -0.043 OA 
BRANCH  12  14
HETATM   14  C   UNL     1      -9.317   2.978  67.601  1.00  0.00    -0.242 C  
BRANCH  14  15
HETATM   15  C   UNL     1      -8.731   2.388  66.314  1.00  0.00    -0.120 C  
BRANCH  15  16
HETATM   16  N   UNL     1      -9.267   2.929  65.057  1.00  0.00    -0.147 NA 
HETATM   17  C   UNL     1      -9.957   4.211  65.296  1.00  0.00    -0.208 C  
HETATM   18  C   UNL     1      -9.001   5.393  65.478  1.00  0.00    -0.149 C  
HETATM   19  C   UNL     1      -8.138   5.555  64.237  1.00  0.00    -0.124 C  
HETATM   20  C   UNL     1      -7.395   4.255  63.943  1.00  0.00    -0.055 C  
HETATM   21  C   UNL     1      -8.324   3.035  63.936  1.00  0.00    -0.086 C  
ENDBRANCH  15  16
ENDBRANCH  14  15
ENDBRANCH  12  14
ENDBRANCH   9  12
ENDBRANCH   5   6
ENDBRANCH   4   5
ENDBRANCH   3   4
ENDBRANCH   2   3
TORSDOF 8
ENDMDL
MODEL      274
REMARK 921   NORMALIZED FREE ENERGY PREDICTED BY IDOCK:   -0.73 KCAL/MOL
REMARK 922        TOTAL FREE ENERGY PREDICTED BY IDOCK:   -2.19 KCAL/MOL
REMARK 923 INTER-LIGAND FREE ENERGY PREDICTED BY IDOCK:   -3.18 KCAL/MOL
REMARK 924 INTRA-LIGAND FREE ENERGY PREDICTED BY IDOCK:    0.99 KCAL/MOL
REMARK 927      BINDING AFFINITY PREDICTED BY RF-SCORE:    0.00 PKD
ROOT
HETATM    1  C   UNL     1      -6.419  18.482  68.781  1.00  0.00    -0.239 C  
HETATM    2  C   UNL     1      -5.496  17.499  68.079  1.00  0.00    -0.134 C  
ENDROOT
BRANCH   2   3
HETATM    3  C   UNL     1      -6.259  16.595  67.113  1.00  0.00    -0.212 C  
BRANCH   3   4
HETATM    4  C   UNL     1      -6.774  15.342  67.819  1.00  0.00    -0.167 C  
BRANCH   4   5
HETATM    5  O   UNL     1      -6.318  14.192  67.097  1.00  0.00    -0.195 OA 
BRANCH   5   6
HETATM    6  C   UNL     1      -6.928  13.012  67.436  1.00  0.00    -0.116 A  
HETATM    7  C   UNL     1      -7.906  12.877  68.422  1.00  0.00    -0.133 A  
HETATM    8  C   UNL     1      -8.461  11.618  68.688  1.00  0.00    -0.094 A  
HETATM    9  C   UNL     1      -8.029  10.490  67.983  1.00  0.00    -0.106 A  
HETATM   10  C   UNL     1      -6.548  11.897  66.685  1.00  0.00     0.074 A  
HETATM   11  C   UNL     1      -7.086  10.635  66.961  1.00  0.00    -0.100 A  
BRANCH   9  12
HETATM   12  C   UNL     1      -8.566   9.150  68.383  1.00  0.00    -0.129 C  
HETATM   13  O   UNL     1      -8.008   8.139  67.951  1.00  0.00    -0.122 OA 
BRANCH  12  14
HETATM   14  C   UNL     1      -9.806   9.068  69.251  1.00  0.00    -0.179 C  
BRANCH  14  15
HETATM   15  C   UNL     1      -9.598   9.888  70.528  1.00  0.00     0.030 C  
BRANCH  15  16
HETATM   16  N   UNL     1      -9.810   9.171  71.793  1.00  0.00    -0.257 NA 
HETATM   17  C   UNL     1     -11.094   8.445  71.769  1.00  0.00    -0.290 C  
HETATM   18  C   UNL     1     -11.045   7.145  70.961  1.00  0.00    -0.287 C  
HETATM   19  C   UNL     1      -9.995   6.213  71.545  1.00  0.00    -0.211 C  
HETATM   20  C   UNL     1      -8.641   6.914  71.592  1.00  0.00    -0.117 C  
HETATM   21  C   UNL     1      -8.717   8.300  72.243  1.00  0.00    -0.200 C  
ENDBRANCH  15  16
ENDBRANCH  14  15
ENDBRANCH  12  14
ENDBRANCH   9  12
ENDBRANCH   5   6
ENDBRANCH   4   5
ENDBRANCH   3   4
ENDBRANCH   2   3
TORSDOF 8
ENDMDL
MODEL      275
REMARK 921   NORMALIZED FREE ENERGY PREDICTED BY IDOCK:    0.98 KCAL/MOL
REMARK 922        TOTAL FREE ENERGY PREDICTED BY IDOCK:    0.31 KCAL/MOL
REMARK 923 INTER-LIGAND FREE ENERGY PREDICTED BY IDOCK:    0.36 KCAL/MOL
REMARK 924 INTRA-LIGAND FREE ENERGY PREDICTED BY IDOCK:   -0.05 KCAL/MOL
REMARK 927      BINDING AFFINITY PREDICTED BY RF-SCORE:    0.00 PKD
ROOT
HETATM    1  C   UNL     1      -6.115  12.826  70.928  1.00  0.00     0.394 C  
HETATM    2  C   UNL     1      -6.208  11.389  71.415  1.00  0.00     1.335 C  
ENDROOT
BRANCH   2   3
HETATM    3  C   UNL     1      -5.513  10.420  70.460  1.00  0.00    -0.072 C  
BRANCH   3   4
HETATM    4  C   UNL     1      -5.795   8.968  70.844  1.00  0.00    -0.042 C  
BRANCH   4   5
HETATM    5  O   UNL     1      -5.181   8.113  69.874  1.00  0.00    -0.023 OA 
BRANCH   5   6
HETATM    6  C   UNL     1      -6.048   7.324  69.162  1.00  0.00    -0.030 A  
HETATM    7  C   UNL     1      -6.302   5.978  69.430  1.00  0.00    -0.041 A  
HETATM    8  C   UNL     1      -7.208   5.266  68.633  1.00  0.00    -0.062 A  
HETATM    9  C   UNL     1      -7.848   5.890  67.558  1.00  0.00    -0.098 A  
HETATM   10  C   UNL     1      -6.741   7.964  68.131  1.00  0.00    -0.064 A  
HETATM   11  C   UNL     1      -7.631   7.250  67.321  1.00  0.00    -0.104 A  
BRANCH   9  12
HETATM   12  C   UNL     1      -8.717   5.058  66.665  1.00  0.00    -0.108 C  
HETATM   13  O   UNL     1      -9.238   4.042  67.129  1.00  0.00    -0.139 OA 
BRANCH  12  14
HETATM   14  C   UNL     1      -8.887   5.448  65.210  1.00  0.00    -0.132 C  
BRANCH  14  15
HETATM   15  C   UNL     1      -8.664   4.224  64.317  1.00  0.00    -0.136 C  
BRANCH  15  16
HETATM   16  N   UNL     1      -8.084   4.491  62.994  1.00  0.00    -0.079 NA 
HETATM   17  C   UNL     1      -8.475   5.831  62.516  1.00  0.00    -0.043 C  
HETATM   18  C   UNL     1      -7.682   6.967  63.170  1.00  0.00    -0.107 C  
HETATM   19  C   UNL     1      -6.199   6.788  62.889  1.00  0.00    -0.043 C  
HETATM   20  C   UNL     1      -5.736   5.415  63.367  1.00  0.00    -0.014 C  
HETATM   21  C   UNL     1      -6.636   4.282  62.859  1.00  0.00    -0.030 C  
ENDBRANCH  15  16
ENDBRANCH  14  15
ENDBRANCH  12  14
ENDBRANCH   9  12
ENDBRANCH   5   6
ENDBRANCH   4   5
ENDBRANCH   3   4
ENDBRANCH   2   3
TORSDOF 8
ENDMDL
MODEL      276
REMARK 921   NORMALIZED FREE ENERGY PREDICTED BY IDOCK:    3.55 KCAL/MOL
REMARK 922        TOTAL FREE ENERGY PREDICTED BY IDOCK:    4.09 KCAL/MOL
REMARK 923 INTER-LIGAND FREE ENERGY PREDICTED BY IDOCK:   -2.02 KCAL/MOL
REMARK 924 INTRA-LIGAND FREE ENERGY PREDICTED BY IDOCK:    6.11 KCAL/MOL
REMARK 927      BINDING AFFINITY PREDICTED BY RF-SCORE:    0.00 PKD
ROOT
HETATM    1  C   UNL     1     -12.282   8.033  69.986  1.00  0.00     0.849 C  
HETATM    2  C   UNL     1     -13.118   8.487  71.172  1.00  0.00    -0.061 C  
ENDROOT
BRANCH   2   3
HETATM    3  C   UNL     1     -12.266   8.690  72.423  1.00  0.00    -0.419 C  
BRANCH   3   4
HETATM    4  C   UNL     1     -11.374   7.479  72.688  1.00  0.00    -0.344 C  
BRANCH   4   5
HETATM    5  O   UNL     1     -10.753   7.093  71.457  1.00  0.00    -0.223 OA 
BRANCH   5   6
HETATM    6  C   UNL     1     -10.051   8.085  70.823  1.00  0.00    -0.192 A  
HETATM    7  C   UNL     1     -10.439   9.425  70.770  1.00  0.00    -0.372 A  
HETATM    8  C   UNL     1      -9.643  10.357  70.090  1.00  0.00     0.279 A  
HETATM    9  C   UNL     1      -8.469   9.951  69.448  1.00  0.00    -0.169 A  
HETATM   10  C   UNL     1      -8.842   7.695  70.241  1.00  0.00    -0.145 A  
HETATM   11  C   UNL     1      -8.055   8.619  69.544  1.00  0.00    -0.110 A  
BRANCH   9  12
HETATM   12  C   UNL     1      -7.714  10.959  68.637  1.00  0.00    -0.122 C  
HETATM   13  O   UNL     1      -6.680  10.603  68.068  1.00  0.00    -0.063 OA 
BRANCH  12  14
HETATM   14  C   UNL     1      -8.201  12.393  68.583  1.00  0.00    -0.002 C  
BRANCH  14  15
HETATM   15  C   UNL     1      -7.094  13.294  68.028  1.00  0.00    -0.122 C  
BRANCH  15  16
HETATM   16  N   UNL     1      -6.632  14.368  68.919  1.00  0.00    -0.088 NA 
HETATM   17  C   UNL     1      -5.411  14.999  68.381  1.00  0.00    -0.109 C  
HETATM   18  C   UNL     1      -5.684  15.974  67.233  1.00  0.00    -0.053 C  
HETATM   19  C   UNL     1      -6.609  17.083  67.706  1.00  0.00    -0.160 C  
HETATM   20  C   UNL     1      -7.895  16.487  68.273  1.00  0.00    -0.175 C  
HETATM   21  C   UNL     1      -7.628  15.379  69.298  1.00  0.00    -0.216 C  
ENDBRANCH  15  16
ENDBRANCH  14  15
ENDBRANCH  12  14
ENDBRANCH   9  12
ENDBRANCH   5   6
ENDBRANCH   4   5
ENDBRANCH   3   4
ENDBRANCH   2   3
TORSDOF 8
ENDMDL
MODEL      277
REMARK 921   NORMALIZED FREE ENERGY PREDICTED BY IDOCK:    4.88 KCAL/MOL
REMARK 922        TOTAL FREE ENERGY PREDICTED BY IDOCK:    6.04 KCAL/MOL
REMARK 923 INTER-LIGAND FREE ENERGY PREDICTED BY IDOCK:    4.96 KCAL/MOL
REMARK 924 INTRA-LIGAND FREE ENERGY PREDICTED BY IDOCK:    1.07 KCAL/MOL
REMARK 927      BINDING AFFINITY PREDICTED BY RF-SCORE:    0.00 PKD
ROOT
HETATM    1  C   UNL     1     -14.354  12.240  73.385  1.00  0.00     4.519 C  
HETATM    2  C   UNL     1     -14.370  12.095  71.872  1.00  0.00     1.476 C  
ENDROOT
BRANCH   2   3
HETATM    3  C   UNL     1     -13.671  13.266  71.183  1.00  0.00     0.378 C  
BRANCH   3   4
HETATM    4  C   UNL     1     -12.163  13.228  71.420  1.00  0.00     0.088 C  
BRANCH   4   5
HETATM    5  O   UNL     1     -11.502  13.212  70.150  1.00  0.00    -0.124 OA 
BRANCH   5   6
HETATM    6  C   UNL     1     -11.329  14.441  69.568  1.00  0.00    -0.276 A  
HETATM    7  C   UNL     1     -12.352  15.209  69.010  1.00  0.00    -0.050 A  
HETATM    8  C   UNL     1     -12.060  16.454  68.438  1.00  0.00     0.664 A  
HETATM    9  C   UNL     1     -10.744  16.927  68.407  1.00  0.00    -0.368 A  
HETATM   10  C   UNL     1     -10.026  14.946  69.597  1.00  0.00    -0.038 A  
HETATM   11  C   UNL     1      -9.728  16.180  69.009  1.00  0.00    -0.248 A  
BRANCH   9  12
HETATM   12  C   UNL     1     -10.464  18.207  67.682  1.00  0.00    -0.416 C  
HETATM   13  O   UNL     1     -11.392  18.997  67.497  1.00  0.00    -0.098 OA 
BRANCH  12  14
HETATM   14  C   UNL     1      -9.072  18.475  67.144  1.00  0.00    -0.280 C  
BRANCH  14  15
HETATM   15  C   UNL     1      -8.414  17.154  66.732  1.00  0.00    -0.235 C  
BRANCH  15  16
HETATM   16  N   UNL     1      -7.278  17.263  65.807  1.00  0.00    -0.245 NA 
HETATM   17  C   UNL     1      -7.307  18.558  65.100  1.00  0.00     0.859 C  
HETATM   18  C   UNL     1      -6.814  19.730  65.953  1.00  0.00    -0.288 C  
HETATM   19  C   UNL     1      -5.383  19.477  66.400  1.00  0.00    -0.161 C  
HETATM   20  C   UNL     1      -5.293  18.147  67.142  1.00  0.00    -0.142 C  
HETATM   21  C   UNL     1      -5.947  16.996  66.369  1.00  0.00    -0.051 C  
ENDBRANCH  15  16
ENDBRANCH  14  15
ENDBRANCH  12  14
ENDBRANCH   9  12
ENDBRANCH   5   6
ENDBRANCH   4   5
ENDBRANCH   3   4
ENDBRANCH   2   3
TORSDOF 8
ENDMDL
