MODEL        1
REMARK 921   NORMALIZED FREE ENERGY PREDICTED BY IDOCK:   -6.17 KCAL/MOL
REMARK 922        TOTAL FREE ENERGY PREDICTED BY IDOCK:   -7.73 KCAL/MOL
REMARK 923 INTER-LIGAND FREE ENERGY PREDICTED BY IDOCK:   -7.25 KCAL/MOL
REMARK 924 INTRA-LIGAND FREE ENERGY PREDICTED BY IDOCK:   -0.47 KCAL/MOL
REMARK 927      BINDING AFFINITY PREDICTED BY RF-SCORE:    0.00 PKD
ROOT
HETATM    1  C   UNL     1     -10.758  15.961  69.821  1.00  0.00    -0.324 C  
HETATM    2  N   UNL     1     -10.834  16.181  68.390  1.00  0.00    -0.302 N  
HETATM    3  C   UNL     1     -11.252  15.195  67.528  1.00  0.00    -0.330 A  
HETATM    4  C   UNL     1     -11.341  15.413  66.184  1.00  0.00    -0.082 A  
HETATM    5  C   UNL     1     -11.020  16.658  65.574  1.00  0.00    -0.059 C  
HETATM    6  N   UNL     1     -11.794  14.231  65.665  1.00  0.00    -0.363 NA 
HETATM    7  O   UNL     1     -11.126  16.851  64.364  1.00  0.00    -1.128 OA 
HETATM    8  N   UNL     1     -10.577  17.614  66.491  1.00  0.00    -0.264 N  
HETATM    9  O   UNL     1     -10.097  18.341  68.628  1.00  0.00    -0.370 OA 
HETATM   10  C   UNL     1     -11.938  13.361  66.715  1.00  0.00    -0.394 A  
HETATM   11  N   UNL     1     -11.617  13.927  67.861  1.00  0.00    -0.322 NA 
HETATM   12  C   UNL     1     -10.197  18.922  65.993  1.00  0.00    -0.387 C  
HETATM   13  C   UNL     1     -10.480  17.430  67.885  1.00  0.00    -0.383 C  
ENDROOT
BRANCH   6  14
HETATM   14  C   UNL     1     -12.036  13.919  64.271  1.00  0.00    -0.444 C  
BRANCH  14  15
HETATM   15  C   UNL     1     -12.092  12.413  63.994  1.00  0.00    -0.475 C  
HETATM   16  H   UNL     1     -13.210  11.137  62.953  1.00  0.00     0.000 HD 
HETATM   17  O   UNL     1     -13.175  12.071  63.124  1.00  0.00    -0.540 OA 
BRANCH  15  18
HETATM   18  C   UNL     1     -10.772  11.941  63.365  1.00  0.00    -0.413 C  
HETATM   19  O   UNL     1      -9.658  12.714  63.805  1.00  0.00    -0.672 OA 
HETATM   20  H   UNL     1      -8.842  12.422  63.417  1.00  0.00     0.000 HD 
ENDBRANCH  15  18
ENDBRANCH  14  15
ENDBRANCH   6  14
TORSDOF 3
ENDMDL
MODEL        2
REMARK 921   NORMALIZED FREE ENERGY PREDICTED BY IDOCK:   -6.16 KCAL/MOL
REMARK 922        TOTAL FREE ENERGY PREDICTED BY IDOCK:   -7.72 KCAL/MOL
REMARK 923 INTER-LIGAND FREE ENERGY PREDICTED BY IDOCK:   -7.61 KCAL/MOL
REMARK 924 INTRA-LIGAND FREE ENERGY PREDICTED BY IDOCK:   -0.10 KCAL/MOL
REMARK 927      BINDING AFFINITY PREDICTED BY RF-SCORE:    0.00 PKD
ROOT
HETATM    1  C   UNL     1     -12.743  15.344  71.657  1.00  0.00    -0.410 C  
HETATM    2  N   UNL     1     -12.518  14.225  70.763  1.00  0.00    -0.335 N  
HETATM    3  C   UNL     1     -12.057  14.406  69.480  1.00  0.00    -0.322 A  
HETATM    4  C   UNL     1     -11.828  13.349  68.648  1.00  0.00    -0.362 A  
HETATM    5  C   UNL     1     -12.036  11.995  69.034  1.00  0.00    -0.264 C  
HETATM    6  N   UNL     1     -11.375  13.908  67.485  1.00  0.00    -0.303 NA 
HETATM    7  O   UNL     1     -11.803  11.048  68.284  1.00  0.00    -0.537 OA 
HETATM    8  N   UNL     1     -12.527  11.870  70.336  1.00  0.00    -0.218 N  
HETATM    9  O   UNL     1     -13.184  12.732  72.373  1.00  0.00    -0.456 OA 
HETATM   10  C   UNL     1     -11.372  15.268  67.668  1.00  0.00    -0.312 A  
HETATM   11  N   UNL     1     -11.780  15.594  68.878  1.00  0.00    -0.382 NA 
HETATM   12  C   UNL     1     -12.801  10.540  70.845  1.00  0.00    -0.394 C  
HETATM   13  C   UNL     1     -12.768  12.936  71.227  1.00  0.00    -0.278 C  
ENDROOT
BRANCH   6  14
HETATM   14  C   UNL     1     -11.010  13.220  66.263  1.00  0.00    -0.284 C  
BRANCH  14  15
HETATM   15  C   UNL     1     -12.200  12.991  65.325  1.00  0.00    -0.466 C  
HETATM   16  H   UNL     1     -13.984  13.800  64.968  1.00  0.00     0.000 HD 
HETATM   17  O   UNL     1     -13.246  13.942  65.549  1.00  0.00    -0.698 OA 
BRANCH  15  18
HETATM   18  C   UNL     1     -11.745  13.078  63.860  1.00  0.00    -0.468 C  
HETATM   19  O   UNL     1     -12.440  14.093  63.139  1.00  0.00    -1.126 OA 
HETATM   20  H   UNL     1     -12.158  14.146  62.234  1.00  0.00     0.000 HD 
ENDBRANCH  15  18
ENDBRANCH  14  15
ENDBRANCH   6  14
TORSDOF 3
ENDMDL
MODEL        3
REMARK 921   NORMALIZED FREE ENERGY PREDICTED BY IDOCK:   -6.11 KCAL/MOL
REMARK 922        TOTAL FREE ENERGY PREDICTED BY IDOCK:   -7.66 KCAL/MOL
REMARK 923 INTER-LIGAND FREE ENERGY PREDICTED BY IDOCK:   -7.35 KCAL/MOL
REMARK 924 INTRA-LIGAND FREE ENERGY PREDICTED BY IDOCK:   -0.31 KCAL/MOL
REMARK 927      BINDING AFFINITY PREDICTED BY RF-SCORE:    0.00 PKD
ROOT
HETATM    1  C   UNL     1     -12.687  10.579  71.588  1.00  0.00    -0.445 C  
HETATM    2  N   UNL     1     -12.490  11.744  70.746  1.00  0.00    -0.348 N  
HETATM    3  C   UNL     1     -12.021  11.634  69.459  1.00  0.00    -0.317 A  
HETATM    4  C   UNL     1     -11.855  12.730  68.664  1.00  0.00    -0.304 A  
HETATM    5  C   UNL     1     -12.155  14.055  69.091  1.00  0.00    -0.337 C  
HETATM    6  N   UNL     1     -11.392  12.237  67.475  1.00  0.00    -0.303 NA 
HETATM    7  O   UNL     1     -12.024  15.033  68.358  1.00  0.00    -0.291 OA 
HETATM    8  N   UNL     1     -12.603  14.111  70.413  1.00  0.00    -0.347 N  
HETATM    9  O   UNL     1     -13.217  13.141  72.414  1.00  0.00    -0.483 OA 
HETATM   10  C   UNL     1     -11.285  10.877  67.619  1.00  0.00    -0.309 A  
HETATM   11  N   UNL     1     -11.667  10.486  68.819  1.00  0.00    -0.266 NA 
HETATM   12  C   UNL     1     -12.924  15.407  70.977  1.00  0.00    -0.492 C  
HETATM   13  C   UNL     1     -12.795  13.001  71.261  1.00  0.00    -0.281 C  
ENDROOT
BRANCH   6  14
HETATM   14  C   UNL     1     -11.028  12.991  66.292  1.00  0.00    -0.284 C  
BRANCH  14  15
HETATM   15  C   UNL     1     -12.113  12.970  65.211  1.00  0.00    -0.441 C  
HETATM   16  H   UNL     1     -13.762  13.984  64.743  1.00  0.00     0.000 HD 
HETATM   17  O   UNL     1     -13.089  13.996  65.414  1.00  0.00    -0.763 OA 
BRANCH  15  18
HETATM   18  C   UNL     1     -11.480  13.145  63.822  1.00  0.00    -0.373 C  
HETATM   19  O   UNL     1     -12.414  13.633  62.861  1.00  0.00    -0.960 OA 
HETATM   20  H   UNL     1     -12.022  13.741  62.003  1.00  0.00     0.000 HD 
ENDBRANCH  15  18
ENDBRANCH  14  15
ENDBRANCH   6  14
TORSDOF 3
ENDMDL
MODEL        4
REMARK 921   NORMALIZED FREE ENERGY PREDICTED BY IDOCK:   -6.02 KCAL/MOL
REMARK 922        TOTAL FREE ENERGY PREDICTED BY IDOCK:   -7.55 KCAL/MOL
REMARK 923 INTER-LIGAND FREE ENERGY PREDICTED BY IDOCK:   -7.33 KCAL/MOL
REMARK 924 INTRA-LIGAND FREE ENERGY PREDICTED BY IDOCK:   -0.22 KCAL/MOL
REMARK 927      BINDING AFFINITY PREDICTED BY RF-SCORE:    0.00 PKD
ROOT
HETATM    1  C   UNL     1     -13.510  14.422  72.283  1.00  0.00    -0.433 C  
HETATM    2  N   UNL     1     -12.820  13.736  71.207  1.00  0.00    -0.352 N  
HETATM    3  C   UNL     1     -12.259  14.423  70.156  1.00  0.00    -0.341 A  
HETATM    4  C   UNL     1     -11.594  13.776  69.156  1.00  0.00    -0.317 A  
HETATM    5  C   UNL     1     -11.423  12.363  69.120  1.00  0.00    -0.302 C  
HETATM    6  N   UNL     1     -11.174  14.769  68.312  1.00  0.00    -0.273 NA 
HETATM    7  O   UNL     1     -10.801  11.793  68.226  1.00  0.00    -0.199 OA 
HETATM    8  N   UNL     1     -12.033  11.715  70.196  1.00  0.00    -0.349 N  
HETATM    9  O   UNL     1     -13.214  11.696  72.179  1.00  0.00    -0.504 OA 
HETATM   10  C   UNL     1     -11.621  15.955  68.836  1.00  0.00    -0.388 A  
HETATM   11  N   UNL     1     -12.281  15.770  69.962  1.00  0.00    -0.342 NA 
HETATM   12  C   UNL     1     -11.950  10.269  70.267  1.00  0.00    -0.264 C  
HETATM   13  C   UNL     1     -12.721  12.348  71.252  1.00  0.00    -0.248 C  
ENDROOT
BRANCH   6  14
HETATM   14  C   UNL     1     -10.441  14.616  67.072  1.00  0.00    -0.269 C  
BRANCH  14  15
HETATM   15  C   UNL     1     -10.634  15.794  66.112  1.00  0.00    -0.313 C  
HETATM   16  H   UNL     1      -9.516  17.176  65.216  1.00  0.00     0.000 HD 
HETATM   17  O   UNL     1      -9.396  16.445  65.811  1.00  0.00    -0.468 OA 
BRANCH  15  18
HETATM   18  C   UNL     1     -11.281  15.312  64.805  1.00  0.00    -0.396 C  
HETATM   19  O   UNL     1     -11.530  16.384  63.899  1.00  0.00    -1.569 OA 
HETATM   20  H   UNL     1     -11.930  16.086  63.091  1.00  0.00     0.000 HD 
ENDBRANCH  15  18
ENDBRANCH  14  15
ENDBRANCH   6  14
TORSDOF 3
ENDMDL
MODEL        5
REMARK 921   NORMALIZED FREE ENERGY PREDICTED BY IDOCK:   -6.00 KCAL/MOL
REMARK 922        TOTAL FREE ENERGY PREDICTED BY IDOCK:   -7.53 KCAL/MOL
REMARK 923 INTER-LIGAND FREE ENERGY PREDICTED BY IDOCK:   -7.23 KCAL/MOL
REMARK 924 INTRA-LIGAND FREE ENERGY PREDICTED BY IDOCK:   -0.30 KCAL/MOL
REMARK 927      BINDING AFFINITY PREDICTED BY RF-SCORE:    0.00 PKD
ROOT
HETATM    1  C   UNL     1     -12.539  10.598  70.977  1.00  0.00    -0.416 C  
HETATM    2  N   UNL     1     -12.382  11.952  70.480  1.00  0.00    -0.317 N  
HETATM    3  C   UNL     1     -11.740  12.216  69.293  1.00  0.00    -0.328 A  
HETATM    4  C   UNL     1     -11.612  13.489  68.819  1.00  0.00    -0.325 A  
HETATM    5  C   UNL     1     -12.129  14.629  69.497  1.00  0.00    -0.295 C  
HETATM    6  N   UNL     1     -10.941  13.358  67.634  1.00  0.00    -0.254 NA 
HETATM    7  O   UNL     1     -12.029  15.769  69.050  1.00  0.00    -0.385 OA 
HETATM    8  N   UNL     1     -12.748  14.306  70.708  1.00  0.00    -0.340 N  
HETATM    9  O   UNL     1     -13.489  12.807  72.298  1.00  0.00    -0.565 OA 
HETATM   10  C   UNL     1     -10.684  12.022  67.464  1.00  0.00    -0.226 A  
HETATM   11  N   UNL     1     -11.165  11.305  68.461  1.00  0.00    -0.228 NA 
HETATM   12  C   UNL     1     -13.300  15.382  71.508  1.00  0.00    -0.500 C  
HETATM   13  C   UNL     1     -12.907  13.004  71.226  1.00  0.00    -0.281 C  
ENDROOT
BRANCH   6  14
HETATM   14  C   UNL     1     -10.526  14.418  66.738  1.00  0.00    -0.273 C  
BRANCH  14  15
HETATM   15  C   UNL     1     -11.382  14.501  65.469  1.00  0.00    -0.335 C  
HETATM   16  H   UNL     1     -13.305  14.388  64.967  1.00  0.00     0.000 HD 
HETATM   17  O   UNL     1     -12.774  14.337  65.754  1.00  0.00    -0.464 OA 
BRANCH  15  18
HETATM   18  C   UNL     1     -11.166  15.853  64.772  1.00  0.00    -0.355 C  
HETATM   19  O   UNL     1     -12.030  16.025  63.651  1.00  0.00    -1.344 OA 
HETATM   20  H   UNL     1     -11.896  16.862  63.220  1.00  0.00     0.000 HD 
ENDBRANCH  15  18
ENDBRANCH  14  15
ENDBRANCH   6  14
TORSDOF 3
ENDMDL
MODEL        6
REMARK 921   NORMALIZED FREE ENERGY PREDICTED BY IDOCK:   -5.87 KCAL/MOL
REMARK 922        TOTAL FREE ENERGY PREDICTED BY IDOCK:   -7.37 KCAL/MOL
REMARK 923 INTER-LIGAND FREE ENERGY PREDICTED BY IDOCK:   -6.94 KCAL/MOL
REMARK 924 INTRA-LIGAND FREE ENERGY PREDICTED BY IDOCK:   -0.43 KCAL/MOL
REMARK 927      BINDING AFFINITY PREDICTED BY RF-SCORE:    0.00 PKD
ROOT
HETATM    1  C   UNL     1     -11.414  13.619  65.398  1.00  0.00    -0.311 C  
HETATM    2  N   UNL     1     -11.234  14.692  66.357  1.00  0.00    -0.332 N  
HETATM    3  C   UNL     1     -11.442  14.500  67.702  1.00  0.00    -0.353 A  
HETATM    4  C   UNL     1     -11.253  15.506  68.605  1.00  0.00    -0.325 A  
HETATM    5  C   UNL     1     -10.825  16.813  68.236  1.00  0.00    -0.366 C  
HETATM    6  N   UNL     1     -11.541  14.948  69.821  1.00  0.00    -0.285 NA 
HETATM    7  O   UNL     1     -10.635  17.705  69.060  1.00  0.00    -0.281 OA 
HETATM    8  N   UNL     1     -10.653  16.959  66.857  1.00  0.00    -0.263 N  
HETATM    9  O   UNL     1     -10.635  16.154  64.695  1.00  0.00    -0.597 OA 
HETATM   10  C   UNL     1     -11.905  13.646  69.588  1.00  0.00    -0.335 A  
HETATM   11  N   UNL     1     -11.848  13.349  68.305  1.00  0.00    -0.352 NA 
HETATM   12  C   UNL     1     -10.238  18.251  66.348  1.00  0.00    -0.403 C  
HETATM   13  C   UNL     1     -10.830  15.942  65.896  1.00  0.00    -0.233 C  
ENDROOT
BRANCH   6  14
HETATM   14  C   UNL     1     -11.521  15.602  71.113  1.00  0.00    -0.411 C  
BRANCH  14  15
HETATM   15  C   UNL     1     -12.397  14.898  72.155  1.00  0.00    -0.351 C  
HETATM   16  H   UNL     1     -12.399  14.577  74.119  1.00  0.00     0.000 HD 
HETATM   17  O   UNL     1     -11.856  15.013  73.473  1.00  0.00    -0.363 OA 
BRANCH  15  18
HETATM   18  C   UNL     1     -13.816  15.488  72.139  1.00  0.00    -0.523 C  
HETATM   19  O   UNL     1     -14.382  15.497  70.830  1.00  0.00    -0.852 OA 
HETATM   20  H   UNL     1     -15.259  15.862  70.821  1.00  0.00     0.000 HD 
ENDBRANCH  15  18
ENDBRANCH  14  15
ENDBRANCH   6  14
TORSDOF 3
ENDMDL
MODEL        7
REMARK 921   NORMALIZED FREE ENERGY PREDICTED BY IDOCK:   -5.82 KCAL/MOL
REMARK 922        TOTAL FREE ENERGY PREDICTED BY IDOCK:   -7.31 KCAL/MOL
REMARK 923 INTER-LIGAND FREE ENERGY PREDICTED BY IDOCK:   -6.79 KCAL/MOL
REMARK 924 INTRA-LIGAND FREE ENERGY PREDICTED BY IDOCK:   -0.52 KCAL/MOL
REMARK 927      BINDING AFFINITY PREDICTED BY RF-SCORE:    0.00 PKD
ROOT
HETATM    1  C   UNL     1     -13.024  15.586  71.484  1.00  0.00    -0.472 C  
HETATM    2  N   UNL     1     -12.583  14.437  70.718  1.00  0.00    -0.338 N  
HETATM    3  C   UNL     1     -11.972  14.576  69.494  1.00  0.00    -0.319 A  
HETATM    4  C   UNL     1     -11.541  13.493  68.784  1.00  0.00    -0.325 A  
HETATM    5  C   UNL     1     -11.680  12.154  69.246  1.00  0.00    -0.328 C  
HETATM    6  N   UNL     1     -10.985  14.015  67.648  1.00  0.00    -0.265 NA 
HETATM    7  O   UNL     1     -11.267  11.186  68.609  1.00  0.00    -0.211 OA 
HETATM    8  N   UNL     1     -12.330  12.069  70.479  1.00  0.00    -0.319 N  
HETATM    9  O   UNL     1     -13.329  12.997  72.341  1.00  0.00    -0.535 OA 
HETATM   10  C   UNL     1     -11.125  15.377  67.723  1.00  0.00    -0.320 A  
HETATM   11  N   UNL     1     -11.720  15.743  68.840  1.00  0.00    -0.401 NA 
HETATM   12  C   UNL     1     -12.554  10.756  71.052  1.00  0.00    -0.420 C  
HETATM   13  C   UNL     1     -12.781  13.163  71.245  1.00  0.00    -0.306 C  
ENDROOT
BRANCH   6  14
HETATM   14  C   UNL     1     -10.401  13.285  66.541  1.00  0.00    -0.285 C  
BRANCH  14  15
HETATM   15  C   UNL     1     -11.039  13.630  65.192  1.00  0.00    -0.318 C  
HETATM   16  H   UNL     1     -10.687  13.308  63.259  1.00  0.00     0.000 HD 
HETATM   17  O   UNL     1     -10.292  13.094  64.096  1.00  0.00    -0.421 OA 
BRANCH  15  18
HETATM   18  C   UNL     1     -12.477  13.092  65.133  1.00  0.00    -0.496 C  
HETATM   19  O   UNL     1     -13.422  14.022  65.656  1.00  0.00    -0.713 OA 
HETATM   20  H   UNL     1     -14.311  13.689  65.619  1.00  0.00     0.000 HD 
ENDBRANCH  15  18
ENDBRANCH  14  15
ENDBRANCH   6  14
TORSDOF 3
ENDMDL
MODEL        8
REMARK 921   NORMALIZED FREE ENERGY PREDICTED BY IDOCK:   -5.79 KCAL/MOL
REMARK 922        TOTAL FREE ENERGY PREDICTED BY IDOCK:   -7.28 KCAL/MOL
REMARK 923 INTER-LIGAND FREE ENERGY PREDICTED BY IDOCK:   -7.04 KCAL/MOL
REMARK 924 INTRA-LIGAND FREE ENERGY PREDICTED BY IDOCK:   -0.24 KCAL/MOL
REMARK 927      BINDING AFFINITY PREDICTED BY RF-SCORE:    0.00 PKD
ROOT
HETATM    1  C   UNL     1     -10.220  17.475  68.777  1.00  0.00    -0.373 C  
HETATM    2  N   UNL     1     -10.761  16.132  68.697  1.00  0.00    -0.277 N  
HETATM    3  C   UNL     1     -10.611  15.359  67.571  1.00  0.00    -0.283 A  
HETATM    4  C   UNL     1     -11.104  14.088  67.506  1.00  0.00    -0.298 A  
HETATM    5  C   UNL     1     -11.797  13.466  68.584  1.00  0.00    -0.362 C  
HETATM    6  N   UNL     1     -10.760  13.638  66.261  1.00  0.00    -0.283 NA 
HETATM    7  O   UNL     1     -12.217  12.312  68.524  1.00  0.00    -0.240 OA 
HETATM    8  N   UNL     1     -11.942  14.304  69.692  1.00  0.00    -0.317 N  
HETATM    9  O   UNL     1     -11.597  16.282  70.828  1.00  0.00    -0.377 OA 
HETATM   10  C   UNL     1     -10.096  14.662  65.635  1.00  0.00    -0.363 A  
HETATM   11  N   UNL     1      -9.990  15.719  66.415  1.00  0.00    -0.260 NA 
HETATM   12  C   UNL     1     -12.649  13.797  70.852  1.00  0.00    -0.356 C  
HETATM   13  C   UNL     1     -11.440  15.617  69.798  1.00  0.00    -0.342 C  
ENDROOT
BRANCH   6  14
HETATM   14  C   UNL     1     -11.070  12.350  65.676  1.00  0.00    -0.306 C  
BRANCH  14  15
HETATM   15  C   UNL     1     -12.309  12.383  64.775  1.00  0.00    -0.423 C  
HETATM   16  H   UNL     1     -14.048  13.348  64.678  1.00  0.00     0.000 HD 
HETATM   17  O   UNL     1     -13.279  13.327  65.237  1.00  0.00    -0.625 OA 
BRANCH  15  18
HETATM   18  C   UNL     1     -11.908  12.737  63.334  1.00  0.00    -0.518 C  
HETATM   19  O   UNL     1     -12.524  13.941  62.884  1.00  0.00    -1.034 OA 
HETATM   20  H   UNL     1     -12.276  14.160  61.993  1.00  0.00     0.000 HD 
ENDBRANCH  15  18
ENDBRANCH  14  15
ENDBRANCH   6  14
TORSDOF 3
ENDMDL
MODEL        9
REMARK 921   NORMALIZED FREE ENERGY PREDICTED BY IDOCK:   -5.75 KCAL/MOL
REMARK 922        TOTAL FREE ENERGY PREDICTED BY IDOCK:   -7.23 KCAL/MOL
REMARK 923 INTER-LIGAND FREE ENERGY PREDICTED BY IDOCK:   -7.02 KCAL/MOL
REMARK 924 INTRA-LIGAND FREE ENERGY PREDICTED BY IDOCK:   -0.21 KCAL/MOL
REMARK 927      BINDING AFFINITY PREDICTED BY RF-SCORE:    0.00 PKD
ROOT
HETATM    1  C   UNL     1     -11.867  13.056  68.657  1.00  0.00    -0.318 C  
HETATM    2  N   UNL     1     -11.672  13.947  67.530  1.00  0.00    -0.359 N  
HETATM    3  C   UNL     1     -11.207  15.230  67.695  1.00  0.00    -0.320 A  
HETATM    4  C   UNL     1     -11.005  16.059  66.631  1.00  0.00    -0.092 A  
HETATM    5  C   UNL     1     -11.249  15.669  65.283  1.00  0.00    -0.234 C  
HETATM    6  N   UNL     1     -10.537  17.224  67.174  1.00  0.00    -0.298 NA 
HETATM    7  O   UNL     1     -11.042  16.416  64.329  1.00  0.00    -0.845 OA 
HETATM    8  N   UNL     1     -11.744  14.367  65.175  1.00  0.00    -0.358 N  
HETATM    9  O   UNL     1     -12.378  12.333  66.061  1.00  0.00    -0.609 OA 
HETATM   10  C   UNL     1     -10.498  17.044  68.533  1.00  0.00    -0.373 A  
HETATM   11  N   UNL     1     -10.897  15.836  68.874  1.00  0.00    -0.244 NA 
HETATM   12  C   UNL     1     -12.054  13.855  63.855  1.00  0.00    -0.345 C  
HETATM   13  C   UNL     1     -11.956  13.479  66.250  1.00  0.00    -0.413 C  
ENDROOT
BRANCH   6  14
HETATM   14  C   UNL     1     -10.191  18.444  66.473  1.00  0.00    -0.401 C  
BRANCH  14  15
HETATM   15  C   UNL     1      -8.804  18.977  66.846  1.00  0.00    -0.301 C  
HETATM   16  H   UNL     1      -7.054  19.308  65.957  1.00  0.00     0.000 HD 
HETATM   17  O   UNL     1      -7.914  18.977  65.726  1.00  0.00    -0.465 OA 
BRANCH  15  18
HETATM   18  C   UNL     1      -8.917  20.405  67.400  1.00  0.00    -0.334 C  
HETATM   19  O   UNL     1      -7.819  21.224  67.007  1.00  0.00    -0.717 OA 
HETATM   20  H   UNL     1      -7.889  22.108  67.350  1.00  0.00     0.000 HD 
ENDBRANCH  15  18
ENDBRANCH  14  15
ENDBRANCH   6  14
TORSDOF 3
ENDMDL
MODEL       10
REMARK 921   NORMALIZED FREE ENERGY PREDICTED BY IDOCK:   -5.72 KCAL/MOL
REMARK 922        TOTAL FREE ENERGY PREDICTED BY IDOCK:   -7.20 KCAL/MOL
REMARK 923 INTER-LIGAND FREE ENERGY PREDICTED BY IDOCK:   -6.61 KCAL/MOL
REMARK 924 INTRA-LIGAND FREE ENERGY PREDICTED BY IDOCK:   -0.60 KCAL/MOL
REMARK 927      BINDING AFFINITY PREDICTED BY RF-SCORE:    0.00 PKD
ROOT
HETATM    1  C   UNL     1     -11.745  12.487  68.453  1.00  0.00    -0.328 C  
HETATM    2  N   UNL     1     -11.459  13.572  67.534  1.00  0.00    -0.311 N  
HETATM    3  C   UNL     1     -10.812  14.714  67.943  1.00  0.00    -0.259 A  
HETATM    4  C   UNL     1     -10.528  15.724  67.071  1.00  0.00    -0.309 A  
HETATM    5  C   UNL     1     -10.866  15.679  65.689  1.00  0.00    -0.327 C  
HETATM    6  N   UNL     1      -9.883  16.668  67.823  1.00  0.00    -0.247 NA 
HETATM    7  O   UNL     1     -10.584  16.585  64.907  1.00  0.00    -0.689 OA 
HETATM    8  N   UNL     1     -11.543  14.510  65.334  1.00  0.00    -0.349 N  
HETATM    9  O   UNL     1     -12.433  12.432  65.797  1.00  0.00    -0.615 OA 
HETATM   10  C   UNL     1      -9.827  16.188  69.107  1.00  0.00    -0.250 A  
HETATM   11  N   UNL     1     -10.384  14.997  69.203  1.00  0.00    -0.242 NA 
HETATM   12  C   UNL     1     -11.963  14.349  63.955  1.00  0.00    -0.258 C  
HETATM   13  C   UNL     1     -11.847  13.442  66.203  1.00  0.00    -0.385 C  
ENDROOT
BRANCH   6  14
HETATM   14  C   UNL     1      -9.388  17.956  67.381  1.00  0.00    -0.257 C  
BRANCH  14  15
HETATM   15  C   UNL     1     -10.412  19.083  67.556  1.00  0.00    -0.454 C  
HETATM   16  H   UNL     1     -10.783  20.564  68.833  1.00  0.00     0.000 HD 
HETATM   17  O   UNL     1     -10.149  19.865  68.724  1.00  0.00    -0.442 OA 
BRANCH  15  18
HETATM   18  C   UNL     1     -10.405  20.001  66.323  1.00  0.00    -0.455 C  
HETATM   19  O   UNL     1     -11.011  19.384  65.190  1.00  0.00    -0.430 OA 
HETATM   20  H   UNL     1     -11.007  19.951  64.428  1.00  0.00     0.000 HD 
ENDBRANCH  15  18
ENDBRANCH  14  15
ENDBRANCH   6  14
TORSDOF 3
ENDMDL
MODEL       11
REMARK 921   NORMALIZED FREE ENERGY PREDICTED BY IDOCK:   -5.70 KCAL/MOL
REMARK 922        TOTAL FREE ENERGY PREDICTED BY IDOCK:   -7.17 KCAL/MOL
REMARK 923 INTER-LIGAND FREE ENERGY PREDICTED BY IDOCK:   -6.79 KCAL/MOL
REMARK 924 INTRA-LIGAND FREE ENERGY PREDICTED BY IDOCK:   -0.37 KCAL/MOL
REMARK 927      BINDING AFFINITY PREDICTED BY RF-SCORE:    0.00 PKD
ROOT
HETATM    1  C   UNL     1     -10.656  19.333  65.898  1.00  0.00    -0.435 C  
HETATM    2  N   UNL     1     -10.290  17.994  66.320  1.00  0.00    -0.393 N  
HETATM    3  C   UNL     1     -10.651  16.884  65.594  1.00  0.00    -0.221 A  
HETATM    4  C   UNL     1     -10.288  15.628  65.984  1.00  0.00    -0.335 A  
HETATM    5  C   UNL     1      -9.516  15.367  67.151  1.00  0.00    -0.213 C  
HETATM    6  N   UNL     1     -10.807  14.798  65.028  1.00  0.00    -0.399 NA 
HETATM    7  O   UNL     1      -9.174  14.232  67.481  1.00  0.00    -0.186 OA 
HETATM    8  N   UNL     1      -9.199  16.526  67.864  1.00  0.00    -0.209 N  
HETATM    9  O   UNL     1      -9.207  18.813  68.169  1.00  0.00    -0.295 OA 
HETATM   10  C   UNL     1     -11.467  15.591  64.125  1.00  0.00    -0.053 A  
HETATM   11  N   UNL     1     -11.382  16.866  64.447  1.00  0.00    -1.090 NA 
HETATM   12  C   UNL     1      -8.431  16.396  69.086  1.00  0.00    -0.181 C  
HETATM   13  C   UNL     1      -9.548  17.840  67.488  1.00  0.00    -0.268 C  
ENDROOT
BRANCH   6  14
HETATM   14  C   UNL     1     -10.729  13.352  64.984  1.00  0.00    -0.343 C  
BRANCH  14  15
HETATM   15  C   UNL     1     -11.027  12.777  63.595  1.00  0.00    -0.358 C  
HETATM   16  H   UNL     1     -10.232  11.459  62.334  1.00  0.00     0.000 HD 
HETATM   17  O   UNL     1     -10.048  11.815  63.195  1.00  0.00    -0.418 OA 
BRANCH  15  18
HETATM   18  C   UNL     1     -12.416  12.119  63.581  1.00  0.00    -0.549 C  
HETATM   19  O   UNL     1     -13.224  12.543  64.675  1.00  0.00    -0.848 OA 
HETATM   20  H   UNL     1     -14.083  12.136  64.666  1.00  0.00     0.000 HD 
ENDBRANCH  15  18
ENDBRANCH  14  15
ENDBRANCH   6  14
TORSDOF 3
ENDMDL
MODEL       12
REMARK 921   NORMALIZED FREE ENERGY PREDICTED BY IDOCK:   -5.68 KCAL/MOL
REMARK 922        TOTAL FREE ENERGY PREDICTED BY IDOCK:   -7.15 KCAL/MOL
REMARK 923 INTER-LIGAND FREE ENERGY PREDICTED BY IDOCK:   -6.95 KCAL/MOL
REMARK 924 INTRA-LIGAND FREE ENERGY PREDICTED BY IDOCK:   -0.20 KCAL/MOL
REMARK 927      BINDING AFFINITY PREDICTED BY RF-SCORE:    0.00 PKD
ROOT
HETATM    1  C   UNL     1     -12.310  13.834  70.999  1.00  0.00    -0.372 C  
HETATM    2  N   UNL     1     -11.694  14.454  69.841  1.00  0.00    -0.287 N  
HETATM    3  C   UNL     1     -11.514  13.766  68.664  1.00  0.00    -0.301 A  
HETATM    4  C   UNL     1     -10.952  14.358  67.571  1.00  0.00    -0.293 A  
HETATM    5  C   UNL     1     -10.520  15.714  67.555  1.00  0.00    -0.285 C  
HETATM    6  N   UNL     1     -10.948  13.387  66.607  1.00  0.00    -0.285 NA 
HETATM    7  O   UNL     1     -10.036  16.245  66.557  1.00  0.00    -0.266 OA 
HETATM    8  N   UNL     1     -10.703  16.357  68.782  1.00  0.00    -0.300 N  
HETATM    9  O   UNL     1     -11.430  16.432  70.971  1.00  0.00    -0.388 OA 
HETATM   10  C   UNL     1     -11.488  12.260  67.172  1.00  0.00    -0.352 A  
HETATM   11  N   UNL     1     -11.844  12.468  68.424  1.00  0.00    -0.327 NA 
HETATM   12  C   UNL     1     -10.283  17.739  68.906  1.00  0.00    -0.345 C  
HETATM   13  C   UNL     1     -11.286  15.782  69.930  1.00  0.00    -0.349 C  
ENDROOT
BRANCH   6  14
HETATM   14  C   UNL     1     -10.431  13.491  65.258  1.00  0.00    -0.336 C  
BRANCH  14  15
HETATM   15  C   UNL     1     -11.529  13.692  64.209  1.00  0.00    -0.366 C  
HETATM   16  H   UNL     1     -13.079  12.684  63.472  1.00  0.00     0.000 HD 
HETATM   17  O   UNL     1     -12.398  12.559  64.122  1.00  0.00    -0.425 OA 
BRANCH  15  18
HETATM   18  C   UNL     1     -12.361  14.940  64.544  1.00  0.00    -0.315 C  
HETATM   19  O   UNL     1     -11.861  16.110  63.900  1.00  0.00    -1.359 OA 
HETATM   20  H   UNL     1     -12.376  16.881  64.108  1.00  0.00     0.000 HD 
ENDBRANCH  15  18
ENDBRANCH  14  15
ENDBRANCH   6  14
TORSDOF 3
ENDMDL
MODEL       13
REMARK 921   NORMALIZED FREE ENERGY PREDICTED BY IDOCK:   -5.65 KCAL/MOL
REMARK 922        TOTAL FREE ENERGY PREDICTED BY IDOCK:   -7.12 KCAL/MOL
REMARK 923 INTER-LIGAND FREE ENERGY PREDICTED BY IDOCK:   -6.91 KCAL/MOL
REMARK 924 INTRA-LIGAND FREE ENERGY PREDICTED BY IDOCK:   -0.21 KCAL/MOL
REMARK 927      BINDING AFFINITY PREDICTED BY RF-SCORE:    0.00 PKD
ROOT
HETATM    1  C   UNL     1      -9.391   7.812  66.519  1.00  0.00    -0.189 C  
HETATM    2  N   UNL     1     -10.057   8.980  67.064  1.00  0.00    -0.226 N  
HETATM    3  C   UNL     1     -10.362  10.068  66.281  1.00  0.00    -0.165 A  
HETATM    4  C   UNL     1     -11.006  11.157  66.792  1.00  0.00    -0.249 A  
HETATM    5  C   UNL     1     -11.414  11.253  68.153  1.00  0.00    -0.306 C  
HETATM    6  N   UNL     1     -11.145  12.014  65.735  1.00  0.00    -0.314 NA 
HETATM    7  O   UNL     1     -12.015  12.229  68.598  1.00  0.00    -0.309 OA 
HETATM    8  N   UNL     1     -11.057  10.133  68.907  1.00  0.00    -0.227 N  
HETATM    9  O   UNL     1     -10.140   8.029  69.150  1.00  0.00    -0.190 OA 
HETATM   10  C   UNL     1     -10.564  11.408  64.650  1.00  0.00    -0.318 A  
HETATM   11  N   UNL     1     -10.084  10.220  64.957  1.00  0.00    -0.323 NA 
HETATM   12  C   UNL     1     -11.397  10.114  70.316  1.00  0.00    -0.315 C  
HETATM   13  C   UNL     1     -10.400   8.987  68.413  1.00  0.00    -0.205 C  
ENDROOT
BRANCH   6  14
HETATM   14  C   UNL     1     -11.742  13.334  65.746  1.00  0.00    -0.359 C  
BRANCH  14  15
HETATM   15  C   UNL     1     -11.449  14.135  64.473  1.00  0.00    -0.372 C  
HETATM   16  H   UNL     1     -12.368  14.601  62.770  1.00  0.00     0.000 HD 
HETATM   17  O   UNL     1     -12.549  14.104  63.559  1.00  0.00    -0.834 OA 
BRANCH  15  18
HETATM   18  C   UNL     1     -11.130  15.596  64.828  1.00  0.00    -0.412 C  
HETATM   19  O   UNL     1     -11.618  16.508  63.848  1.00  0.00    -1.598 OA 
HETATM   20  H   UNL     1     -11.421  17.411  64.068  1.00  0.00     0.000 HD 
ENDBRANCH  15  18
ENDBRANCH  14  15
ENDBRANCH   6  14
TORSDOF 3
ENDMDL
MODEL       14
REMARK 921   NORMALIZED FREE ENERGY PREDICTED BY IDOCK:   -5.63 KCAL/MOL
REMARK 922        TOTAL FREE ENERGY PREDICTED BY IDOCK:   -7.09 KCAL/MOL
REMARK 923 INTER-LIGAND FREE ENERGY PREDICTED BY IDOCK:   -6.75 KCAL/MOL
REMARK 924 INTRA-LIGAND FREE ENERGY PREDICTED BY IDOCK:   -0.35 KCAL/MOL
REMARK 927      BINDING AFFINITY PREDICTED BY RF-SCORE:    0.00 PKD
ROOT
HETATM    1  C   UNL     1     -10.673   8.293  69.849  1.00  0.00    -0.234 C  
HETATM    2  N   UNL     1     -11.029   9.655  69.502  1.00  0.00    -0.229 N  
HETATM    3  C   UNL     1     -10.810  10.161  68.243  1.00  0.00    -0.252 A  
HETATM    4  C   UNL     1     -11.164  11.437  67.915  1.00  0.00    -0.288 A  
HETATM    5  C   UNL     1     -11.786  12.333  68.831  1.00  0.00    -0.328 C  
HETATM    6  N   UNL     1     -10.808  11.576  66.601  1.00  0.00    -0.276 NA 
HETATM    7  O   UNL     1     -12.123  13.474  68.518  1.00  0.00    -0.359 OA 
HETATM    8  N   UNL     1     -11.961  11.777  70.100  1.00  0.00    -0.342 N  
HETATM    9  O   UNL     1     -11.828  10.043  71.618  1.00  0.00    -0.365 OA 
HETATM   10  C   UNL     1     -10.244  10.388  66.212  1.00  0.00    -0.222 A  
HETATM   11  N   UNL     1     -10.238   9.509  67.194  1.00  0.00    -0.224 NA 
HETATM   12  C   UNL     1     -12.566  12.595  71.133  1.00  0.00    -0.258 C  
HETATM   13  C   UNL     1     -11.616  10.462  70.474  1.00  0.00    -0.344 C  
ENDROOT
BRANCH   6  14
HETATM   14  C   UNL     1     -10.945  12.757  65.774  1.00  0.00    -0.277 C  
BRANCH  14  15
HETATM   15  C   UNL     1     -12.243  12.772  64.960  1.00  0.00    -0.473 C  
HETATM   16  H   UNL     1     -13.843  13.935  64.740  1.00  0.00     0.000 HD 
HETATM   17  O   UNL     1     -13.039  13.926  65.245  1.00  0.00    -0.777 OA 
BRANCH  15  18
HETATM   18  C   UNL     1     -11.925  12.739  63.456  1.00  0.00    -0.555 C  
HETATM   19  O   UNL     1     -12.249  11.483  62.865  1.00  0.00    -0.942 OA 
HETATM   20  H   UNL     1     -12.053  11.462  61.936  1.00  0.00     0.000 HD 
ENDBRANCH  15  18
ENDBRANCH  14  15
ENDBRANCH   6  14
TORSDOF 3
ENDMDL
MODEL       15
REMARK 921   NORMALIZED FREE ENERGY PREDICTED BY IDOCK:   -5.55 KCAL/MOL
REMARK 922        TOTAL FREE ENERGY PREDICTED BY IDOCK:   -7.00 KCAL/MOL
REMARK 923 INTER-LIGAND FREE ENERGY PREDICTED BY IDOCK:   -6.69 KCAL/MOL
REMARK 924 INTRA-LIGAND FREE ENERGY PREDICTED BY IDOCK:   -0.31 KCAL/MOL
REMARK 927      BINDING AFFINITY PREDICTED BY RF-SCORE:    0.00 PKD
ROOT
HETATM    1  C   UNL     1     -10.824  10.329  67.667  1.00  0.00    -0.307 C  
HETATM    2  N   UNL     1     -11.162  11.711  67.949  1.00  0.00    -0.247 N  
HETATM    3  C   UNL     1     -11.737  12.086  69.140  1.00  0.00    -0.330 A  
HETATM    4  C   UNL     1     -12.036  13.389  69.410  1.00  0.00    -0.315 A  
HETATM    5  C   UNL     1     -11.775  14.452  68.500  1.00  0.00    -0.335 C  
HETATM    6  N   UNL     1     -12.575  13.375  70.668  1.00  0.00    -0.289 NA 
HETATM    7  O   UNL     1     -12.027  15.627  68.762  1.00  0.00    -0.348 OA 
HETATM    8  N   UNL     1     -11.215  14.013  67.298  1.00  0.00    -0.302 N  
HETATM    9  O   UNL     1     -10.370  12.381  65.903  1.00  0.00    -0.246 OA 
HETATM   10  C   UNL     1     -12.589  12.068  71.082  1.00  0.00    -0.271 A  
HETATM   11  N   UNL     1     -12.081  11.264  70.170  1.00  0.00    -0.345 NA 
HETATM   12  C   UNL     1     -10.919  14.998  66.275  1.00  0.00    -0.338 C  
HETATM   13  C   UNL     1     -10.884  12.678  66.987  1.00  0.00    -0.253 C  
ENDROOT
BRANCH   6  14
HETATM   14  C   UNL     1     -13.085  14.505  71.418  1.00  0.00    -0.353 C  
BRANCH  14  15
HETATM   15  C   UNL     1     -12.035  15.138  72.337  1.00  0.00    -0.393 C  
HETATM   16  H   UNL     1     -11.042  16.856  72.493  1.00  0.00     0.000 HD 
HETATM   17  O   UNL     1     -11.693  16.463  71.923  1.00  0.00    -0.493 OA 
BRANCH  15  18
HETATM   18  C   UNL     1     -12.553  15.179  73.783  1.00  0.00    -0.575 C  
HETATM   19  O   UNL     1     -13.390  16.308  74.023  1.00  0.00    -0.948 OA 
HETATM   20  H   UNL     1     -13.710  16.333  74.917  1.00  0.00     0.000 HD 
ENDBRANCH  15  18
ENDBRANCH  14  15
ENDBRANCH   6  14
TORSDOF 3
ENDMDL
MODEL       16
REMARK 921   NORMALIZED FREE ENERGY PREDICTED BY IDOCK:   -5.52 KCAL/MOL
REMARK 922        TOTAL FREE ENERGY PREDICTED BY IDOCK:   -6.97 KCAL/MOL
REMARK 923 INTER-LIGAND FREE ENERGY PREDICTED BY IDOCK:   -6.35 KCAL/MOL
REMARK 924 INTRA-LIGAND FREE ENERGY PREDICTED BY IDOCK:   -0.61 KCAL/MOL
REMARK 927      BINDING AFFINITY PREDICTED BY RF-SCORE:    0.00 PKD
ROOT
HETATM    1  C   UNL     1     -10.309  19.551  65.917  1.00  0.00    -0.470 C  
HETATM    2  N   UNL     1     -10.000  18.184  66.292  1.00  0.00    -0.352 N  
HETATM    3  C   UNL     1     -10.511  17.112  65.599  1.00  0.00    -0.197 A  
HETATM    4  C   UNL     1     -10.203  15.828  65.942  1.00  0.00    -0.355 A  
HETATM    5  C   UNL     1      -9.337  15.497  67.022  1.00  0.00    -0.224 C  
HETATM    6  N   UNL     1     -10.874  15.051  65.038  1.00  0.00    -0.399 NA 
HETATM    7  O   UNL     1      -9.047  14.336  67.308  1.00  0.00    -0.196 OA 
HETATM    8  N   UNL     1      -8.868  16.621  67.706  1.00  0.00    -0.204 N  
HETATM    9  O   UNL     1      -8.679  18.898  68.026  1.00  0.00    -0.284 OA 
HETATM   10  C   UNL     1     -11.563  15.901  64.211  1.00  0.00    -0.178 A  
HETATM   11  N   UNL     1     -11.354  17.163  64.531  1.00  0.00    -0.926 NA 
HETATM   12  C   UNL     1      -7.991  16.419  68.843  1.00  0.00    -0.236 C  
HETATM   13  C   UNL     1      -9.156  17.961  67.377  1.00  0.00    -0.245 C  
ENDROOT
BRANCH   6  14
HETATM   14  C   UNL     1     -10.906  13.604  64.976  1.00  0.00    -0.352 C  
BRANCH  14  15
HETATM   15  C   UNL     1     -12.111  12.999  65.704  1.00  0.00    -0.454 C  
HETATM   16  H   UNL     1     -13.787  12.028  65.246  1.00  0.00     0.000 HD 
HETATM   17  O   UNL     1     -13.040  12.403  64.794  1.00  0.00    -0.806 OA 
BRANCH  15  18
HETATM   18  C   UNL     1     -11.642  11.938  66.713  1.00  0.00    -0.268 C  
HETATM   19  O   UNL     1     -10.225  11.787  66.717  1.00  0.00    -0.206 OA 
HETATM   20  H   UNL     1      -9.936  11.132  67.341  1.00  0.00     0.000 HD 
ENDBRANCH  15  18
ENDBRANCH  14  15
ENDBRANCH   6  14
TORSDOF 3
ENDMDL
MODEL       17
REMARK 921   NORMALIZED FREE ENERGY PREDICTED BY IDOCK:   -5.50 KCAL/MOL
REMARK 922        TOTAL FREE ENERGY PREDICTED BY IDOCK:   -6.94 KCAL/MOL
REMARK 923 INTER-LIGAND FREE ENERGY PREDICTED BY IDOCK:   -6.65 KCAL/MOL
REMARK 924 INTRA-LIGAND FREE ENERGY PREDICTED BY IDOCK:   -0.29 KCAL/MOL
REMARK 927      BINDING AFFINITY PREDICTED BY RF-SCORE:    0.00 PKD
ROOT
HETATM    1  C   UNL     1      -9.997   9.081  66.204  1.00  0.00    -0.241 C  
HETATM    2  N   UNL     1     -10.568  10.349  66.616  1.00  0.00    -0.211 N  
HETATM    3  C   UNL     1     -10.815  11.357  65.714  1.00  0.00    -0.230 A  
HETATM    4  C   UNL     1     -11.371  12.541  66.102  1.00  0.00    -0.343 A  
HETATM    5  C   UNL     1     -11.740  12.824  67.448  1.00  0.00    -0.366 C  
HETATM    6  N   UNL     1     -11.473  13.276  64.953  1.00  0.00    -0.309 NA 
HETATM    7  O   UNL     1     -12.262  13.886  67.783  1.00  0.00    -0.338 OA 
HETATM    8  N   UNL     1     -11.444  11.778  68.324  1.00  0.00    -0.281 N  
HETATM    9  O   UNL     1     -10.670   9.656  68.800  1.00  0.00    -0.221 OA 
HETATM   10  C   UNL     1     -10.960  12.508  63.939  1.00  0.00    -0.424 A  
HETATM   11  N   UNL     1     -10.557  11.333  64.378  1.00  0.00    -0.335 NA 
HETATM   12  C   UNL     1     -11.753  11.948  69.731  1.00  0.00    -0.331 C  
HETATM   13  C   UNL     1     -10.879  10.538  67.960  1.00  0.00    -0.263 C  
ENDROOT
BRANCH   6  14
HETATM   14  C   UNL     1     -11.977  14.628  64.817  1.00  0.00    -0.433 C  
BRANCH  14  15
HETATM   15  C   UNL     1     -10.867  15.664  64.614  1.00  0.00    -0.243 C  
HETATM   16  H   UNL     1     -10.697  17.564  64.043  1.00  0.00     0.000 HD 
HETATM   17  O   UNL     1     -11.385  16.921  64.169  1.00  0.00    -1.208 OA 
BRANCH  15  18
HETATM   18  C   UNL     1     -10.091  15.874  65.924  1.00  0.00    -0.352 C  
HETATM   19  O   UNL     1      -9.112  16.904  65.811  1.00  0.00    -0.523 OA 
HETATM   20  H   UNL     1      -8.633  17.033  66.621  1.00  0.00     0.000 HD 
ENDBRANCH  15  18
ENDBRANCH  14  15
ENDBRANCH   6  14
TORSDOF 3
ENDMDL
MODEL       18
REMARK 921   NORMALIZED FREE ENERGY PREDICTED BY IDOCK:   -5.41 KCAL/MOL
REMARK 922        TOTAL FREE ENERGY PREDICTED BY IDOCK:   -6.83 KCAL/MOL
REMARK 923 INTER-LIGAND FREE ENERGY PREDICTED BY IDOCK:   -6.29 KCAL/MOL
REMARK 924 INTRA-LIGAND FREE ENERGY PREDICTED BY IDOCK:   -0.53 KCAL/MOL
REMARK 927      BINDING AFFINITY PREDICTED BY RF-SCORE:    0.00 PKD
ROOT
HETATM    1  C   UNL     1     -11.463   9.768  71.016  1.00  0.00    -0.383 C  
HETATM    2  N   UNL     1     -11.142   9.932  69.611  1.00  0.00    -0.247 N  
HETATM    3  C   UNL     1     -11.350  11.123  68.958  1.00  0.00    -0.276 A  
HETATM    4  C   UNL     1     -11.029  11.281  67.641  1.00  0.00    -0.259 A  
HETATM    5  C   UNL     1     -10.456  10.245  66.850  1.00  0.00    -0.229 C  
HETATM    6  N   UNL     1     -11.360  12.575  67.349  1.00  0.00    -0.293 NA 
HETATM    7  O   UNL     1     -10.149  10.404  65.670  1.00  0.00    -0.259 OA 
HETATM    8  N   UNL     1     -10.291   9.050  67.556  1.00  0.00    -0.248 N  
HETATM    9  O   UNL     1     -10.403   7.765  69.469  1.00  0.00    -0.209 OA 
HETATM   10  C   UNL     1     -11.878  13.124  68.494  1.00  0.00    -0.342 A  
HETATM   11  N   UNL     1     -11.878  12.260  69.489  1.00  0.00    -0.319 NA 
HETATM   12  C   UNL     1      -9.735   7.908  66.857  1.00  0.00    -0.219 C  
HETATM   13  C   UNL     1     -10.602   8.853  68.917  1.00  0.00    -0.165 C  
ENDROOT
BRANCH   6  14
HETATM   14  C   UNL     1     -11.243  13.245  66.070  1.00  0.00    -0.297 C  
BRANCH  14  15
HETATM   15  C   UNL     1     -12.404  12.933  65.120  1.00  0.00    -0.493 C  
HETATM   16  H   UNL     1     -14.122  13.764  64.554  1.00  0.00     0.000 HD 
HETATM   17  O   UNL     1     -13.402  13.957  65.142  1.00  0.00    -0.698 OA 
BRANCH  15  18
HETATM   18  C   UNL     1     -11.884  12.767  63.684  1.00  0.00    -0.532 C  
HETATM   19  O   UNL     1     -11.787  11.397  63.300  1.00  0.00    -0.824 OA 
HETATM   20  H   UNL     1     -11.466  11.295  62.412  1.00  0.00     0.000 HD 
ENDBRANCH  15  18
ENDBRANCH  14  15
ENDBRANCH   6  14
TORSDOF 3
ENDMDL
MODEL       19
REMARK 921   NORMALIZED FREE ENERGY PREDICTED BY IDOCK:   -5.40 KCAL/MOL
REMARK 922        TOTAL FREE ENERGY PREDICTED BY IDOCK:   -6.82 KCAL/MOL
REMARK 923 INTER-LIGAND FREE ENERGY PREDICTED BY IDOCK:   -6.10 KCAL/MOL
REMARK 924 INTRA-LIGAND FREE ENERGY PREDICTED BY IDOCK:   -0.72 KCAL/MOL
REMARK 927      BINDING AFFINITY PREDICTED BY RF-SCORE:    0.00 PKD
ROOT
HETATM    1  C   UNL     1     -11.920  13.976  63.968  1.00  0.00    -0.354 C  
HETATM    2  N   UNL     1     -11.629  14.233  65.365  1.00  0.00    -0.337 N  
HETATM    3  C   UNL     1     -11.156  15.450  65.793  1.00  0.00    -0.260 A  
HETATM    4  C   UNL     1     -10.901  15.695  67.111  1.00  0.00    -0.297 A  
HETATM    5  C   UNL     1     -11.107  14.728  68.136  1.00  0.00    -0.278 C  
HETATM    6  N   UNL     1     -10.463  16.990  67.151  1.00  0.00    -0.313 NA 
HETATM    7  O   UNL     1     -10.897  14.966  69.324  1.00  0.00    -0.248 OA 
HETATM    8  N   UNL     1     -11.564  13.503  67.643  1.00  0.00    -0.318 N  
HETATM    9  O   UNL     1     -12.269  12.107  65.946  1.00  0.00    -0.604 OA 
HETATM   10  C   UNL     1     -10.459  17.452  65.860  1.00  0.00    -0.252 A  
HETATM   11  N   UNL     1     -10.881  16.533  65.015  1.00  0.00    -0.648 NA 
HETATM   12  C   UNL     1     -11.794  12.425  68.585  1.00  0.00    -0.302 C  
HETATM   13  C   UNL     1     -11.846  13.216  66.292  1.00  0.00    -0.401 C  
ENDROOT
BRANCH   6  14
HETATM   14  C   UNL     1     -10.033  17.736  68.317  1.00  0.00    -0.355 C  
BRANCH  14  15
HETATM   15  C   UNL     1      -8.621  18.312  68.172  1.00  0.00    -0.278 C  
HETATM   16  H   UNL     1      -7.603  19.913  68.774  1.00  0.00     0.000 HD 
HETATM   17  O   UNL     1      -8.479  19.556  68.864  1.00  0.00    -0.358 OA 
BRANCH  15  18
HETATM   18  C   UNL     1      -7.584  17.314  68.712  1.00  0.00    -0.256 C  
HETATM   19  O   UNL     1      -8.194  16.168  69.301  1.00  0.00    -0.239 OA 
HETATM   20  H   UNL     1      -7.553  15.552  69.634  1.00  0.00     0.000 HD 
ENDBRANCH  15  18
ENDBRANCH  14  15
ENDBRANCH   6  14
TORSDOF 3
ENDMDL
MODEL       20
REMARK 921   NORMALIZED FREE ENERGY PREDICTED BY IDOCK:   -5.39 KCAL/MOL
REMARK 922        TOTAL FREE ENERGY PREDICTED BY IDOCK:   -6.81 KCAL/MOL
REMARK 923 INTER-LIGAND FREE ENERGY PREDICTED BY IDOCK:   -6.49 KCAL/MOL
REMARK 924 INTRA-LIGAND FREE ENERGY PREDICTED BY IDOCK:   -0.32 KCAL/MOL
REMARK 927      BINDING AFFINITY PREDICTED BY RF-SCORE:    0.00 PKD
ROOT
HETATM    1  C   UNL     1     -10.180  10.263  67.719  1.00  0.00    -0.187 C  
HETATM    2  N   UNL     1     -10.947  10.656  68.886  1.00  0.00    -0.231 N  
HETATM    3  C   UNL     1     -11.379  11.949  69.064  1.00  0.00    -0.279 A  
HETATM    4  C   UNL     1     -12.117  12.311  70.153  1.00  0.00    -0.287 A  
HETATM    5  C   UNL     1     -12.500  11.395  71.173  1.00  0.00    -0.360 C  
HETATM    6  N   UNL     1     -12.366  13.645  69.983  1.00  0.00    -0.309 NA 
HETATM    7  O   UNL     1     -13.186  11.727  72.139  1.00  0.00    -0.498 OA 
HETATM    8  N   UNL     1     -12.014  10.104  70.955  1.00  0.00    -0.348 N  
HETATM    9  O   UNL     1     -10.885   8.518  69.716  1.00  0.00    -0.229 OA 
HETATM   10  C   UNL     1     -11.753  14.021  68.815  1.00  0.00    -0.353 A  
HETATM   11  N   UNL     1     -11.148  13.003  68.235  1.00  0.00    -0.249 NA 
HETATM   12  C   UNL     1     -12.318   9.078  71.934  1.00  0.00    -0.384 C  
HETATM   13  C   UNL     1     -11.257   9.690  69.840  1.00  0.00    -0.207 C  
ENDROOT
BRANCH   6  14
HETATM   14  C   UNL     1     -13.092  14.524  70.876  1.00  0.00    -0.345 C  
BRANCH  14  15
HETATM   15  C   UNL     1     -12.219  15.091  72.001  1.00  0.00    -0.361 C  
HETATM   16  H   UNL     1     -11.245  16.776  72.417  1.00  0.00     0.000 HD 
HETATM   17  O   UNL     1     -11.786  16.424  71.720  1.00  0.00    -0.472 OA 
BRANCH  15  18
HETATM   18  C   UNL     1     -12.994  15.082  73.328  1.00  0.00    -0.525 C  
HETATM   19  O   UNL     1     -13.844  16.218  73.464  1.00  0.00    -0.868 OA 
HETATM   20  H   UNL     1     -14.322  16.212  74.284  1.00  0.00     0.000 HD 
ENDBRANCH  15  18
ENDBRANCH  14  15
ENDBRANCH   6  14
TORSDOF 3
ENDMDL
MODEL       21
REMARK 921   NORMALIZED FREE ENERGY PREDICTED BY IDOCK:   -5.38 KCAL/MOL
REMARK 922        TOTAL FREE ENERGY PREDICTED BY IDOCK:   -6.79 KCAL/MOL
REMARK 923 INTER-LIGAND FREE ENERGY PREDICTED BY IDOCK:   -6.62 KCAL/MOL
REMARK 924 INTRA-LIGAND FREE ENERGY PREDICTED BY IDOCK:   -0.17 KCAL/MOL
REMARK 927      BINDING AFFINITY PREDICTED BY RF-SCORE:    0.00 PKD
ROOT
HETATM    1  C   UNL     1     -10.474  14.752  67.964  1.00  0.00    -0.246 C  
HETATM    2  N   UNL     1     -11.153  14.488  69.218  1.00  0.00    -0.262 N  
HETATM    3  C   UNL     1     -11.591  13.228  69.550  1.00  0.00    -0.286 A  
HETATM    4  C   UNL     1     -12.212  12.979  70.739  1.00  0.00    -0.272 A  
HETATM    5  C   UNL     1     -12.448  13.984  71.720  1.00  0.00    -0.239 C  
HETATM    6  N   UNL     1     -12.487  11.639  70.720  1.00  0.00    -0.357 NA 
HETATM    7  O   UNL     1     -12.988  13.744  72.799  1.00  0.00    -0.389 OA 
HETATM    8  N   UNL     1     -12.007  15.248  71.320  1.00  0.00    -0.318 N  
HETATM    9  O   UNL     1     -10.977  16.689  69.841  1.00  0.00    -0.347 OA 
HETATM   10  C   UNL     1     -12.036  11.155  69.519  1.00  0.00    -0.355 A  
HETATM   11  N   UNL     1     -11.482  12.104  68.791  1.00  0.00    -0.281 NA 
HETATM   12  C   UNL     1     -12.208  16.365  72.222  1.00  0.00    -0.296 C  
HETATM   13  C   UNL     1     -11.354  15.542  70.105  1.00  0.00    -0.326 C  
ENDROOT
BRANCH   6  14
HETATM   14  C   UNL     1     -13.168  10.867  71.740  1.00  0.00    -0.408 C  
BRANCH  14  15
HETATM   15  C   UNL     1     -13.180   9.364  71.446  1.00  0.00    -0.344 C  
HETATM   16  H   UNL     1     -11.978   7.795  71.689  1.00  0.00     0.000 HD 
HETATM   17  O   UNL     1     -11.971   8.728  71.871  1.00  0.00    -0.317 OA 
BRANCH  15  18
HETATM   18  C   UNL     1     -14.374   8.696  72.147  1.00  0.00    -0.427 C  
HETATM   19  O   UNL     1     -14.336   8.874  73.561  1.00  0.00    -1.151 OA 
HETATM   20  H   UNL     1     -15.075   8.461  73.994  1.00  0.00     0.000 HD 
ENDBRANCH  15  18
ENDBRANCH  14  15
ENDBRANCH   6  14
TORSDOF 3
ENDMDL
MODEL       22
REMARK 921   NORMALIZED FREE ENERGY PREDICTED BY IDOCK:   -5.37 KCAL/MOL
REMARK 922        TOTAL FREE ENERGY PREDICTED BY IDOCK:   -6.78 KCAL/MOL
REMARK 923 INTER-LIGAND FREE ENERGY PREDICTED BY IDOCK:   -6.60 KCAL/MOL
REMARK 924 INTRA-LIGAND FREE ENERGY PREDICTED BY IDOCK:   -0.18 KCAL/MOL
REMARK 927      BINDING AFFINITY PREDICTED BY RF-SCORE:    0.00 PKD
ROOT
HETATM    1  C   UNL     1     -11.762  12.122  65.267  1.00  0.00    -0.308 C  
HETATM    2  N   UNL     1     -11.621  13.073  66.352  1.00  0.00    -0.345 N  
HETATM    3  C   UNL     1     -11.220  14.369  66.130  1.00  0.00    -0.336 A  
HETATM    4  C   UNL     1     -11.107  15.267  67.151  1.00  0.00    -0.323 A  
HETATM    5  C   UNL     1     -11.396  14.944  68.507  1.00  0.00    -0.298 C  
HETATM    6  N   UNL     1     -10.703  16.431  66.555  1.00  0.00    -0.224 NA 
HETATM    7  O   UNL     1     -11.314  15.767  69.417  1.00  0.00    -0.298 OA 
HETATM    8  N   UNL     1     -11.774  13.610  68.679  1.00  0.00    -0.332 N  
HETATM    9  O   UNL     1     -12.271  11.500  67.890  1.00  0.00    -0.586 OA 
HETATM   10  C   UNL     1     -10.577  16.171  65.214  1.00  0.00    -0.369 A  
HETATM   11  N   UNL     1     -10.890  14.923  64.931  1.00  0.00    -0.410 NA 
HETATM   12  C   UNL     1     -12.076  13.147  70.020  1.00  0.00    -0.305 C  
HETATM   13  C   UNL     1     -11.910  12.657  67.649  1.00  0.00    -0.329 C  
ENDROOT
BRANCH   6  14
HETATM   14  C   UNL     1     -10.411  17.693  67.202  1.00  0.00    -0.343 C  
BRANCH  14  15
HETATM   15  C   UNL     1      -9.927  18.770  66.225  1.00  0.00    -0.385 C  
HETATM   16  H   UNL     1     -10.714  20.200  65.086  1.00  0.00     0.000 HD 
HETATM   17  O   UNL     1     -11.013  19.532  65.692  1.00  0.00    -0.394 OA 
BRANCH  15  18
HETATM   18  C   UNL     1      -8.943  19.719  66.927  1.00  0.00    -0.339 C  
HETATM   19  O   UNL     1      -9.486  21.024  67.105  1.00  0.00    -0.676 OA 
HETATM   20  H   UNL     1      -8.877  21.611  67.539  1.00  0.00     0.000 HD 
ENDBRANCH  15  18
ENDBRANCH  14  15
ENDBRANCH   6  14
TORSDOF 3
ENDMDL
MODEL       23
REMARK 921   NORMALIZED FREE ENERGY PREDICTED BY IDOCK:   -5.35 KCAL/MOL
REMARK 922        TOTAL FREE ENERGY PREDICTED BY IDOCK:   -6.76 KCAL/MOL
REMARK 923 INTER-LIGAND FREE ENERGY PREDICTED BY IDOCK:   -6.53 KCAL/MOL
REMARK 924 INTRA-LIGAND FREE ENERGY PREDICTED BY IDOCK:   -0.23 KCAL/MOL
REMARK 927      BINDING AFFINITY PREDICTED BY RF-SCORE:    0.00 PKD
ROOT
HETATM    1  C   UNL     1     -10.280  16.836  65.369  1.00  0.00    -0.073 C  
HETATM    2  N   UNL     1     -10.723  15.827  66.311  1.00  0.00    -0.306 N  
HETATM    3  C   UNL     1     -10.742  16.061  67.665  1.00  0.00    -0.320 A  
HETATM    4  C   UNL     1     -11.178  15.116  68.547  1.00  0.00    -0.293 A  
HETATM    5  C   UNL     1     -11.648  13.833  68.145  1.00  0.00    -0.335 C  
HETATM    6  N   UNL     1     -11.063  15.702  69.778  1.00  0.00    -0.284 NA 
HETATM    7  O   UNL     1     -12.061  12.997  68.947  1.00  0.00    -0.286 OA 
HETATM    8  N   UNL     1     -11.583  13.640  66.763  1.00  0.00    -0.346 N  
HETATM    9  O   UNL     1     -11.144  14.345  64.611  1.00  0.00    -0.381 OA 
HETATM   10  C   UNL     1     -10.549  16.957  69.578  1.00  0.00    -0.239 A  
HETATM   11  N   UNL     1     -10.349  17.200  68.298  1.00  0.00    -0.333 NA 
HETATM   12  C   UNL     1     -12.015  12.365  66.225  1.00  0.00    -0.298 C  
HETATM   13  C   UNL     1     -11.148  14.594  65.821  1.00  0.00    -0.331 C  
ENDROOT
BRANCH   6  14
HETATM   14  C   UNL     1     -11.371  15.111  71.065  1.00  0.00    -0.316 C  
BRANCH  14  15
HETATM   15  C   UNL     1     -12.384  15.928  71.873  1.00  0.00    -0.471 C  
HETATM   16  H   UNL     1     -14.360  16.055  72.082  1.00  0.00     0.000 HD 
HETATM   17  O   UNL     1     -13.731  15.548  71.581  1.00  0.00    -0.478 OA 
BRANCH  15  18
HETATM   18  C   UNL     1     -12.126  15.753  73.378  1.00  0.00    -0.487 C  
HETATM   19  O   UNL     1     -13.212  16.229  74.169  1.00  0.00    -0.954 OA 
HETATM   20  H   UNL     1     -13.052  16.120  75.100  1.00  0.00     0.000 HD 
ENDBRANCH  15  18
ENDBRANCH  14  15
ENDBRANCH   6  14
TORSDOF 3
ENDMDL
MODEL       24
REMARK 921   NORMALIZED FREE ENERGY PREDICTED BY IDOCK:   -5.32 KCAL/MOL
REMARK 922        TOTAL FREE ENERGY PREDICTED BY IDOCK:   -6.73 KCAL/MOL
REMARK 923 INTER-LIGAND FREE ENERGY PREDICTED BY IDOCK:   -6.42 KCAL/MOL
REMARK 924 INTRA-LIGAND FREE ENERGY PREDICTED BY IDOCK:   -0.31 KCAL/MOL
REMARK 927      BINDING AFFINITY PREDICTED BY RF-SCORE:    0.00 PKD
ROOT
HETATM    1  C   UNL     1     -10.874   9.154  69.627  1.00  0.00    -0.197 C  
HETATM    2  N   UNL     1     -11.158  10.575  69.563  1.00  0.00    -0.249 N  
HETATM    3  C   UNL     1     -10.676  11.363  68.545  1.00  0.00    -0.201 A  
HETATM    4  C   UNL     1     -10.961  12.696  68.477  1.00  0.00    -0.261 A  
HETATM    5  C   UNL     1     -11.773  13.368  69.434  1.00  0.00    -0.325 C  
HETATM    6  N   UNL     1     -10.330  13.134  67.345  1.00  0.00    -0.237 NA 
HETATM    7  O   UNL     1     -12.043  14.565  69.351  1.00  0.00    -0.308 OA 
HETATM    8  N   UNL     1     -12.214  12.527  70.459  1.00  0.00    -0.352 N  
HETATM    9  O   UNL     1     -12.398  10.471  71.490  1.00  0.00    -0.371 OA 
HETATM   10  C   UNL     1      -9.686  12.053  66.801  1.00  0.00    -0.207 A  
HETATM   11  N   UNL     1      -9.885  10.962  67.513  1.00  0.00    -0.167 NA 
HETATM   12  C   UNL     1     -13.034  13.095  71.511  1.00  0.00    -0.321 C  
HETATM   13  C   UNL     1     -11.948  11.146  70.558  1.00  0.00    -0.380 C  
ENDROOT
BRANCH   6  14
HETATM   14  C   UNL     1     -10.295  14.487  66.828  1.00  0.00    -0.269 C  
BRANCH  14  15
HETATM   15  C   UNL     1     -11.139  14.668  65.562  1.00  0.00    -0.345 C  
HETATM   16  H   UNL     1     -13.013  14.350  64.972  1.00  0.00     0.000 HD 
HETATM   17  O   UNL     1     -12.489  14.238  65.757  1.00  0.00    -0.441 OA 
BRANCH  15  18
HETATM   18  C   UNL     1     -11.137  16.143  65.130  1.00  0.00    -0.249 C  
HETATM   19  O   UNL     1     -11.553  16.308  63.777  1.00  0.00    -1.539 OA 
HETATM   20  H   UNL     1     -11.552  17.220  63.510  1.00  0.00     0.000 HD 
ENDBRANCH  15  18
ENDBRANCH  14  15
ENDBRANCH   6  14
TORSDOF 3
ENDMDL
MODEL       25
REMARK 921   NORMALIZED FREE ENERGY PREDICTED BY IDOCK:   -5.32 KCAL/MOL
REMARK 922        TOTAL FREE ENERGY PREDICTED BY IDOCK:   -6.73 KCAL/MOL
REMARK 923 INTER-LIGAND FREE ENERGY PREDICTED BY IDOCK:   -6.13 KCAL/MOL
REMARK 924 INTRA-LIGAND FREE ENERGY PREDICTED BY IDOCK:   -0.60 KCAL/MOL
REMARK 927      BINDING AFFINITY PREDICTED BY RF-SCORE:    0.00 PKD
ROOT
HETATM    1  C   UNL     1     -10.167  17.486  66.580  1.00  0.00    -0.332 C  
HETATM    2  N   UNL     1     -10.757  16.164  66.484  1.00  0.00    -0.270 N  
HETATM    3  C   UNL     1     -10.945  15.375  67.594  1.00  0.00    -0.315 A  
HETATM    4  C   UNL     1     -11.518  14.140  67.502  1.00  0.00    -0.340 A  
HETATM    5  C   UNL     1     -11.966  13.578  66.273  1.00  0.00    -0.413 C  
HETATM    6  N   UNL     1     -11.548  13.668  68.786  1.00  0.00    -0.299 NA 
HETATM    7  O   UNL     1     -12.503  12.474  66.205  1.00  0.00    -0.522 OA 
HETATM    8  N   UNL     1     -11.727  14.411  65.177  1.00  0.00    -0.358 N  
HETATM    9  O   UNL     1     -10.992  16.374  64.212  1.00  0.00    -0.788 OA 
HETATM   10  C   UNL     1     -10.978  14.631  69.580  1.00  0.00    -0.245 A  
HETATM   11  N   UNL     1     -10.607  15.682  68.876  1.00  0.00    -0.218 NA 
HETATM   12  C   UNL     1     -12.119  13.946  63.860  1.00  0.00    -0.345 C  
HETATM   13  C   UNL     1     -11.147  15.694  65.233  1.00  0.00    -0.303 C  
ENDROOT
BRANCH   6  14
HETATM   14  C   UNL     1     -12.037  12.382  69.239  1.00  0.00    -0.165 C  
BRANCH  14  15
HETATM   15  C   UNL     1     -10.913  11.412  69.615  1.00  0.00    -0.110 C  
HETATM   16  H   UNL     1     -10.594   9.946  70.924  1.00  0.00     0.000 HD 
HETATM   17  O   UNL     1     -11.292  10.548  70.690  1.00  0.00    -0.322 OA 
BRANCH  15  18
HETATM   18  C   UNL     1     -10.519  10.559  68.399  1.00  0.00    -0.186 C  
HETATM   19  O   UNL     1     -11.655  10.025  67.725  1.00  0.00    -0.595 OA 
HETATM   20  H   UNL     1     -11.411   9.498  66.972  1.00  0.00     0.000 HD 
ENDBRANCH  15  18
ENDBRANCH  14  15
ENDBRANCH   6  14
TORSDOF 3
ENDMDL
MODEL       26
REMARK 921   NORMALIZED FREE ENERGY PREDICTED BY IDOCK:   -5.25 KCAL/MOL
REMARK 922        TOTAL FREE ENERGY PREDICTED BY IDOCK:   -6.65 KCAL/MOL
REMARK 923 INTER-LIGAND FREE ENERGY PREDICTED BY IDOCK:   -6.15 KCAL/MOL
REMARK 924 INTRA-LIGAND FREE ENERGY PREDICTED BY IDOCK:   -0.49 KCAL/MOL
REMARK 927      BINDING AFFINITY PREDICTED BY RF-SCORE:    0.00 PKD
ROOT
HETATM    1  C   UNL     1     -12.166  11.987  70.480  1.00  0.00    -0.325 C  
HETATM    2  N   UNL     1     -11.885  12.845  69.346  1.00  0.00    -0.316 N  
HETATM    3  C   UNL     1     -11.606  14.182  69.503  1.00  0.00    -0.295 A  
HETATM    4  C   UNL     1     -11.322  14.982  68.435  1.00  0.00    -0.309 A  
HETATM    5  C   UNL     1     -11.285  14.507  67.094  1.00  0.00    -0.333 C  
HETATM    6  N   UNL     1     -11.091  16.219  68.973  1.00  0.00    -0.325 NA 
HETATM    7  O   UNL     1     -11.005  15.232  66.141  1.00  0.00    -0.327 OA 
HETATM    8  N   UNL     1     -11.601  13.151  66.989  1.00  0.00    -0.339 N  
HETATM    9  O   UNL     1     -12.139  11.094  67.886  1.00  0.00    -0.627 OA 
HETATM   10  C   UNL     1     -11.264  16.105  70.329  1.00  0.00    -0.381 A  
HETATM   11  N   UNL     1     -11.574  14.872  70.676  1.00  0.00    -0.284 NA 
HETATM   12  C   UNL     1     -11.620  12.547  65.671  1.00  0.00    -0.389 C  
HETATM   13  C   UNL     1     -11.891  12.291  68.069  1.00  0.00    -0.305 C  
ENDROOT
BRANCH   6  14
HETATM   14  C   UNL     1     -10.773  17.441  68.262  1.00  0.00    -0.327 C  
BRANCH  14  15
HETATM   15  C   UNL     1      -9.266  17.688  68.140  1.00  0.00    -0.282 C  
HETATM   16  H   UNL     1      -7.579  16.632  68.195  1.00  0.00     0.000 HD 
HETATM   17  O   UNL     1      -8.514  16.479  68.270  1.00  0.00    -0.186 OA 
BRANCH  15  18
HETATM   18  C   UNL     1      -8.943  18.338  66.785  1.00  0.00    -0.284 C  
HETATM   19  O   UNL     1      -8.953  17.393  65.718  1.00  0.00    -0.521 OA 
HETATM   20  H   UNL     1      -8.754  17.795  64.881  1.00  0.00     0.000 HD 
ENDBRANCH  15  18
ENDBRANCH  14  15
ENDBRANCH   6  14
TORSDOF 3
ENDMDL
MODEL       27
REMARK 921   NORMALIZED FREE ENERGY PREDICTED BY IDOCK:   -5.25 KCAL/MOL
REMARK 922        TOTAL FREE ENERGY PREDICTED BY IDOCK:   -6.65 KCAL/MOL
REMARK 923 INTER-LIGAND FREE ENERGY PREDICTED BY IDOCK:   -6.39 KCAL/MOL
REMARK 924 INTRA-LIGAND FREE ENERGY PREDICTED BY IDOCK:   -0.26 KCAL/MOL
REMARK 927      BINDING AFFINITY PREDICTED BY RF-SCORE:    0.00 PKD
ROOT
HETATM    1  C   UNL     1     -11.008  13.643  67.084  1.00  0.00    -0.288 C  
HETATM    2  N   UNL     1     -11.544  13.386  68.407  1.00  0.00    -0.310 N  
HETATM    3  C   UNL     1     -11.470  12.142  68.987  1.00  0.00    -0.297 A  
HETATM    4  C   UNL     1     -11.958  11.909  70.240  1.00  0.00    -0.330 A  
HETATM    5  C   UNL     1     -12.566  12.917  71.039  1.00  0.00    -0.287 C  
HETATM    6  N   UNL     1     -11.701  10.586  70.478  1.00  0.00    -0.325 NA 
HETATM    7  O   UNL     1     -12.981  12.702  72.177  1.00  0.00    -0.328 OA 
HETATM    8  N   UNL     1     -12.638  14.154  70.392  1.00  0.00    -0.347 N  
HETATM    9  O   UNL     1     -12.225  15.567  68.615  1.00  0.00    -0.178 OA 
HETATM   10  C   UNL     1     -11.091  10.088  69.355  1.00  0.00    -0.223 A  
HETATM   11  N   UNL     1     -10.936  11.018  68.435  1.00  0.00    -0.210 NA 
HETATM   12  C   UNL     1     -13.255  15.263  71.092  1.00  0.00    -0.498 C  
HETATM   13  C   UNL     1     -12.138  14.435  69.104  1.00  0.00    -0.281 C  
ENDROOT
BRANCH   6  14
HETATM   14  C   UNL     1     -12.043   9.824  71.662  1.00  0.00    -0.394 C  
BRANCH  14  15
HETATM   15  C   UNL     1     -12.933   8.614  71.359  1.00  0.00    -0.254 C  
HETATM   16  H   UNL     1     -12.928   6.650  71.686  1.00  0.00     0.000 HD 
HETATM   17  O   UNL     1     -12.376   7.401  71.873  1.00  0.00    -0.305 OA 
BRANCH  15  18
HETATM   18  C   UNL     1     -14.332   8.821  71.961  1.00  0.00    -0.377 C  
HETATM   19  O   UNL     1     -14.327   8.720  73.383  1.00  0.00    -1.155 OA 
HETATM   20  H   UNL     1     -15.192   8.849  73.755  1.00  0.00     0.000 HD 
ENDBRANCH  15  18
ENDBRANCH  14  15
ENDBRANCH   6  14
TORSDOF 3
ENDMDL
MODEL       28
REMARK 921   NORMALIZED FREE ENERGY PREDICTED BY IDOCK:   -5.24 KCAL/MOL
REMARK 922        TOTAL FREE ENERGY PREDICTED BY IDOCK:   -6.63 KCAL/MOL
REMARK 923 INTER-LIGAND FREE ENERGY PREDICTED BY IDOCK:   -6.35 KCAL/MOL
REMARK 924 INTRA-LIGAND FREE ENERGY PREDICTED BY IDOCK:   -0.28 KCAL/MOL
REMARK 927      BINDING AFFINITY PREDICTED BY RF-SCORE:    0.00 PKD
ROOT
HETATM    1  C   UNL     1     -11.427  14.599  65.357  1.00  0.00    -0.352 C  
HETATM    2  N   UNL     1     -11.466  13.827  66.584  1.00  0.00    -0.331 N  
HETATM    3  C   UNL     1     -11.695  14.420  67.803  1.00  0.00    -0.376 A  
HETATM    4  C   UNL     1     -11.752  13.688  68.954  1.00  0.00    -0.338 A  
HETATM    5  C   UNL     1     -11.587  12.275  68.986  1.00  0.00    -0.316 C  
HETATM    6  N   UNL     1     -12.002  14.602  69.941  1.00  0.00    -0.309 NA 
HETATM    7  O   UNL     1     -11.663  11.622  70.026  1.00  0.00    -0.318 OA 
HETATM    8  N   UNL     1     -11.332  11.728  67.726  1.00  0.00    -0.267 N  
HETATM    9  O   UNL     1     -11.065  11.880  65.439  1.00  0.00    -0.306 OA 
HETATM   10  C   UNL     1     -12.067  15.833  69.340  1.00  0.00    -0.227 A  
HETATM   11  N   UNL     1     -11.886  15.747  68.038  1.00  0.00    -0.104 NA 
HETATM   12  C   UNL     1     -11.124  10.297  67.625  1.00  0.00    -0.251 C  
HETATM   13  C   UNL     1     -11.275  12.450  66.516  1.00  0.00    -0.319 C  
ENDROOT
BRANCH   6  14
HETATM   14  C   UNL     1     -12.130  14.347  71.361  1.00  0.00    -0.326 C  
BRANCH  14  15
HETATM   15  C   UNL     1     -13.586  14.329  71.839  1.00  0.00    -0.413 C  
HETATM   16  H   UNL     1     -14.773  13.166  72.934  1.00  0.00     0.000 HD 
HETATM   17  O   UNL     1     -13.871  13.177  72.638  1.00  0.00    -0.691 OA 
BRANCH  15  18
HETATM   18  C   UNL     1     -13.891  15.596  72.655  1.00  0.00    -0.564 C  
HETATM   19  O   UNL     1     -13.417  15.500  73.996  1.00  0.00    -0.543 OA 
HETATM   20  H   UNL     1     -13.606  16.283  74.500  1.00  0.00     0.000 HD 
ENDBRANCH  15  18
ENDBRANCH  14  15
ENDBRANCH   6  14
TORSDOF 3
ENDMDL
MODEL       29
REMARK 921   NORMALIZED FREE ENERGY PREDICTED BY IDOCK:   -5.17 KCAL/MOL
REMARK 922        TOTAL FREE ENERGY PREDICTED BY IDOCK:   -6.55 KCAL/MOL
REMARK 923 INTER-LIGAND FREE ENERGY PREDICTED BY IDOCK:   -6.31 KCAL/MOL
REMARK 924 INTRA-LIGAND FREE ENERGY PREDICTED BY IDOCK:   -0.24 KCAL/MOL
REMARK 927      BINDING AFFINITY PREDICTED BY RF-SCORE:    0.00 PKD
ROOT
HETATM    1  C   UNL     1     -10.691  17.056  67.409  1.00  0.00    -0.240 C  
HETATM    2  N   UNL     1     -11.019  15.669  67.142  1.00  0.00    -0.304 N  
HETATM    3  C   UNL     1     -11.333  14.793  68.154  1.00  0.00    -0.307 A  
HETATM    4  C   UNL     1     -11.660  13.494  67.898  1.00  0.00    -0.342 A  
HETATM    5  C   UNL     1     -11.710  12.948  66.584  1.00  0.00    -0.390 C  
HETATM    6  N   UNL     1     -11.915  12.945  69.125  1.00  0.00    -0.287 NA 
HETATM    7  O   UNL     1     -12.030  11.781  66.362  1.00  0.00    -0.515 OA 
HETATM    8  N   UNL     1     -11.358  13.872  65.598  1.00  0.00    -0.305 N  
HETATM    9  O   UNL     1     -10.745  15.979  64.886  1.00  0.00    -0.576 OA 
HETATM   10  C   UNL     1     -11.712  13.933  70.055  1.00  0.00    -0.268 A  
HETATM   11  N   UNL     1     -11.360  15.069  69.487  1.00  0.00    -0.270 NA 
HETATM   12  C   UNL     1     -11.349  13.435  64.215  1.00  0.00    -0.389 C  
HETATM   13  C   UNL     1     -11.023  15.223  65.823  1.00  0.00    -0.338 C  
ENDROOT
BRANCH   6  14
HETATM   14  C   UNL     1     -12.282  11.574  69.416  1.00  0.00    -0.207 C  
BRANCH  14  15
HETATM   15  C   UNL     1     -12.049  11.188  70.880  1.00  0.00    -0.322 C  
HETATM   16  H   UNL     1     -13.125  10.922  72.533  1.00  0.00     0.000 HD 
HETATM   17  O   UNL     1     -13.270  11.160  71.625  1.00  0.00    -0.418 OA 
BRANCH  15  18
HETATM   18  C   UNL     1     -11.376   9.809  70.964  1.00  0.00    -0.387 C  
HETATM   19  O   UNL     1     -11.467   9.090  69.737  1.00  0.00    -0.446 OA 
HETATM   20  H   UNL     1     -11.050   8.238  69.789  1.00  0.00     0.000 HD 
ENDBRANCH  15  18
ENDBRANCH  14  15
ENDBRANCH   6  14
TORSDOF 3
ENDMDL
MODEL       30
REMARK 921   NORMALIZED FREE ENERGY PREDICTED BY IDOCK:   -5.13 KCAL/MOL
REMARK 922        TOTAL FREE ENERGY PREDICTED BY IDOCK:   -6.51 KCAL/MOL
REMARK 923 INTER-LIGAND FREE ENERGY PREDICTED BY IDOCK:   -5.84 KCAL/MOL
REMARK 924 INTRA-LIGAND FREE ENERGY PREDICTED BY IDOCK:   -0.66 KCAL/MOL
REMARK 927      BINDING AFFINITY PREDICTED BY RF-SCORE:    0.00 PKD
ROOT
HETATM    1  C   UNL     1     -13.268  15.517  70.968  1.00  0.00    -0.474 C  
HETATM    2  N   UNL     1     -12.578  14.423  70.312  1.00  0.00    -0.348 N  
HETATM    3  C   UNL     1     -12.659  13.134  70.780  1.00  0.00    -0.260 A  
HETATM    4  C   UNL     1     -12.024  12.104  70.150  1.00  0.00    -0.314 A  
HETATM    5  C   UNL     1     -11.244  12.275  68.971  1.00  0.00    -0.265 C  
HETATM    6  N   UNL     1     -12.339  10.993  70.883  1.00  0.00    -0.381 NA 
HETATM    7  O   UNL     1     -10.695  11.336  68.397  1.00  0.00    -0.182 OA 
HETATM    8  N   UNL     1     -11.174  13.606  68.555  1.00  0.00    -0.264 N  
HETATM    9  O   UNL     1     -11.723  15.841  68.724  1.00  0.00    -0.382 OA 
HETATM   10  C   UNL     1     -13.129  11.410  71.924  1.00  0.00    -0.400 A  
HETATM   11  N   UNL     1     -13.341  12.710  71.880  1.00  0.00    -0.451 NA 
HETATM   12  C   UNL     1     -10.390  13.919  67.375  1.00  0.00    -0.252 C  
HETATM   13  C   UNL     1     -11.822  14.694  69.174  1.00  0.00    -0.312 C  
ENDROOT
BRANCH   6  14
HETATM   14  C   UNL     1     -11.894   9.633  70.654  1.00  0.00    -0.256 C  
BRANCH  14  15
HETATM   15  C   UNL     1     -11.047   9.077  71.803  1.00  0.00    -0.374 C  
HETATM   16  H   UNL     1     -10.977   7.444  72.939  1.00  0.00     0.000 HD 
HETATM   17  O   UNL     1     -11.502   7.789  72.226  1.00  0.00    -0.289 OA 
BRANCH  15  18
HETATM   18  C   UNL     1      -9.574   8.976  71.375  1.00  0.00    -0.285 C  
HETATM   19  O   UNL     1      -9.225   9.965  70.410  1.00  0.00    -0.356 OA 
HETATM   20  H   UNL     1      -8.314   9.902  70.146  1.00  0.00     0.000 HD 
ENDBRANCH  15  18
ENDBRANCH  14  15
ENDBRANCH   6  14
TORSDOF 3
ENDMDL
MODEL       31
REMARK 921   NORMALIZED FREE ENERGY PREDICTED BY IDOCK:   -5.09 KCAL/MOL
REMARK 922        TOTAL FREE ENERGY PREDICTED BY IDOCK:   -6.46 KCAL/MOL
REMARK 923 INTER-LIGAND FREE ENERGY PREDICTED BY IDOCK:   -6.20 KCAL/MOL
REMARK 924 INTRA-LIGAND FREE ENERGY PREDICTED BY IDOCK:   -0.26 KCAL/MOL
REMARK 927      BINDING AFFINITY PREDICTED BY RF-SCORE:    0.00 PKD
ROOT
HETATM    1  C   UNL     1     -11.904  13.518  67.418  1.00  0.00    -0.384 C  
HETATM    2  N   UNL     1     -11.533  12.176  67.826  1.00  0.00    -0.309 N  
HETATM    3  C   UNL     1     -11.806  11.703  69.088  1.00  0.00    -0.326 A  
HETATM    4  C   UNL     1     -11.473  10.434  69.462  1.00  0.00    -0.246 A  
HETATM    5  C   UNL     1     -10.833   9.508  68.591  1.00  0.00    -0.139 C  
HETATM    6  N   UNL     1     -11.903  10.323  70.756  1.00  0.00    -0.336 NA 
HETATM    7  O   UNL     1     -10.559   8.358  68.930  1.00  0.00    -0.212 OA 
HETATM    8  N   UNL     1     -10.557  10.048  67.332  1.00  0.00    -0.261 N  
HETATM    9  O   UNL     1     -10.628  11.739  65.764  1.00  0.00    -0.251 OA 
HETATM   10  C   UNL     1     -12.454  11.532  71.100  1.00  0.00    -0.337 A  
HETATM   11  N   UNL     1     -12.410  12.387  70.098  1.00  0.00    -0.193 NA 
HETATM   12  C   UNL     1      -9.886   9.212  66.356  1.00  0.00    -0.280 C  
HETATM   13  C   UNL     1     -10.892  11.350  66.907  1.00  0.00    -0.285 C  
ENDROOT
BRANCH   6  14
HETATM   14  C   UNL     1     -11.768   9.177  71.631  1.00  0.00    -0.378 C  
BRANCH  14  15
HETATM   15  C   UNL     1     -12.807   8.085  71.354  1.00  0.00    -0.269 C  
HETATM   16  H   UNL     1     -13.006   6.123  71.627  1.00  0.00     0.000 HD 
HETATM   17  O   UNL     1     -12.362   6.801  71.799  1.00  0.00    -0.341 OA 
BRANCH  15  18
HETATM   18  C   UNL     1     -14.134   8.427  72.050  1.00  0.00    -0.421 C  
HETATM   19  O   UNL     1     -13.940   8.874  73.390  1.00  0.00    -1.236 OA 
HETATM   20  H   UNL     1     -14.761   9.086  73.819  1.00  0.00     0.000 HD 
ENDBRANCH  15  18
ENDBRANCH  14  15
ENDBRANCH   6  14
TORSDOF 3
ENDMDL
MODEL       32
REMARK 921   NORMALIZED FREE ENERGY PREDICTED BY IDOCK:   -5.09 KCAL/MOL
REMARK 922        TOTAL FREE ENERGY PREDICTED BY IDOCK:   -6.45 KCAL/MOL
REMARK 923 INTER-LIGAND FREE ENERGY PREDICTED BY IDOCK:   -6.19 KCAL/MOL
REMARK 924 INTRA-LIGAND FREE ENERGY PREDICTED BY IDOCK:   -0.26 KCAL/MOL
REMARK 927      BINDING AFFINITY PREDICTED BY RF-SCORE:    0.00 PKD
ROOT
HETATM    1  C   UNL     1      -8.789  12.708  67.161  1.00  0.00    -0.204 C  
HETATM    2  N   UNL     1      -9.396  13.867  66.535  1.00  0.00    -0.271 N  
HETATM    3  C   UNL     1      -8.927  15.139  66.762  1.00  0.00    -0.264 A  
HETATM    4  C   UNL     1      -9.488  16.225  66.156  1.00  0.00    -0.339 A  
HETATM    5  C   UNL     1     -10.581  16.133  65.249  1.00  0.00    -0.369 C  
HETATM    6  N   UNL     1      -8.763  17.295  66.608  1.00  0.00    -0.244 NA 
HETATM    7  O   UNL     1     -11.064  17.116  64.690  1.00  0.00    -1.036 OA 
HETATM    8  N   UNL     1     -11.034  14.823  65.075  1.00  0.00    -0.389 N  
HETATM    9  O   UNL     1     -10.927  12.548  65.448  1.00  0.00    -0.280 OA 
HETATM   10  C   UNL     1      -7.819  16.802  67.472  1.00  0.00    -0.168 A  
HETATM   11  N   UNL     1      -7.897  15.491  67.579  1.00  0.00    -0.152 NA 
HETATM   12  C   UNL     1     -12.159  14.594  64.189  1.00  0.00    -0.320 C  
HETATM   13  C   UNL     1     -10.475  13.676  65.676  1.00  0.00    -0.299 C  
ENDROOT
BRANCH   6  14
HETATM   14  C   UNL     1      -8.968  18.693  66.287  1.00  0.00    -0.219 C  
BRANCH  14  15
HETATM   15  C   UNL     1      -8.821  19.614  67.503  1.00  0.00    -0.311 C  
HETATM   16  H   UNL     1      -8.058  21.403  67.924  1.00  0.00     0.000 HD 
HETATM   17  O   UNL     1      -8.149  20.832  67.171  1.00  0.00    -0.303 OA 
BRANCH  15  18
HETATM   18  C   UNL     1     -10.204  19.945  68.086  1.00  0.00    -0.432 C  
HETATM   19  O   UNL     1     -10.317  19.563  69.455  1.00  0.00    -0.589 OA 
HETATM   20  H   UNL     1     -11.172  19.768  69.815  1.00  0.00     0.000 HD 
ENDBRANCH  15  18
ENDBRANCH  14  15
ENDBRANCH   6  14
TORSDOF 3
ENDMDL
MODEL       33
REMARK 921   NORMALIZED FREE ENERGY PREDICTED BY IDOCK:   -5.08 KCAL/MOL
REMARK 922        TOTAL FREE ENERGY PREDICTED BY IDOCK:   -6.44 KCAL/MOL
REMARK 923 INTER-LIGAND FREE ENERGY PREDICTED BY IDOCK:   -5.83 KCAL/MOL
REMARK 924 INTRA-LIGAND FREE ENERGY PREDICTED BY IDOCK:   -0.61 KCAL/MOL
REMARK 927      BINDING AFFINITY PREDICTED BY RF-SCORE:    0.00 PKD
ROOT
HETATM    1  C   UNL     1     -11.439  16.195  68.674  1.00  0.00    -0.340 C  
HETATM    2  N   UNL     1     -11.475  14.772  68.397  1.00  0.00    -0.300 N  
HETATM    3  C   UNL     1     -11.856  13.860  69.351  1.00  0.00    -0.334 A  
HETATM    4  C   UNL     1     -11.908  12.523  69.081  1.00  0.00    -0.296 A  
HETATM    5  C   UNL     1     -11.583  11.973  67.808  1.00  0.00    -0.330 C  
HETATM    6  N   UNL     1     -12.332  11.943  70.245  1.00  0.00    -0.247 NA 
HETATM    7  O   UNL     1     -11.656  10.769  67.568  1.00  0.00    -0.510 OA 
HETATM    8  N   UNL     1     -11.178  12.941  66.885  1.00  0.00    -0.279 N  
HETATM    9  O   UNL     1     -10.770  15.118  66.241  1.00  0.00    -0.307 OA 
HETATM   10  C   UNL     1     -12.496  12.953  71.159  1.00  0.00    -0.249 A  
HETATM   11  N   UNL     1     -12.216  14.130  70.636  1.00  0.00    -0.339 NA 
HETATM   12  C   UNL     1     -10.800  12.508  65.554  1.00  0.00    -0.278 C  
HETATM   13  C   UNL     1     -11.121  14.329  67.125  1.00  0.00    -0.311 C  
ENDROOT
BRANCH   6  14
HETATM   14  C   UNL     1     -12.529  10.531  70.503  1.00  0.00    -0.347 C  
BRANCH  14  15
HETATM   15  C   UNL     1     -11.422   9.920  71.369  1.00  0.00    -0.321 C  
HETATM   16  H   UNL     1     -11.231   8.488  72.738  1.00  0.00     0.000 HD 
HETATM   17  O   UNL     1     -11.917   8.867  72.200  1.00  0.00    -0.357 OA 
BRANCH  15  18
HETATM   18  C   UNL     1     -10.295   9.373  70.480  1.00  0.00    -0.281 C  
HETATM   19  O   UNL     1      -9.497  10.413  69.920  1.00  0.00    -0.411 OA 
HETATM   20  H   UNL     1      -8.800  10.075  69.370  1.00  0.00     0.000 HD 
ENDBRANCH  15  18
ENDBRANCH  14  15
ENDBRANCH   6  14
TORSDOF 3
ENDMDL
MODEL       34
REMARK 921   NORMALIZED FREE ENERGY PREDICTED BY IDOCK:   -5.07 KCAL/MOL
REMARK 922        TOTAL FREE ENERGY PREDICTED BY IDOCK:   -6.43 KCAL/MOL
REMARK 923 INTER-LIGAND FREE ENERGY PREDICTED BY IDOCK:   -6.35 KCAL/MOL
REMARK 924 INTRA-LIGAND FREE ENERGY PREDICTED BY IDOCK:   -0.08 KCAL/MOL
REMARK 927      BINDING AFFINITY PREDICTED BY RF-SCORE:    0.00 PKD
ROOT
HETATM    1  C   UNL     1     -12.522  11.606  71.064  1.00  0.00    -0.334 C  
HETATM    2  N   UNL     1     -11.914  11.335  69.776  1.00  0.00    -0.336 N  
HETATM    3  C   UNL     1     -11.757  12.320  68.830  1.00  0.00    -0.328 A  
HETATM    4  C   UNL     1     -11.166  12.067  67.627  1.00  0.00    -0.282 A  
HETATM    5  C   UNL     1     -10.668  10.785  67.258  1.00  0.00    -0.274 C  
HETATM    6  N   UNL     1     -11.176  13.266  66.969  1.00  0.00    -0.283 NA 
HETATM    7  O   UNL     1     -10.117  10.572  66.180  1.00  0.00    -0.228 OA 
HETATM    8  N   UNL     1     -10.877   9.817  68.244  1.00  0.00    -0.233 N  
HETATM    9  O   UNL     1     -11.601   9.130  70.325  1.00  0.00    -0.210 OA 
HETATM   10  C   UNL     1     -11.785  14.173  67.798  1.00  0.00    -0.373 A  
HETATM   11  N   UNL     1     -12.143  13.621  68.940  1.00  0.00    -0.342 NA 
HETATM   12  C   UNL     1     -10.434   8.461  67.984  1.00  0.00    -0.184 C  
HETATM   13  C   UNL     1     -11.474  10.043  69.501  1.00  0.00    -0.120 C  
ENDROOT
BRANCH   6  14
HETATM   14  C   UNL     1     -10.689  13.539  65.632  1.00  0.00    -0.281 C  
BRANCH  14  15
HETATM   15  C   UNL     1     -11.814  13.730  64.610  1.00  0.00    -0.402 C  
HETATM   16  H   UNL     1     -13.586  12.926  64.187  1.00  0.00     0.000 HD 
HETATM   17  O   UNL     1     -12.888  12.808  64.821  1.00  0.00    -0.707 OA 
BRANCH  15  18
HETATM   18  C   UNL     1     -12.360  15.164  64.685  1.00  0.00    -0.149 C  
HETATM   19  O   UNL     1     -11.822  15.999  63.662  1.00  0.00    -1.280 OA 
HETATM   20  H   UNL     1     -12.159  16.886  63.709  1.00  0.00     0.000 HD 
ENDBRANCH  15  18
ENDBRANCH  14  15
ENDBRANCH   6  14
TORSDOF 3
ENDMDL
MODEL       35
REMARK 921   NORMALIZED FREE ENERGY PREDICTED BY IDOCK:   -5.07 KCAL/MOL
REMARK 922        TOTAL FREE ENERGY PREDICTED BY IDOCK:   -6.43 KCAL/MOL
REMARK 923 INTER-LIGAND FREE ENERGY PREDICTED BY IDOCK:   -6.20 KCAL/MOL
REMARK 924 INTRA-LIGAND FREE ENERGY PREDICTED BY IDOCK:   -0.22 KCAL/MOL
REMARK 927      BINDING AFFINITY PREDICTED BY RF-SCORE:    0.00 PKD
ROOT
HETATM    1  C   UNL     1     -11.820  16.059  70.320  1.00  0.00    -0.254 C  
HETATM    2  N   UNL     1     -11.824  14.735  69.729  1.00  0.00    -0.298 N  
HETATM    3  C   UNL     1     -12.254  13.633  70.428  1.00  0.00    -0.363 A  
HETATM    4  C   UNL     1     -12.274  12.392  69.862  1.00  0.00    -0.157 A  
HETATM    5  C   UNL     1     -11.865  12.140  68.522  1.00  0.00    -0.310 C  
HETATM    6  N   UNL     1     -12.763  11.566  70.838  1.00  0.00    -0.313 NA 
HETATM    7  O   UNL     1     -11.909  11.021  68.013  1.00  0.00    -0.593 OA 
HETATM    8  N   UNL     1     -11.414  13.289  67.867  1.00  0.00    -0.287 N  
HETATM    9  O   UNL     1     -10.991  15.554  67.755  1.00  0.00    -0.301 OA 
HETATM   10  C   UNL     1     -12.994  12.346  71.942  1.00  0.00    -0.302 A  
HETATM   11  N   UNL     1     -12.695  13.609  71.716  1.00  0.00    -0.300 NA 
HETATM   12  C   UNL     1     -10.949  13.165  66.499  1.00  0.00    -0.286 C  
HETATM   13  C   UNL     1     -11.387  14.588  68.415  1.00  0.00    -0.289 C  
ENDROOT
BRANCH   6  14
HETATM   14  C   UNL     1     -12.960  10.133  70.759  1.00  0.00    -0.305 C  
BRANCH  14  15
HETATM   15  C   UNL     1     -12.900   9.444  72.126  1.00  0.00    -0.401 C  
HETATM   16  H   UNL     1     -14.106   8.391  73.310  1.00  0.00     0.000 HD 
HETATM   17  O   UNL     1     -14.142   8.818  72.462  1.00  0.00    -0.440 OA 
BRANCH  15  18
HETATM   18  C   UNL     1     -11.784   8.387  72.139  1.00  0.00    -0.375 C  
HETATM   19  O   UNL     1     -11.808   7.593  73.322  1.00  0.00    -0.631 OA 
HETATM   20  H   UNL     1     -11.118   6.939  73.329  1.00  0.00     0.000 HD 
ENDBRANCH  15  18
ENDBRANCH  14  15
ENDBRANCH   6  14
TORSDOF 3
ENDMDL
MODEL       36
REMARK 921   NORMALIZED FREE ENERGY PREDICTED BY IDOCK:   -5.03 KCAL/MOL
REMARK 922        TOTAL FREE ENERGY PREDICTED BY IDOCK:   -6.39 KCAL/MOL
REMARK 923 INTER-LIGAND FREE ENERGY PREDICTED BY IDOCK:   -5.96 KCAL/MOL
REMARK 924 INTRA-LIGAND FREE ENERGY PREDICTED BY IDOCK:   -0.43 KCAL/MOL
REMARK 927      BINDING AFFINITY PREDICTED BY RF-SCORE:    0.00 PKD
ROOT
HETATM    1  C   UNL     1      -6.328  17.253  69.469  1.00  0.00    -0.235 C  
HETATM    2  N   UNL     1      -7.372  17.400  68.472  1.00  0.00    -0.227 N  
HETATM    3  C   UNL     1      -8.354  16.451  68.309  1.00  0.00    -0.189 A  
HETATM    4  C   UNL     1      -9.345  16.602  67.384  1.00  0.00    -0.222 A  
HETATM    5  C   UNL     1      -9.448  17.736  66.530  1.00  0.00    -0.290 C  
HETATM    6  N   UNL     1     -10.126  15.487  67.519  1.00  0.00    -0.239 NA 
HETATM    7  O   UNL     1     -10.359  17.874  65.716  1.00  0.00    -0.577 OA 
HETATM    8  N   UNL     1      -8.412  18.654  66.720  1.00  0.00    -0.277 N  
HETATM    9  O   UNL     1      -6.510  19.411  67.785  1.00  0.00    -0.216 OA 
HETATM   10  C   UNL     1      -9.558  14.716  68.502  1.00  0.00    -0.221 A  
HETATM   11  N   UNL     1      -8.479  15.285  69.001  1.00  0.00    -0.205 NA 
HETATM   12  C   UNL     1      -8.389  19.847  65.896  1.00  0.00    -0.187 C  
HETATM   13  C   UNL     1      -7.377  18.538  67.670  1.00  0.00    -0.216 C  
ENDROOT
BRANCH   6  14
HETATM   14  C   UNL     1     -11.304  15.140  66.749  1.00  0.00    -0.248 C  
BRANCH  14  15
HETATM   15  C   UNL     1     -10.972  14.633  65.342  1.00  0.00    -0.353 C  
HETATM   16  H   UNL     1     -10.507  12.911  64.458  1.00  0.00     0.000 HD 
HETATM   17  O   UNL     1     -10.713  13.226  65.330  1.00  0.00    -0.285 OA 
BRANCH  15  18
HETATM   18  C   UNL     1     -12.131  14.940  64.381  1.00  0.00    -0.401 C  
HETATM   19  O   UNL     1     -11.893  16.114  63.608  1.00  0.00    -1.370 OA 
HETATM   20  H   UNL     1     -12.609  16.303  63.014  1.00  0.00     0.000 HD 
ENDBRANCH  15  18
ENDBRANCH  14  15
ENDBRANCH   6  14
TORSDOF 3
ENDMDL
MODEL       37
REMARK 921   NORMALIZED FREE ENERGY PREDICTED BY IDOCK:   -5.01 KCAL/MOL
REMARK 922        TOTAL FREE ENERGY PREDICTED BY IDOCK:   -6.36 KCAL/MOL
REMARK 923 INTER-LIGAND FREE ENERGY PREDICTED BY IDOCK:   -5.79 KCAL/MOL
REMARK 924 INTRA-LIGAND FREE ENERGY PREDICTED BY IDOCK:   -0.57 KCAL/MOL
REMARK 927      BINDING AFFINITY PREDICTED BY RF-SCORE:    0.00 PKD
ROOT
HETATM    1  C   UNL     1     -13.015  10.571  71.920  1.00  0.00    -0.447 C  
HETATM    2  N   UNL     1     -12.721  11.802  71.212  1.00  0.00    -0.368 N  
HETATM    3  C   UNL     1     -12.006  11.807  70.038  1.00  0.00    -0.344 A  
HETATM    4  C   UNL     1     -11.748  12.965  69.365  1.00  0.00    -0.321 A  
HETATM    5  C   UNL     1     -12.195  14.241  69.810  1.00  0.00    -0.339 C  
HETATM    6  N   UNL     1     -11.038  12.581  68.260  1.00  0.00    -0.240 NA 
HETATM    7  O   UNL     1     -11.977  15.277  69.184  1.00  0.00    -0.315 OA 
HETATM    8  N   UNL     1     -12.893  14.181  71.019  1.00  0.00    -0.343 N  
HETATM    9  O   UNL     1     -13.831  13.041  72.793  1.00  0.00    -0.593 OA 
HETATM   10  C   UNL     1     -10.890  11.219  68.333  1.00  0.00    -0.205 A  
HETATM   11  N   UNL     1     -11.475  10.725  69.406  1.00  0.00    -0.271 NA 
HETATM   12  C   UNL     1     -13.385  15.418  71.593  1.00  0.00    -0.490 C  
HETATM   13  C   UNL     1     -13.186  13.004  71.738  1.00  0.00    -0.392 C  
ENDROOT
BRANCH   6  14
HETATM   14  C   UNL     1     -10.494  13.435  67.225  1.00  0.00    -0.248 C  
BRANCH  14  15
HETATM   15  C   UNL     1      -9.160  14.078  67.618  1.00  0.00    -0.192 C  
HETATM   16  H   UNL     1      -7.215  13.726  67.378  1.00  0.00     0.000 HD 
HETATM   17  O   UNL     1      -8.043  13.327  67.134  1.00  0.00    -0.164 OA 
BRANCH  15  18
HETATM   18  C   UNL     1      -9.080  15.511  67.068  1.00  0.00    -0.230 C  
HETATM   19  O   UNL     1     -10.367  16.110  66.938  1.00  0.00    -0.287 OA 
HETATM   20  H   UNL     1     -10.317  16.996  66.598  1.00  0.00     0.000 HD 
ENDBRANCH  15  18
ENDBRANCH  14  15
ENDBRANCH   6  14
TORSDOF 3
ENDMDL
MODEL       38
REMARK 921   NORMALIZED FREE ENERGY PREDICTED BY IDOCK:   -5.00 KCAL/MOL
REMARK 922        TOTAL FREE ENERGY PREDICTED BY IDOCK:   -6.35 KCAL/MOL
REMARK 923 INTER-LIGAND FREE ENERGY PREDICTED BY IDOCK:   -6.27 KCAL/MOL
REMARK 924 INTRA-LIGAND FREE ENERGY PREDICTED BY IDOCK:   -0.08 KCAL/MOL
REMARK 927      BINDING AFFINITY PREDICTED BY RF-SCORE:    0.00 PKD
ROOT
HETATM    1  C   UNL     1     -13.744  13.364  72.257  1.00  0.00    -0.607 C  
HETATM    2  N   UNL     1     -12.900  12.690  71.289  1.00  0.00    -0.319 N  
HETATM    3  C   UNL     1     -12.294  13.372  70.261  1.00  0.00    -0.284 A  
HETATM    4  C   UNL     1     -11.485  12.739  69.363  1.00  0.00    -0.257 A  
HETATM    5  C   UNL     1     -11.200  11.345  69.420  1.00  0.00    -0.268 C  
HETATM    6  N   UNL     1     -11.064  13.723  68.511  1.00  0.00    -0.255 NA 
HETATM    7  O   UNL     1     -10.451  10.788  68.619  1.00  0.00    -0.173 OA 
HETATM    8  N   UNL     1     -11.861  10.698  70.466  1.00  0.00    -0.329 N  
HETATM    9  O   UNL     1     -13.225  10.671  72.327  1.00  0.00    -0.400 OA 
HETATM   10  C   UNL     1     -11.653  14.891  68.926  1.00  0.00    -0.315 A  
HETATM   11  N   UNL     1     -12.403  14.702  69.993  1.00  0.00    -0.325 NA 
HETATM   12  C   UNL     1     -11.672   9.269  70.622  1.00  0.00    -0.222 C  
HETATM   13  C   UNL     1     -12.696  11.319  71.417  1.00  0.00    -0.396 C  
ENDROOT
BRANCH   6  14
HETATM   14  C   UNL     1     -10.203  13.576  67.356  1.00  0.00    -0.237 C  
BRANCH  14  15
HETATM   15  C   UNL     1     -10.938  13.038  66.124  1.00  0.00    -0.280 C  
HETATM   16  H   UNL     1     -12.809  12.653  65.564  1.00  0.00     0.000 HD 
HETATM   17  O   UNL     1     -12.353  12.987  66.327  1.00  0.00    -0.429 OA 
BRANCH  15  18
HETATM   18  C   UNL     1     -10.636  13.917  64.900  1.00  0.00    -0.419 C  
HETATM   19  O   UNL     1      -9.922  13.208  63.891  1.00  0.00    -0.760 OA 
HETATM   20  H   UNL     1      -9.736  13.751  63.134  1.00  0.00     0.000 HD 
ENDBRANCH  15  18
ENDBRANCH  14  15
ENDBRANCH   6  14
TORSDOF 3
ENDMDL
MODEL       39
REMARK 921   NORMALIZED FREE ENERGY PREDICTED BY IDOCK:   -5.00 KCAL/MOL
REMARK 922        TOTAL FREE ENERGY PREDICTED BY IDOCK:   -6.34 KCAL/MOL
REMARK 923 INTER-LIGAND FREE ENERGY PREDICTED BY IDOCK:   -6.10 KCAL/MOL
REMARK 924 INTRA-LIGAND FREE ENERGY PREDICTED BY IDOCK:   -0.25 KCAL/MOL
REMARK 927      BINDING AFFINITY PREDICTED BY RF-SCORE:    0.00 PKD
ROOT
HETATM    1  C   UNL     1     -12.252  11.143  70.146  1.00  0.00    -0.337 C  
HETATM    2  N   UNL     1     -11.177  11.668  69.325  1.00  0.00    -0.259 N  
HETATM    3  C   UNL     1     -11.177  12.969  68.881  1.00  0.00    -0.278 A  
HETATM    4  C   UNL     1     -10.155  13.465  68.125  1.00  0.00    -0.244 A  
HETATM    5  C   UNL     1      -9.020  12.692  67.747  1.00  0.00    -0.189 C  
HETATM    6  N   UNL     1     -10.493  14.769  67.887  1.00  0.00    -0.244 NA 
HETATM    7  O   UNL     1      -8.093  13.156  67.086  1.00  0.00    -0.168 OA 
HETATM    8  N   UNL     1      -9.084  11.374  68.203  1.00  0.00    -0.167 N  
HETATM    9  O   UNL     1     -10.083   9.652  69.371  1.00  0.00    -0.181 OA 
HETATM   10  C   UNL     1     -11.704  14.986  68.492  1.00  0.00    -0.320 A  
HETATM   11  N   UNL     1     -12.139  13.904  69.108  1.00  0.00    -0.356 NA 
HETATM   12  C   UNL     1      -7.997  10.475  67.868  1.00  0.00    -0.106 C  
HETATM   13  C   UNL     1     -10.118  10.828  68.992  1.00  0.00    -0.211 C  
ENDROOT
BRANCH   6  14
HETATM   14  C   UNL     1      -9.754  15.739  67.105  1.00  0.00    -0.223 C  
BRANCH  14  15
HETATM   15  C   UNL     1     -10.641  16.538  66.145  1.00  0.00    -0.236 C  
HETATM   16  H   UNL     1     -10.602  18.288  65.198  1.00  0.00     0.000 HD 
HETATM   17  O   UNL     1     -10.052  17.792  65.793  1.00  0.00    -0.555 OA 
BRANCH  15  18
HETATM   18  C   UNL     1     -10.903  15.727  64.866  1.00  0.00    -0.413 C  
HETATM   19  O   UNL     1     -11.513  16.512  63.846  1.00  0.00    -1.608 OA 
HETATM   20  H   UNL     1     -11.675  16.011  63.055  1.00  0.00     0.000 HD 
ENDBRANCH  15  18
ENDBRANCH  14  15
ENDBRANCH   6  14
TORSDOF 3
ENDMDL
MODEL       40
REMARK 921   NORMALIZED FREE ENERGY PREDICTED BY IDOCK:   -4.98 KCAL/MOL
REMARK 922        TOTAL FREE ENERGY PREDICTED BY IDOCK:   -6.32 KCAL/MOL
REMARK 923 INTER-LIGAND FREE ENERGY PREDICTED BY IDOCK:   -6.02 KCAL/MOL
REMARK 924 INTRA-LIGAND FREE ENERGY PREDICTED BY IDOCK:   -0.30 KCAL/MOL
REMARK 927      BINDING AFFINITY PREDICTED BY RF-SCORE:    0.00 PKD
ROOT
HETATM    1  C   UNL     1      -9.837  10.500  65.541  1.00  0.00    -0.265 C  
HETATM    2  N   UNL     1     -10.424  10.978  66.778  1.00  0.00    -0.241 N  
HETATM    3  C   UNL     1     -10.465  10.197  67.908  1.00  0.00    -0.222 A  
HETATM    4  C   UNL     1     -11.000  10.657  69.076  1.00  0.00    -0.248 A  
HETATM    5  C   UNL     1     -11.545  11.964  69.220  1.00  0.00    -0.315 C  
HETATM    6  N   UNL     1     -10.856   9.624  69.961  1.00  0.00    -0.248 NA 
HETATM    7  O   UNL     1     -12.004  12.378  70.284  1.00  0.00    -0.349 OA 
HETATM    8  N   UNL     1     -11.501  12.705  68.037  1.00  0.00    -0.295 N  
HETATM    9  O   UNL     1     -10.933  13.000  65.820  1.00  0.00    -0.275 OA 
HETATM   10  C   UNL     1     -10.260   8.593  69.281  1.00  0.00    -0.211 A  
HETATM   11  N   UNL     1     -10.009   8.920  68.029  1.00  0.00    -0.169 NA 
HETATM   12  C   UNL     1     -12.045  14.049  68.045  1.00  0.00    -0.277 C  
HETATM   13  C   UNL     1     -10.949  12.267  66.815  1.00  0.00    -0.276 C  
ENDROOT
BRANCH   6  14
HETATM   14  C   UNL     1     -11.287   9.586  71.344  1.00  0.00    -0.392 C  
BRANCH  14  15
HETATM   15  C   UNL     1     -12.535   8.722  71.559  1.00  0.00    -0.326 C  
HETATM   16  H   UNL     1     -13.040   7.064  72.538  1.00  0.00     0.000 HD 
HETATM   17  O   UNL     1     -12.266   7.600  72.404  1.00  0.00    -0.258 OA 
BRANCH  15  18
HETATM   18  C   UNL     1     -13.660   9.563  72.181  1.00  0.00    -0.424 C  
HETATM   19  O   UNL     1     -14.129   9.012  73.409  1.00  0.00    -1.231 OA 
HETATM   20  H   UNL     1     -14.825   9.532  73.794  1.00  0.00     0.000 HD 
ENDBRANCH  15  18
ENDBRANCH  14  15
ENDBRANCH   6  14
TORSDOF 3
ENDMDL
MODEL       41
REMARK 921   NORMALIZED FREE ENERGY PREDICTED BY IDOCK:   -4.95 KCAL/MOL
REMARK 922        TOTAL FREE ENERGY PREDICTED BY IDOCK:   -6.30 KCAL/MOL
REMARK 923 INTER-LIGAND FREE ENERGY PREDICTED BY IDOCK:   -6.13 KCAL/MOL
REMARK 924 INTRA-LIGAND FREE ENERGY PREDICTED BY IDOCK:   -0.17 KCAL/MOL
REMARK 927      BINDING AFFINITY PREDICTED BY RF-SCORE:    0.00 PKD
ROOT
HETATM    1  C   UNL     1      -9.858  10.313  64.545  1.00  0.00    -0.315 C  
HETATM    2  N   UNL     1     -10.489  11.119  65.572  1.00  0.00    -0.266 N  
HETATM    3  C   UNL     1     -10.692  10.639  66.844  1.00  0.00    -0.237 A  
HETATM    4  C   UNL     1     -11.269  11.406  67.814  1.00  0.00    -0.283 A  
HETATM    5  C   UNL     1     -11.695  12.747  67.595  1.00  0.00    -0.367 C  
HETATM    6  N   UNL     1     -11.293  10.610  68.926  1.00  0.00    -0.265 NA 
HETATM    7  O   UNL     1     -12.193  13.438  68.482  1.00  0.00    -0.295 OA 
HETATM    8  N   UNL     1     -11.490  13.175  66.281  1.00  0.00    -0.320 N  
HETATM    9  O   UNL     1     -10.727  12.881  64.123  1.00  0.00    -0.376 OA 
HETATM   10  C   UNL     1     -10.749   9.403  68.567  1.00  0.00    -0.161 A  
HETATM   11  N   UNL     1     -10.372   9.398  67.304  1.00  0.00    -0.245 NA 
HETATM   12  C   UNL     1     -11.901  14.517  65.921  1.00  0.00    -0.331 C  
HETATM   13  C   UNL     1     -10.890  12.415  65.255  1.00  0.00    -0.289 C  
ENDROOT
BRANCH   6  14
HETATM   14  C   UNL     1     -11.832  10.939  70.230  1.00  0.00    -0.361 C  
BRANCH  14  15
HETATM   15  C   UNL     1     -12.095   9.705  71.099  1.00  0.00    -0.362 C  
HETATM   16  H   UNL     1     -11.150   8.644  72.493  1.00  0.00     0.000 HD 
HETATM   17  O   UNL     1     -10.987   9.409  71.954  1.00  0.00    -0.325 OA 
BRANCH  15  18
HETATM   18  C   UNL     1     -13.351   9.920  71.958  1.00  0.00    -0.432 C  
HETATM   19  O   UNL     1     -13.466   8.951  72.997  1.00  0.00    -0.897 OA 
HETATM   20  H   UNL     1     -14.242   9.085  73.528  1.00  0.00     0.000 HD 
ENDBRANCH  15  18
ENDBRANCH  14  15
ENDBRANCH   6  14
TORSDOF 3
ENDMDL
MODEL       42
REMARK 921   NORMALIZED FREE ENERGY PREDICTED BY IDOCK:   -4.94 KCAL/MOL
REMARK 922        TOTAL FREE ENERGY PREDICTED BY IDOCK:   -6.28 KCAL/MOL
REMARK 923 INTER-LIGAND FREE ENERGY PREDICTED BY IDOCK:   -6.11 KCAL/MOL
REMARK 924 INTRA-LIGAND FREE ENERGY PREDICTED BY IDOCK:   -0.17 KCAL/MOL
REMARK 927      BINDING AFFINITY PREDICTED BY RF-SCORE:    0.00 PKD
ROOT
HETATM    1  C   UNL     1     -11.454  10.587  69.476  1.00  0.00    -0.272 C  
HETATM    2  N   UNL     1     -11.797  11.970  69.745  1.00  0.00    -0.328 N  
HETATM    3  C   UNL     1     -11.374  12.991  68.927  1.00  0.00    -0.287 A  
HETATM    4  C   UNL     1     -11.714  14.289  69.173  1.00  0.00    -0.320 A  
HETATM    5  C   UNL     1     -12.526  14.687  70.272  1.00  0.00    -0.346 C  
HETATM    6  N   UNL     1     -11.133  15.004  68.161  1.00  0.00    -0.279 NA 
HETATM    7  O   UNL     1     -12.847  15.858  70.471  1.00  0.00    -0.422 OA 
HETATM    8  N   UNL     1     -12.906  13.615  71.083  1.00  0.00    -0.337 N  
HETATM    9  O   UNL     1     -12.979  11.371  71.618  1.00  0.00    -0.448 OA 
HETATM   10  C   UNL     1     -10.460  14.106  67.372  1.00  0.00    -0.271 A  
HETATM   11  N   UNL     1     -10.596  12.873  67.817  1.00  0.00    -0.219 NA 
HETATM   12  C   UNL     1     -13.720  13.889  72.252  1.00  0.00    -0.562 C  
HETATM   13  C   UNL     1     -12.582  12.261  70.858  1.00  0.00    -0.241 C  
ENDROOT
BRANCH   6  14
HETATM   14  C   UNL     1     -11.165  16.439  67.968  1.00  0.00    -0.235 C  
BRANCH  14  15
HETATM   15  C   UNL     1     -10.106  17.179  68.791  1.00  0.00    -0.329 C  
HETATM   16  H   UNL     1      -8.158  17.035  69.174  1.00  0.00     0.000 HD 
HETATM   17  O   UNL     1      -8.815  16.577  68.664  1.00  0.00    -0.218 OA 
BRANCH  15  18
HETATM   18  C   UNL     1     -10.022  18.648  68.348  1.00  0.00    -0.387 C  
HETATM   19  O   UNL     1     -10.261  19.550  69.426  1.00  0.00    -0.610 OA 
HETATM   20  H   UNL     1     -10.209  20.459  69.152  1.00  0.00     0.000 HD 
ENDBRANCH  15  18
ENDBRANCH  14  15
ENDBRANCH   6  14
TORSDOF 3
ENDMDL
MODEL       43
REMARK 921   NORMALIZED FREE ENERGY PREDICTED BY IDOCK:   -4.93 KCAL/MOL
REMARK 922        TOTAL FREE ENERGY PREDICTED BY IDOCK:   -6.27 KCAL/MOL
REMARK 923 INTER-LIGAND FREE ENERGY PREDICTED BY IDOCK:   -6.06 KCAL/MOL
REMARK 924 INTRA-LIGAND FREE ENERGY PREDICTED BY IDOCK:   -0.21 KCAL/MOL
REMARK 927      BINDING AFFINITY PREDICTED BY RF-SCORE:    0.00 PKD
ROOT
HETATM    1  C   UNL     1      -8.995  11.531  66.499  1.00  0.00    -0.189 C  
HETATM    2  N   UNL     1      -9.790  12.595  65.916  1.00  0.00    -0.261 N  
HETATM    3  C   UNL     1      -9.684  13.896  66.347  1.00  0.00    -0.297 A  
HETATM    4  C   UNL     1     -10.418  14.897  65.783  1.00  0.00    -0.330 A  
HETATM    5  C   UNL     1     -11.336  14.684  64.715  1.00  0.00    -0.396 C  
HETATM    6  N   UNL     1     -10.043  16.030  66.452  1.00  0.00    -0.284 NA 
HETATM    7  O   UNL     1     -11.976  15.597  64.198  1.00  0.00    -0.530 OA 
HETATM    8  N   UNL     1     -11.423  13.343  64.334  1.00  0.00    -0.369 N  
HETATM    9  O   UNL     1     -10.800  11.125  64.473  1.00  0.00    -0.326 OA 
HETATM   10  C   UNL     1      -9.119  15.653  67.392  1.00  0.00    -0.194 A  
HETATM   11  N   UNL     1      -8.881  14.357  67.345  1.00  0.00    -0.192 NA 
HETATM   12  C   UNL     1     -12.340  12.987  63.268  1.00  0.00    -0.306 C  
HETATM   13  C   UNL     1     -10.675  12.283  64.887  1.00  0.00    -0.297 C  
ENDROOT
BRANCH   6  14
HETATM   14  C   UNL     1     -10.548  17.374  66.256  1.00  0.00    -0.194 C  
BRANCH  14  15
HETATM   15  C   UNL     1      -9.616  18.453  66.816  1.00  0.00    -0.307 C  
HETATM   16  H   UNL     1      -8.108  19.588  66.181  1.00  0.00     0.000 HD 
HETATM   17  O   UNL     1      -8.687  18.919  65.834  1.00  0.00    -0.464 OA 
BRANCH  15  18
HETATM   18  C   UNL     1     -10.436  19.643  67.339  1.00  0.00    -0.467 C  
HETATM   19  O   UNL     1      -9.774  20.887  67.129  1.00  0.00    -0.654 OA 
HETATM   20  H   UNL     1     -10.281  21.623  67.452  1.00  0.00     0.000 HD 
ENDBRANCH  15  18
ENDBRANCH  14  15
ENDBRANCH   6  14
TORSDOF 3
ENDMDL
MODEL       44
REMARK 921   NORMALIZED FREE ENERGY PREDICTED BY IDOCK:   -4.91 KCAL/MOL
REMARK 922        TOTAL FREE ENERGY PREDICTED BY IDOCK:   -6.25 KCAL/MOL
REMARK 923 INTER-LIGAND FREE ENERGY PREDICTED BY IDOCK:   -5.86 KCAL/MOL
REMARK 924 INTRA-LIGAND FREE ENERGY PREDICTED BY IDOCK:   -0.39 KCAL/MOL
REMARK 927      BINDING AFFINITY PREDICTED BY RF-SCORE:    0.00 PKD
ROOT
HETATM    1  C   UNL     1     -10.444  15.075  68.930  1.00  0.00    -0.241 C  
HETATM    2  N   UNL     1     -11.362  14.444  69.859  1.00  0.00    -0.247 N  
HETATM    3  C   UNL     1     -11.672  13.108  69.773  1.00  0.00    -0.280 A  
HETATM    4  C   UNL     1     -12.521  12.513  70.660  1.00  0.00    -0.238 A  
HETATM    5  C   UNL     1     -13.141  13.213  71.733  1.00  0.00    -0.383 C  
HETATM    6  N   UNL     1     -12.577  11.203  70.271  1.00  0.00    -0.247 NA 
HETATM    7  O   UNL     1     -13.886  12.663  72.542  1.00  0.00    -0.435 OA 
HETATM    8  N   UNL     1     -12.812  14.571  71.759  1.00  0.00    -0.327 N  
HETATM    9  O   UNL     1     -11.680  16.423  70.975  1.00  0.00    -0.345 OA 
HETATM   10  C   UNL     1     -11.777  11.079  69.164  1.00  0.00    -0.333 A  
HETATM   11  N   UNL     1     -11.212  12.225  68.844  1.00  0.00    -0.256 NA 
HETATM   12  C   UNL     1     -13.394  15.402  72.794  1.00  0.00    -0.518 C  
HETATM   13  C   UNL     1     -11.933  15.218  70.866  1.00  0.00    -0.342 C  
ENDROOT
BRANCH   6  14
HETATM   14  C   UNL     1     -13.363  10.142  70.868  1.00  0.00    -0.207 C  
BRANCH  14  15
HETATM   15  C   UNL     1     -12.679   9.497  72.078  1.00  0.00    -0.396 C  
HETATM   16  H   UNL     1     -13.205   8.601  73.776  1.00  0.00     0.000 HD 
HETATM   17  O   UNL     1     -13.629   9.001  73.026  1.00  0.00    -0.293 OA 
BRANCH  15  18
HETATM   18  C   UNL     1     -11.773   8.343  71.622  1.00  0.00    -0.298 C  
HETATM   19  O   UNL     1     -12.027   7.960  70.272  1.00  0.00    -0.478 OA 
HETATM   20  H   UNL     1     -11.466   7.247  69.990  1.00  0.00     0.000 HD 
ENDBRANCH  15  18
ENDBRANCH  14  15
ENDBRANCH   6  14
TORSDOF 3
ENDMDL
MODEL       45
REMARK 921   NORMALIZED FREE ENERGY PREDICTED BY IDOCK:   -4.91 KCAL/MOL
REMARK 922        TOTAL FREE ENERGY PREDICTED BY IDOCK:   -6.24 KCAL/MOL
REMARK 923 INTER-LIGAND FREE ENERGY PREDICTED BY IDOCK:   -6.03 KCAL/MOL
REMARK 924 INTRA-LIGAND FREE ENERGY PREDICTED BY IDOCK:   -0.20 KCAL/MOL
REMARK 927      BINDING AFFINITY PREDICTED BY RF-SCORE:    0.00 PKD
ROOT
HETATM    1  C   UNL     1     -12.318  12.585  63.525  1.00  0.00    -0.525 C  
HETATM    2  N   UNL     1     -11.344  13.068  64.484  1.00  0.00    -0.324 N  
HETATM    3  C   UNL     1     -11.151  14.411  64.704  1.00  0.00    -0.354 A  
HETATM    4  C   UNL     1     -10.247  14.862  65.621  1.00  0.00    -0.358 A  
HETATM    5  C   UNL     1      -9.448  13.994  66.419  1.00  0.00    -0.259 C  
HETATM    6  N   UNL     1     -10.341  16.226  65.569  1.00  0.00    -0.509 NA 
HETATM    7  O   UNL     1      -8.654  14.411  67.260  1.00  0.00    -0.192 OA 
HETATM    8  N   UNL     1      -9.666  12.644  66.137  1.00  0.00    -0.259 N  
HETATM    9  O   UNL     1     -10.739  10.924  65.034  1.00  0.00    -0.249 OA 
HETATM   10  C   UNL     1     -11.279  16.526  64.614  1.00  0.00    -0.115 A  
HETATM   11  N   UNL     1     -11.789  15.437  64.075  1.00  0.00    -0.398 NA 
HETATM   12  C   UNL     1      -8.898  11.655  66.868  1.00  0.00    -0.190 C  
HETATM   13  C   UNL     1     -10.596  12.140  65.204  1.00  0.00    -0.286 C  
ENDROOT
BRANCH   6  14
HETATM   14  C   UNL     1      -9.572  17.189  66.329  1.00  0.00    -0.252 C  
BRANCH  14  15
HETATM   15  C   UNL     1     -10.180  18.596  66.305  1.00  0.00    -0.427 C  
HETATM   16  H   UNL     1     -11.534  19.644  67.320  1.00  0.00     0.000 HD 
HETATM   17  O   UNL     1     -11.157  18.772  67.335  1.00  0.00    -0.332 OA 
BRANCH  15  18
HETATM   18  C   UNL     1      -9.077  19.653  66.470  1.00  0.00    -0.373 C  
HETATM   19  O   UNL     1      -9.608  20.964  66.642  1.00  0.00    -0.635 OA 
HETATM   20  H   UNL     1      -8.926  21.617  66.744  1.00  0.00     0.000 HD 
ENDBRANCH  15  18
ENDBRANCH  14  15
ENDBRANCH   6  14
TORSDOF 3
ENDMDL
MODEL       46
REMARK 921   NORMALIZED FREE ENERGY PREDICTED BY IDOCK:   -4.91 KCAL/MOL
REMARK 922        TOTAL FREE ENERGY PREDICTED BY IDOCK:   -6.24 KCAL/MOL
REMARK 923 INTER-LIGAND FREE ENERGY PREDICTED BY IDOCK:   -5.55 KCAL/MOL
REMARK 924 INTRA-LIGAND FREE ENERGY PREDICTED BY IDOCK:   -0.69 KCAL/MOL
REMARK 927      BINDING AFFINITY PREDICTED BY RF-SCORE:    0.00 PKD
ROOT
HETATM    1  C   UNL     1     -13.683   9.036  72.639  1.00  0.00    -0.359 C  
HETATM    2  N   UNL     1     -12.756   9.375  71.576  1.00  0.00    -0.340 N  
HETATM    3  C   UNL     1     -12.591  10.671  71.148  1.00  0.00    -0.423 A  
HETATM    4  C   UNL     1     -11.703  10.989  70.162  1.00  0.00    -0.356 A  
HETATM    5  C   UNL     1     -10.885  10.024  69.509  1.00  0.00    -0.253 C  
HETATM    6  N   UNL     1     -11.807  12.346  70.018  1.00  0.00    -0.320 NA 
HETATM    7  O   UNL     1     -10.072  10.324  68.637  1.00  0.00    -0.161 OA 
HETATM    8  N   UNL     1     -11.112   8.723  69.964  1.00  0.00    -0.208 N  
HETATM    9  O   UNL     1     -12.135   7.179  71.342  1.00  0.00    -0.304 OA 
HETATM   10  C   UNL     1     -12.759  12.772  70.909  1.00  0.00    -0.192 A  
HETATM   11  N   UNL     1     -13.248  11.769  71.612  1.00  0.00    -0.363 NA 
HETATM   12  C   UNL     1     -10.355   7.641  69.365  1.00  0.00    -0.214 C  
HETATM   13  C   UNL     1     -12.012   8.357  70.986  1.00  0.00    -0.231 C  
ENDROOT
BRANCH   6  14
HETATM   14  C   UNL     1     -11.094  13.187  69.078  1.00  0.00    -0.234 C  
BRANCH  14  15
HETATM   15  C   UNL     1     -12.026  14.023  68.195  1.00  0.00    -0.347 C  
HETATM   16  H   UNL     1     -12.108  15.870  67.458  1.00  0.00     0.000 HD 
HETATM   17  O   UNL     1     -11.530  15.351  68.005  1.00  0.00    -0.338 OA 
BRANCH  15  18
HETATM   18  C   UNL     1     -12.202  13.350  66.825  1.00  0.00    -0.312 C  
HETATM   19  O   UNL     1     -12.064  11.933  66.899  1.00  0.00    -0.599 OA 
HETATM   20  H   UNL     1     -12.173  11.517  66.051  1.00  0.00     0.000 HD 
ENDBRANCH  15  18
ENDBRANCH  14  15
ENDBRANCH   6  14
TORSDOF 3
ENDMDL
MODEL       47
REMARK 921   NORMALIZED FREE ENERGY PREDICTED BY IDOCK:   -4.86 KCAL/MOL
REMARK 922        TOTAL FREE ENERGY PREDICTED BY IDOCK:   -6.19 KCAL/MOL
REMARK 923 INTER-LIGAND FREE ENERGY PREDICTED BY IDOCK:   -5.84 KCAL/MOL
REMARK 924 INTRA-LIGAND FREE ENERGY PREDICTED BY IDOCK:   -0.35 KCAL/MOL
REMARK 927      BINDING AFFINITY PREDICTED BY RF-SCORE:    0.00 PKD
ROOT
HETATM    1  C   UNL     1     -10.763   9.363  67.641  1.00  0.00    -0.230 C  
HETATM    2  N   UNL     1     -11.085  10.773  67.528  1.00  0.00    -0.308 N  
HETATM    3  C   UNL     1     -11.492  11.511  68.614  1.00  0.00    -0.293 A  
HETATM    4  C   UNL     1     -11.775  12.841  68.508  1.00  0.00    -0.333 A  
HETATM    5  C   UNL     1     -11.668  13.565  67.287  1.00  0.00    -0.383 C  
HETATM    6  N   UNL     1     -12.128  13.229  69.772  1.00  0.00    -0.312 NA 
HETATM    7  O   UNL     1     -11.903  14.770  67.207  1.00  0.00    -0.378 OA 
HETATM    8  N   UNL     1     -11.276  12.763  66.212  1.00  0.00    -0.288 N  
HETATM    9  O   UNL     1     -10.606  10.759  65.284  1.00  0.00    -0.249 OA 
HETATM   10  C   UNL     1     -12.057  12.114  70.567  1.00  0.00    -0.293 A  
HETATM   11  N   UNL     1     -11.668  11.055  69.885  1.00  0.00    -0.314 NA 
HETATM   12  C   UNL     1     -11.149  13.376  64.905  1.00  0.00    -0.335 C  
HETATM   13  C   UNL     1     -10.967  11.389  66.285  1.00  0.00    -0.247 C  
ENDROOT
BRANCH   6  14
HETATM   14  C   UNL     1     -12.548  14.547  70.201  1.00  0.00    -0.288 C  
BRANCH  14  15
HETATM   15  C   UNL     1     -11.476  15.284  71.011  1.00  0.00    -0.356 C  
HETATM   16  H   UNL     1     -10.215  16.805  70.764  1.00  0.00     0.000 HD 
HETATM   17  O   UNL     1     -10.880  16.348  70.263  1.00  0.00    -0.309 OA 
BRANCH  15  18
HETATM   18  C   UNL     1     -12.086  15.856  72.300  1.00  0.00    -0.503 C  
HETATM   19  O   UNL     1     -12.651  14.839  73.125  1.00  0.00    -0.418 OA 
HETATM   20  H   UNL     1     -13.027  15.193  73.923  1.00  0.00     0.000 HD 
ENDBRANCH  15  18
ENDBRANCH  14  15
ENDBRANCH   6  14
TORSDOF 3
ENDMDL
MODEL       48
REMARK 921   NORMALIZED FREE ENERGY PREDICTED BY IDOCK:   -4.84 KCAL/MOL
REMARK 922        TOTAL FREE ENERGY PREDICTED BY IDOCK:   -6.16 KCAL/MOL
REMARK 923 INTER-LIGAND FREE ENERGY PREDICTED BY IDOCK:   -5.93 KCAL/MOL
REMARK 924 INTRA-LIGAND FREE ENERGY PREDICTED BY IDOCK:   -0.23 KCAL/MOL
REMARK 927      BINDING AFFINITY PREDICTED BY RF-SCORE:    0.00 PKD
ROOT
HETATM    1  C   UNL     1      -8.463  10.468  65.371  1.00  0.00    -0.170 C  
HETATM    2  N   UNL     1      -9.658  11.289  65.415  1.00  0.00    -0.223 N  
HETATM    3  C   UNL     1      -9.966  12.059  66.511  1.00  0.00    -0.204 A  
HETATM    4  C   UNL     1     -11.081  12.845  66.541  1.00  0.00    -0.286 A  
HETATM    5  C   UNL     1     -11.999  12.937  65.456  1.00  0.00    -0.436 C  
HETATM    6  N   UNL     1     -11.048  13.459  67.763  1.00  0.00    -0.260 NA 
HETATM    7  O   UNL     1     -12.988  13.666  65.484  1.00  0.00    -0.625 OA 
HETATM    8  N   UNL     1     -11.652  12.116  64.380  1.00  0.00    -0.345 N  
HETATM    9  O   UNL     1     -10.264  10.617  63.306  1.00  0.00    -0.274 OA 
HETATM   10  C   UNL     1      -9.930  13.000  68.411  1.00  0.00    -0.216 A  
HETATM   11  N   UNL     1      -9.253  12.149  67.667  1.00  0.00    -0.175 NA 
HETATM   12  C   UNL     1     -12.518  12.101  63.217  1.00  0.00    -0.411 C  
HETATM   13  C   UNL     1     -10.505  11.298  64.309  1.00  0.00    -0.357 C  
ENDROOT
BRANCH   6  14
HETATM   14  C   UNL     1     -12.022  14.381  68.310  1.00  0.00    -0.288 C  
BRANCH  14  15
HETATM   15  C   UNL     1     -11.384  15.535  69.089  1.00  0.00    -0.328 C  
HETATM   16  H   UNL     1     -10.954  17.458  68.806  1.00  0.00     0.000 HD 
HETATM   17  O   UNL     1     -11.350  16.743  68.323  1.00  0.00    -0.274 OA 
BRANCH  15  18
HETATM   18  C   UNL     1     -12.158  15.787  70.392  1.00  0.00    -0.370 C  
HETATM   19  O   UNL     1     -13.471  15.232  70.355  1.00  0.00    -0.684 OA 
HETATM   20  H   UNL     1     -13.949  15.388  71.161  1.00  0.00     0.000 HD 
ENDBRANCH  15  18
ENDBRANCH  14  15
ENDBRANCH   6  14
TORSDOF 3
ENDMDL
MODEL       49
REMARK 921   NORMALIZED FREE ENERGY PREDICTED BY IDOCK:   -4.80 KCAL/MOL
REMARK 922        TOTAL FREE ENERGY PREDICTED BY IDOCK:   -6.11 KCAL/MOL
REMARK 923 INTER-LIGAND FREE ENERGY PREDICTED BY IDOCK:   -5.81 KCAL/MOL
REMARK 924 INTRA-LIGAND FREE ENERGY PREDICTED BY IDOCK:   -0.30 KCAL/MOL
REMARK 927      BINDING AFFINITY PREDICTED BY RF-SCORE:    0.00 PKD
ROOT
HETATM    1  C   UNL     1     -11.056   7.537  70.742  1.00  0.00    -0.265 C  
HETATM    2  N   UNL     1     -11.272   8.940  70.442  1.00  0.00    -0.249 N  
HETATM    3  C   UNL     1     -10.726   9.533  69.329  1.00  0.00    -0.222 A  
HETATM    4  C   UNL     1     -10.948  10.848  69.040  1.00  0.00    -0.235 A  
HETATM    5  C   UNL     1     -11.754  11.698  69.848  1.00  0.00    -0.337 C  
HETATM    6  N   UNL     1     -10.266  11.073  67.875  1.00  0.00    -0.178 NA 
HETATM    7  O   UNL     1     -11.967  12.876  69.565  1.00  0.00    -0.312 OA 
HETATM    8  N   UNL     1     -12.262  11.052  70.977  1.00  0.00    -0.361 N  
HETATM    9  O   UNL     1     -12.570   9.198  72.317  1.00  0.00    -0.376 OA 
HETATM   10  C   UNL     1      -9.656   9.892  67.533  1.00  0.00    -0.157 A  
HETATM   11  N   UNL     1      -9.925   8.939  68.402  1.00  0.00    -0.172 NA 
HETATM   12  C   UNL     1     -13.085  11.814  71.896  1.00  0.00    -0.376 C  
HETATM   13  C   UNL     1     -12.063   9.695  71.305  1.00  0.00    -0.371 C  
ENDROOT
BRANCH   6  14
HETATM   14  C   UNL     1     -10.153  12.322  67.150  1.00  0.00    -0.208 C  
BRANCH  14  15
HETATM   15  C   UNL     1     -10.913  12.313  65.819  1.00  0.00    -0.301 C  
HETATM   16  H   UNL     1     -12.794  12.450  65.184  1.00  0.00     0.000 HD 
HETATM   17  O   UNL     1     -12.323  12.456  66.009  1.00  0.00    -0.627 OA 
BRANCH  15  18
HETATM   18  C   UNL     1     -10.409  13.449  64.915  1.00  0.00    -0.366 C  
HETATM   19  O   UNL     1     -10.066  12.987  63.610  1.00  0.00    -0.699 OA 
HETATM   20  H   UNL     1      -9.754  13.689  63.051  1.00  0.00     0.000 HD 
ENDBRANCH  15  18
ENDBRANCH  14  15
ENDBRANCH   6  14
TORSDOF 3
ENDMDL
MODEL       50
REMARK 921   NORMALIZED FREE ENERGY PREDICTED BY IDOCK:   -4.73 KCAL/MOL
REMARK 922        TOTAL FREE ENERGY PREDICTED BY IDOCK:   -6.04 KCAL/MOL
REMARK 923 INTER-LIGAND FREE ENERGY PREDICTED BY IDOCK:   -5.66 KCAL/MOL
REMARK 924 INTRA-LIGAND FREE ENERGY PREDICTED BY IDOCK:   -0.38 KCAL/MOL
REMARK 927      BINDING AFFINITY PREDICTED BY RF-SCORE:    0.00 PKD
ROOT
HETATM    1  C   UNL     1     -12.234  13.504  66.078  1.00  0.00    -0.445 C  
HETATM    2  N   UNL     1     -11.434  12.318  65.837  1.00  0.00    -0.361 N  
HETATM    3  C   UNL     1     -11.279  11.345  66.796  1.00  0.00    -0.252 A  
HETATM    4  C   UNL     1     -10.542  10.221  66.559  1.00  0.00    -0.132 A  
HETATM    5  C   UNL     1      -9.890   9.964  65.320  1.00  0.00    -0.303 C  
HETATM    6  N   UNL     1     -10.624   9.496  67.716  1.00  0.00    -0.258 NA 
HETATM    7  O   UNL     1      -9.248   8.937  65.109  1.00  0.00    -0.162 OA 
HETATM    8  N   UNL     1     -10.059  10.995  64.393  1.00  0.00    -0.306 N  
HETATM    9  O   UNL     1     -10.934  13.019  63.711  1.00  0.00    -0.392 OA 
HETATM   10  C   UNL     1     -11.387  10.224  68.593  1.00  0.00    -0.166 A  
HETATM   11  N   UNL     1     -11.801  11.353  68.053  1.00  0.00    -0.622 NA 
HETATM   12  C   UNL     1      -9.427  10.865  63.095  1.00  0.00    -0.341 C  
HETATM   13  C   UNL     1     -10.819  12.165  64.598  1.00  0.00    -0.306 C  
ENDROOT
BRANCH   6  14
HETATM   14  C   UNL     1      -9.992   8.223  68.002  1.00  0.00    -0.185 C  
BRANCH  14  15
HETATM   15  C   UNL     1     -10.869   7.022  67.631  1.00  0.00    -0.242 C  
HETATM   16  H   UNL     1     -10.806   5.468  66.390  1.00  0.00     0.000 HD 
HETATM   17  O   UNL     1     -10.263   6.212  66.620  1.00  0.00    -0.189 OA 
BRANCH  15  18
HETATM   18  C   UNL     1     -11.138   6.159  68.874  1.00  0.00    -0.345 C  
HETATM   19  O   UNL     1     -11.968   6.825  69.822  1.00  0.00    -0.654 OA 
HETATM   20  H   UNL     1     -12.135   6.291  70.591  1.00  0.00     0.000 HD 
ENDBRANCH  15  18
ENDBRANCH  14  15
ENDBRANCH   6  14
TORSDOF 3
ENDMDL
MODEL       51
REMARK 921   NORMALIZED FREE ENERGY PREDICTED BY IDOCK:   -4.72 KCAL/MOL
REMARK 922        TOTAL FREE ENERGY PREDICTED BY IDOCK:   -6.02 KCAL/MOL
REMARK 923 INTER-LIGAND FREE ENERGY PREDICTED BY IDOCK:   -5.32 KCAL/MOL
REMARK 924 INTRA-LIGAND FREE ENERGY PREDICTED BY IDOCK:   -0.70 KCAL/MOL
REMARK 927      BINDING AFFINITY PREDICTED BY RF-SCORE:    0.00 PKD
ROOT
HETATM    1  C   UNL     1     -11.580  15.949  70.373  1.00  0.00    -0.371 C  
HETATM    2  N   UNL     1     -11.297  15.446  69.043  1.00  0.00    -0.294 N  
HETATM    3  C   UNL     1     -11.375  14.106  68.746  1.00  0.00    -0.278 A  
HETATM    4  C   UNL     1     -11.128  13.638  67.488  1.00  0.00    -0.277 A  
HETATM    5  C   UNL     1     -10.779  14.484  66.397  1.00  0.00    -0.309 C  
HETATM    6  N   UNL     1     -11.311  12.285  67.572  1.00  0.00    -0.303 NA 
HETATM    7  O   UNL     1     -10.581  14.055  65.262  1.00  0.00    -0.321 OA 
HETATM    8  N   UNL     1     -10.689  15.830  66.760  1.00  0.00    -0.313 N  
HETATM    9  O   UNL     1     -10.863  17.563  68.274  1.00  0.00    -0.338 OA 
HETATM   10  C   UNL     1     -11.640  12.006  68.874  1.00  0.00    -0.321 A  
HETATM   11  N   UNL     1     -11.690  13.100  69.607  1.00  0.00    -0.309 NA 
HETATM   12  C   UNL     1     -10.321  16.795  65.743  1.00  0.00    -0.305 C  
HETATM   13  C   UNL     1     -10.946  16.351  68.045  1.00  0.00    -0.327 C  
ENDROOT
BRANCH   6  14
HETATM   14  C   UNL     1     -11.144  11.308  66.515  1.00  0.00    -0.216 C  
BRANCH  14  15
HETATM   15  C   UNL     1     -10.053  10.276  66.818  1.00  0.00    -0.216 C  
HETATM   16  H   UNL     1      -9.576   8.420  66.279  1.00  0.00     0.000 HD 
HETATM   17  O   UNL     1     -10.252   9.061  66.091  1.00  0.00    -0.267 OA 
BRANCH  15  18
HETATM   18  C   UNL     1      -8.670  10.850  66.472  1.00  0.00    -0.163 C  
HETATM   19  O   UNL     1      -8.743  11.869  65.478  1.00  0.00    -0.391 OA 
HETATM   20  H   UNL     1      -7.888  12.224  65.265  1.00  0.00     0.000 HD 
ENDBRANCH  15  18
ENDBRANCH  14  15
ENDBRANCH   6  14
TORSDOF 3
ENDMDL
MODEL       52
REMARK 921   NORMALIZED FREE ENERGY PREDICTED BY IDOCK:   -4.71 KCAL/MOL
REMARK 922        TOTAL FREE ENERGY PREDICTED BY IDOCK:   -6.01 KCAL/MOL
REMARK 923 INTER-LIGAND FREE ENERGY PREDICTED BY IDOCK:   -5.40 KCAL/MOL
REMARK 924 INTRA-LIGAND FREE ENERGY PREDICTED BY IDOCK:   -0.60 KCAL/MOL
REMARK 927      BINDING AFFINITY PREDICTED BY RF-SCORE:    0.00 PKD
ROOT
HETATM    1  C   UNL     1     -12.499  13.807  65.441  1.00  0.00    -0.500 C  
HETATM    2  N   UNL     1     -11.724  12.587  65.563  1.00  0.00    -0.390 N  
HETATM    3  C   UNL     1     -11.611  11.919  66.759  1.00  0.00    -0.268 A  
HETATM    4  C   UNL     1     -10.896  10.762  66.865  1.00  0.00    -0.229 A  
HETATM    5  C   UNL     1     -10.226  10.157  65.765  1.00  0.00    -0.213 C  
HETATM    6  N   UNL     1     -11.019  10.391  68.177  1.00  0.00    -0.264 NA 
HETATM    7  O   UNL     1      -9.604   9.101  65.867  1.00  0.00    -0.253 OA 
HETATM    8  N   UNL     1     -10.352  10.889  64.582  1.00  0.00    -0.337 N  
HETATM    9  O   UNL     1     -11.164  12.656  63.339  1.00  0.00    -0.467 OA 
HETATM   10  C   UNL     1     -11.782  11.349  68.794  1.00  0.00    -0.339 A  
HETATM   11  N   UNL     1     -12.158  12.288  67.950  1.00  0.00    -0.434 NA 
HETATM   12  C   UNL     1      -9.696  10.390  63.389  1.00  0.00    -0.263 C  
HETATM   13  C   UNL     1     -11.087  12.083  64.432  1.00  0.00    -0.342 C  
ENDROOT
BRANCH   6  14
HETATM   14  C   UNL     1     -10.423   9.239  68.823  1.00  0.00    -0.210 C  
BRANCH  14  15
HETATM   15  C   UNL     1      -9.414   9.617  69.912  1.00  0.00    -0.231 C  
HETATM   16  H   UNL     1      -8.404   8.720  71.374  1.00  0.00     0.000 HD 
HETATM   17  O   UNL     1      -9.030   8.486  70.699  1.00  0.00    -0.142 OA 
BRANCH  15  18
HETATM   18  C   UNL     1      -8.160  10.240  69.279  1.00  0.00    -0.155 C  
HETATM   19  O   UNL     1      -8.292  11.648  69.095  1.00  0.00    -0.369 OA 
HETATM   20  H   UNL     1      -7.517  12.033  68.704  1.00  0.00     0.000 HD 
ENDBRANCH  15  18
ENDBRANCH  14  15
ENDBRANCH   6  14
TORSDOF 3
ENDMDL
MODEL       53
REMARK 921   NORMALIZED FREE ENERGY PREDICTED BY IDOCK:   -4.70 KCAL/MOL
REMARK 922        TOTAL FREE ENERGY PREDICTED BY IDOCK:   -5.99 KCAL/MOL
REMARK 923 INTER-LIGAND FREE ENERGY PREDICTED BY IDOCK:   -5.69 KCAL/MOL
REMARK 924 INTRA-LIGAND FREE ENERGY PREDICTED BY IDOCK:   -0.31 KCAL/MOL
REMARK 927      BINDING AFFINITY PREDICTED BY RF-SCORE:    0.00 PKD
ROOT
HETATM    1  C   UNL     1     -14.071  13.541  72.332  1.00  0.00    -0.461 C  
HETATM    2  N   UNL     1     -13.111  13.461  71.248  1.00  0.00    -0.281 N  
HETATM    3  C   UNL     1     -12.466  12.287  70.939  1.00  0.00    -0.276 A  
HETATM    4  C   UNL     1     -11.578  12.210  69.906  1.00  0.00    -0.221 A  
HETATM    5  C   UNL     1     -11.255  13.319  69.073  1.00  0.00    -0.270 C  
HETATM    6  N   UNL     1     -11.157  10.908  69.898  1.00  0.00    -0.263 NA 
HETATM    7  O   UNL     1     -10.471  13.233  68.130  1.00  0.00    -0.231 OA 
HETATM    8  N   UNL     1     -11.918  14.490  69.446  1.00  0.00    -0.318 N  
HETATM    9  O   UNL     1     -13.406  15.680  70.748  1.00  0.00    -0.535 OA 
HETATM   10  C   UNL     1     -11.797  10.274  70.932  1.00  0.00    -0.377 A  
HETATM   11  N   UNL     1     -12.603  11.093  71.579  1.00  0.00    -0.353 NA 
HETATM   12  C   UNL     1     -11.661  15.699  68.689  1.00  0.00    -0.382 C  
HETATM   13  C   UNL     1     -12.848  14.606  70.500  1.00  0.00    -0.317 C  
ENDROOT
BRANCH   6  14
HETATM   14  C   UNL     1     -10.186  10.305  69.009  1.00  0.00    -0.210 C  
BRANCH  14  15
HETATM   15  C   UNL     1     -10.827   9.604  67.807  1.00  0.00    -0.217 C  
HETATM   16  H   UNL     1     -11.054   9.918  65.854  1.00  0.00     0.000 HD 
HETATM   17  O   UNL     1     -10.656  10.352  66.599  1.00  0.00    -0.231 OA 
BRANCH  15  18
HETATM   18  C   UNL     1     -10.219   8.205  67.623  1.00  0.00    -0.234 C  
HETATM   19  O   UNL     1     -11.012   7.380  66.772  1.00  0.00    -0.509 OA 
HETATM   20  H   UNL     1     -10.636   6.515  66.658  1.00  0.00     0.000 HD 
ENDBRANCH  15  18
ENDBRANCH  14  15
ENDBRANCH   6  14
TORSDOF 3
ENDMDL
MODEL       54
REMARK 921   NORMALIZED FREE ENERGY PREDICTED BY IDOCK:   -4.68 KCAL/MOL
REMARK 922        TOTAL FREE ENERGY PREDICTED BY IDOCK:   -5.97 KCAL/MOL
REMARK 923 INTER-LIGAND FREE ENERGY PREDICTED BY IDOCK:   -5.48 KCAL/MOL
REMARK 924 INTRA-LIGAND FREE ENERGY PREDICTED BY IDOCK:   -0.49 KCAL/MOL
REMARK 927      BINDING AFFINITY PREDICTED BY RF-SCORE:    0.00 PKD
ROOT
HETATM    1  C   UNL     1     -10.870   7.393  70.162  1.00  0.00    -0.256 C  
HETATM    2  N   UNL     1     -11.148   8.816  70.109  1.00  0.00    -0.236 N  
HETATM    3  C   UNL     1     -10.613   9.620  69.130  1.00  0.00    -0.220 A  
HETATM    4  C   UNL     1     -10.893  10.954  69.071  1.00  0.00    -0.230 A  
HETATM    5  C   UNL     1     -11.751  11.611  69.998  1.00  0.00    -0.321 C  
HETATM    6  N   UNL     1     -10.205  11.411  67.981  1.00  0.00    -0.180 NA 
HETATM    7  O   UNL     1     -12.016  12.810  69.922  1.00  0.00    -0.321 OA 
HETATM    8  N   UNL     1     -12.246  10.754  70.983  1.00  0.00    -0.368 N  
HETATM    9  O   UNL     1     -12.485   8.681  71.968  1.00  0.00    -0.326 OA 
HETATM   10  C   UNL     1      -9.534  10.338  67.452  1.00  0.00    -0.153 A  
HETATM   11  N   UNL     1      -9.771   9.235  68.133  1.00  0.00    -0.147 NA 
HETATM   12  C   UNL     1     -13.118  11.305  72.002  1.00  0.00    -0.326 C  
HETATM   13  C   UNL     1     -11.987   9.371  71.072  1.00  0.00    -0.315 C  
ENDROOT
BRANCH   6  14
HETATM   14  C   UNL     1     -10.141  12.773  67.490  1.00  0.00    -0.213 C  
BRANCH  14  15
HETATM   15  C   UNL     1     -11.061  13.022  66.290  1.00  0.00    -0.289 C  
HETATM   16  H   UNL     1     -12.679  12.205  65.467  1.00  0.00     0.000 HD 
HETATM   17  O   UNL     1     -12.108  12.051  66.211  1.00  0.00    -0.596 OA 
BRANCH  15  18
HETATM   18  C   UNL     1     -11.681  14.425  66.380  1.00  0.00    -0.386 C  
HETATM   19  O   UNL     1     -12.406  14.617  67.592  1.00  0.00    -0.597 OA 
HETATM   20  H   UNL     1     -12.789  15.484  67.648  1.00  0.00     0.000 HD 
ENDBRANCH  15  18
ENDBRANCH  14  15
ENDBRANCH   6  14
TORSDOF 3
ENDMDL
MODEL       55
REMARK 921   NORMALIZED FREE ENERGY PREDICTED BY IDOCK:   -4.67 KCAL/MOL
REMARK 922        TOTAL FREE ENERGY PREDICTED BY IDOCK:   -5.96 KCAL/MOL
REMARK 923 INTER-LIGAND FREE ENERGY PREDICTED BY IDOCK:   -5.74 KCAL/MOL
REMARK 924 INTRA-LIGAND FREE ENERGY PREDICTED BY IDOCK:   -0.22 KCAL/MOL
REMARK 927      BINDING AFFINITY PREDICTED BY RF-SCORE:    0.00 PKD
ROOT
HETATM    1  C   UNL     1     -12.637  15.697  71.132  1.00  0.00    -0.453 C  
HETATM    2  N   UNL     1     -12.479  14.372  70.565  1.00  0.00    -0.333 N  
HETATM    3  C   UNL     1     -12.024  14.185  69.281  1.00  0.00    -0.340 A  
HETATM    4  C   UNL     1     -11.857  12.936  68.757  1.00  0.00    -0.315 A  
HETATM    5  C   UNL     1     -12.130  11.743  69.486  1.00  0.00    -0.250 C  
HETATM    6  N   UNL     1     -11.388  13.144  67.489  1.00  0.00    -0.283 NA 
HETATM    7  O   UNL     1     -11.954  10.622  69.012  1.00  0.00    -0.287 OA 
HETATM    8  N   UNL     1     -12.614  11.991  70.773  1.00  0.00    -0.272 N  
HETATM    9  O   UNL     1     -13.204  13.393  72.508  1.00  0.00    -0.486 OA 
HETATM   10  C   UNL     1     -11.314  14.502  67.308  1.00  0.00    -0.350 A  
HETATM   11  N   UNL     1     -11.692  15.157  68.388  1.00  0.00    -0.333 NA 
HETATM   12  C   UNL     1     -12.950  10.859  71.612  1.00  0.00    -0.464 C  
HETATM   13  C   UNL     1     -12.790  13.265  71.351  1.00  0.00    -0.322 C  
ENDROOT
BRANCH   6  14
HETATM   14  C   UNL     1     -11.073  12.141  66.493  1.00  0.00    -0.307 C  
BRANCH  14  15
HETATM   15  C   UNL     1      -9.600  11.718  66.514  1.00  0.00    -0.210 C  
HETATM   16  H   UNL     1      -7.988  12.011  67.645  1.00  0.00     0.000 HD 
HETATM   17  O   UNL     1      -8.901  12.273  67.632  1.00  0.00    -0.159 OA 
BRANCH  15  18
HETATM   18  C   UNL     1      -9.490  10.186  66.561  1.00  0.00    -0.169 C  
HETATM   19  O   UNL     1      -9.979   9.574  65.370  1.00  0.00    -0.409 OA 
HETATM   20  H   UNL     1      -9.910   8.626  65.400  1.00  0.00     0.000 HD 
ENDBRANCH  15  18
ENDBRANCH  14  15
ENDBRANCH   6  14
TORSDOF 3
ENDMDL
MODEL       56
REMARK 921   NORMALIZED FREE ENERGY PREDICTED BY IDOCK:   -4.66 KCAL/MOL
REMARK 922        TOTAL FREE ENERGY PREDICTED BY IDOCK:   -5.95 KCAL/MOL
REMARK 923 INTER-LIGAND FREE ENERGY PREDICTED BY IDOCK:   -5.29 KCAL/MOL
REMARK 924 INTRA-LIGAND FREE ENERGY PREDICTED BY IDOCK:   -0.67 KCAL/MOL
REMARK 927      BINDING AFFINITY PREDICTED BY RF-SCORE:    0.00 PKD
ROOT
HETATM    1  C   UNL     1     -12.529  12.130  63.456  1.00  0.00    -0.555 C  
HETATM    2  N   UNL     1     -11.829  12.367  64.704  1.00  0.00    -0.367 N  
HETATM    3  C   UNL     1     -10.752  11.601  65.084  1.00  0.00    -0.296 A  
HETATM    4  C   UNL     1     -10.083  11.840  66.249  1.00  0.00    -0.217 A  
HETATM    5  C   UNL     1     -10.434  12.886  67.149  1.00  0.00    -0.238 C  
HETATM    6  N   UNL     1      -9.087  10.903  66.282  1.00  0.00    -0.171 NA 
HETATM    7  O   UNL     1      -9.810  13.107  68.185  1.00  0.00    -0.217 OA 
HETATM    8  N   UNL     1     -11.548  13.615  66.726  1.00  0.00    -0.346 N  
HETATM    9  O   UNL     1     -13.224  14.114  65.220  1.00  0.00    -0.760 OA 
HETATM   10  C   UNL     1      -9.216  10.141  65.149  1.00  0.00    -0.213 A  
HETATM   11  N   UNL     1     -10.222  10.550  64.402  1.00  0.00    -0.330 NA 
HETATM   12  C   UNL     1     -12.022  14.699  67.565  1.00  0.00    -0.278 C  
HETATM   13  C   UNL     1     -12.259  13.405  65.527  1.00  0.00    -0.455 C  
ENDROOT
BRANCH   6  14
HETATM   14  C   UNL     1      -8.103  10.703  67.326  1.00  0.00    -0.116 C  
BRANCH  14  15
HETATM   15  C   UNL     1      -8.186   9.316  67.972  1.00  0.00    -0.115 C  
HETATM   16  H   UNL     1      -6.943   7.937  68.689  1.00  0.00     0.000 HD 
HETATM   17  O   UNL     1      -6.892   8.797  68.289  1.00  0.00    -0.064 OA 
BRANCH  15  18
HETATM   18  C   UNL     1      -9.032   9.378  69.253  1.00  0.00    -0.154 C  
HETATM   19  O   UNL     1      -9.472  10.703  69.545  1.00  0.00    -0.395 OA 
HETATM   20  H   UNL     1      -9.995  10.741  70.337  1.00  0.00     0.000 HD 
ENDBRANCH  15  18
ENDBRANCH  14  15
ENDBRANCH   6  14
TORSDOF 3
ENDMDL
MODEL       57
REMARK 921   NORMALIZED FREE ENERGY PREDICTED BY IDOCK:   -4.66 KCAL/MOL
REMARK 922        TOTAL FREE ENERGY PREDICTED BY IDOCK:   -5.95 KCAL/MOL
REMARK 923 INTER-LIGAND FREE ENERGY PREDICTED BY IDOCK:   -5.25 KCAL/MOL
REMARK 924 INTRA-LIGAND FREE ENERGY PREDICTED BY IDOCK:   -0.70 KCAL/MOL
REMARK 927      BINDING AFFINITY PREDICTED BY RF-SCORE:    0.00 PKD
ROOT
HETATM    1  C   UNL     1     -11.026   9.473  68.795  1.00  0.00    -0.080 C  
HETATM    2  N   UNL     1     -11.346  10.878  68.954  1.00  0.00    -0.264 N  
HETATM    3  C   UNL     1     -11.152  11.783  67.937  1.00  0.00    -0.245 A  
HETATM    4  C   UNL     1     -11.472  13.101  68.084  1.00  0.00    -0.314 A  
HETATM    5  C   UNL     1     -12.031  13.639  69.278  1.00  0.00    -0.336 C  
HETATM    6  N   UNL     1     -11.156  13.677  66.884  1.00  0.00    -0.299 NA 
HETATM    7  O   UNL     1     -12.338  14.824  69.392  1.00  0.00    -0.249 OA 
HETATM    8  N   UNL     1     -12.183  12.682  70.285  1.00  0.00    -0.313 N  
HETATM    9  O   UNL     1     -12.059  10.530  71.106  1.00  0.00    -0.354 OA 
HETATM   10  C   UNL     1     -10.647  12.684  66.085  1.00  0.00    -0.258 A  
HETATM   11  N   UNL     1     -10.638  11.521  66.704  1.00  0.00    -0.242 NA 
HETATM   12  C   UNL     1     -12.723  13.106  71.562  1.00  0.00    -0.269 C  
HETATM   13  C   UNL     1     -11.872  11.312  70.168  1.00  0.00    -0.364 C  
ENDROOT
BRANCH   6  14
HETATM   14  C   UNL     1     -11.279  15.074  66.520  1.00  0.00    -0.312 C  
BRANCH  14  15
HETATM   15  C   UNL     1      -9.960  15.687  66.040  1.00  0.00    -0.333 C  
HETATM   16  H   UNL     1      -9.355  17.247  64.961  1.00  0.00     0.000 HD 
HETATM   17  O   UNL     1     -10.173  16.867  65.259  1.00  0.00    -0.607 OA 
BRANCH  15  18
HETATM   18  C   UNL     1      -9.067  16.032  67.242  1.00  0.00    -0.204 C  
HETATM   19  O   UNL     1      -9.795  16.041  68.468  1.00  0.00    -0.207 OA 
HETATM   20  H   UNL     1      -9.243  16.255  69.211  1.00  0.00     0.000 HD 
ENDBRANCH  15  18
ENDBRANCH  14  15
ENDBRANCH   6  14
TORSDOF 3
ENDMDL
MODEL       58
REMARK 921   NORMALIZED FREE ENERGY PREDICTED BY IDOCK:   -4.64 KCAL/MOL
REMARK 922        TOTAL FREE ENERGY PREDICTED BY IDOCK:   -5.92 KCAL/MOL
REMARK 923 INTER-LIGAND FREE ENERGY PREDICTED BY IDOCK:   -5.38 KCAL/MOL
REMARK 924 INTRA-LIGAND FREE ENERGY PREDICTED BY IDOCK:   -0.54 KCAL/MOL
REMARK 927      BINDING AFFINITY PREDICTED BY RF-SCORE:    0.00 PKD
ROOT
HETATM    1  C   UNL     1      -9.200  10.067  63.378  1.00  0.00    -0.281 C  
HETATM    2  N   UNL     1      -9.787  10.359  64.671  1.00  0.00    -0.322 N  
HETATM    3  C   UNL     1     -10.375  11.573  64.940  1.00  0.00    -0.289 A  
HETATM    4  C   UNL     1     -10.944  11.837  66.152  1.00  0.00    -0.307 A  
HETATM    5  C   UNL     1     -10.981  10.894  67.217  1.00  0.00    -0.294 C  
HETATM    6  N   UNL     1     -11.427  13.113  66.044  1.00  0.00    -0.323 NA 
HETATM    7  O   UNL     1     -11.517  11.135  68.298  1.00  0.00    -0.269 OA 
HETATM    8  N   UNL     1     -10.348   9.690  66.900  1.00  0.00    -0.245 N  
HETATM    9  O   UNL     1      -9.236   8.275  65.455  1.00  0.00    -0.083 OA 
HETATM   10  C   UNL     1     -11.110  13.556  64.785  1.00  0.00    -0.359 A  
HETATM   11  N   UNL     1     -10.473  12.633  64.092  1.00  0.00    -0.393 NA 
HETATM   12  C   UNL     1     -10.297   8.651  67.909  1.00  0.00    -0.229 C  
HETATM   13  C   UNL     1      -9.757   9.377  65.658  1.00  0.00    -0.266 C  
ENDROOT
BRANCH   6  14
HETATM   14  C   UNL     1     -12.102  13.886  67.066  1.00  0.00    -0.415 C  
BRANCH  14  15
HETATM   15  C   UNL     1     -11.142  14.733  67.909  1.00  0.00    -0.293 C  
HETATM   16  H   UNL     1     -10.544  16.628  68.020  1.00  0.00     0.000 HD 
HETATM   17  O   UNL     1     -11.139  16.103  67.498  1.00  0.00    -0.282 OA 
BRANCH  15  18
HETATM   18  C   UNL     1     -11.530  14.653  69.394  1.00  0.00    -0.296 C  
HETATM   19  O   UNL     1     -11.646  13.308  69.849  1.00  0.00    -0.434 OA 
HETATM   20  H   UNL     1     -11.885  13.258  70.767  1.00  0.00     0.000 HD 
ENDBRANCH  15  18
ENDBRANCH  14  15
ENDBRANCH   6  14
TORSDOF 3
ENDMDL
MODEL       59
REMARK 921   NORMALIZED FREE ENERGY PREDICTED BY IDOCK:   -4.63 KCAL/MOL
REMARK 922        TOTAL FREE ENERGY PREDICTED BY IDOCK:   -5.92 KCAL/MOL
REMARK 923 INTER-LIGAND FREE ENERGY PREDICTED BY IDOCK:   -5.63 KCAL/MOL
REMARK 924 INTRA-LIGAND FREE ENERGY PREDICTED BY IDOCK:   -0.28 KCAL/MOL
REMARK 927      BINDING AFFINITY PREDICTED BY RF-SCORE:    0.00 PKD
ROOT
HETATM    1  C   UNL     1     -11.956  13.971  64.117  1.00  0.00    -0.408 C  
HETATM    2  N   UNL     1     -11.389  12.921  64.941  1.00  0.00    -0.298 N  
HETATM    3  C   UNL     1     -11.520  12.925  66.309  1.00  0.00    -0.348 A  
HETATM    4  C   UNL     1     -11.002  11.925  67.079  1.00  0.00    -0.278 A  
HETATM    5  C   UNL     1     -10.299  10.811  66.539  1.00  0.00    -0.244 C  
HETATM    6  N   UNL     1     -11.334  12.260  68.363  1.00  0.00    -0.267 NA 
HETATM    7  O   UNL     1      -9.855   9.903  67.240  1.00  0.00    -0.168 OA 
HETATM    8  N   UNL     1     -10.172  10.871  65.149  1.00  0.00    -0.285 N  
HETATM    9  O   UNL     1     -10.560  11.843  63.093  1.00  0.00    -0.373 OA 
HETATM   10  C   UNL     1     -12.018  13.448  68.303  1.00  0.00    -0.317 A  
HETATM   11  N   UNL     1     -12.147  13.870  67.062  1.00  0.00    -0.429 NA 
HETATM   12  C   UNL     1      -9.457   9.804  64.476  1.00  0.00    -0.202 C  
HETATM   13  C   UNL     1     -10.701  11.881  64.320  1.00  0.00    -0.338 C  
ENDROOT
BRANCH   6  14
HETATM   14  C   UNL     1     -10.997  11.540  69.574  1.00  0.00    -0.125 C  
BRANCH  14  15
HETATM   15  C   UNL     1     -12.160  10.703  70.118  1.00  0.00    -0.333 C  
HETATM   16  H   UNL     1     -12.472   8.854  70.786  1.00  0.00     0.000 HD 
HETATM   17  O   UNL     1     -11.751   9.373  70.449  1.00  0.00    -0.239 OA 
BRANCH  15  18
HETATM   18  C   UNL     1     -12.755  11.372  71.367  1.00  0.00    -0.384 C  
HETATM   19  O   UNL     1     -13.322  10.424  72.268  1.00  0.00    -0.597 OA 
HETATM   20  H   UNL     1     -13.690  10.838  73.040  1.00  0.00     0.000 HD 
ENDBRANCH  15  18
ENDBRANCH  14  15
ENDBRANCH   6  14
TORSDOF 3
ENDMDL
MODEL       60
REMARK 921   NORMALIZED FREE ENERGY PREDICTED BY IDOCK:   -4.59 KCAL/MOL
REMARK 922        TOTAL FREE ENERGY PREDICTED BY IDOCK:   -5.87 KCAL/MOL
REMARK 923 INTER-LIGAND FREE ENERGY PREDICTED BY IDOCK:   -5.73 KCAL/MOL
REMARK 924 INTRA-LIGAND FREE ENERGY PREDICTED BY IDOCK:   -0.14 KCAL/MOL
REMARK 927      BINDING AFFINITY PREDICTED BY RF-SCORE:    0.00 PKD
ROOT
HETATM    1  C   UNL     1     -12.058   6.863  71.802  1.00  0.00    -0.346 C  
HETATM    2  N   UNL     1     -11.680   8.012  71.002  1.00  0.00    -0.286 N  
HETATM    3  C   UNL     1     -12.152   9.273  71.282  1.00  0.00    -0.337 A  
HETATM    4  C   UNL     1     -11.779  10.355  70.540  1.00  0.00    -0.344 A  
HETATM    5  C   UNL     1     -10.881  10.272  69.438  1.00  0.00    -0.245 C  
HETATM    6  N   UNL     1     -12.427  11.416  71.111  1.00  0.00    -0.380 NA 
HETATM    7  O   UNL     1     -10.533  11.258  68.790  1.00  0.00    -0.195 OA 
HETATM    8  N   UNL     1     -10.453   8.967  69.183  1.00  0.00    -0.227 N  
HETATM    9  O   UNL     1     -10.366   6.708  69.647  1.00  0.00    -0.180 OA 
HETATM   10  C   UNL     1     -13.168  10.918  72.153  1.00  0.00    -0.228 A  
HETATM   11  N   UNL     1     -13.013   9.615  72.278  1.00  0.00    -0.386 NA 
HETATM   12  C   UNL     1      -9.550   8.742  68.071  1.00  0.00    -0.142 C  
HETATM   13  C   UNL     1     -10.809   7.826  69.931  1.00  0.00    -0.226 C  
ENDROOT
BRANCH   6  14
HETATM   14  C   UNL     1     -12.393  12.800  70.685  1.00  0.00    -0.297 C  
BRANCH  14  15
HETATM   15  C   UNL     1     -12.800  13.778  71.792  1.00  0.00    -0.326 C  
HETATM   16  H   UNL     1     -12.197  15.531  72.518  1.00  0.00     0.000 HD 
HETATM   17  O   UNL     1     -11.945  14.924  71.832  1.00  0.00    -0.351 OA 
BRANCH  15  18
HETATM   18  C   UNL     1     -14.251  14.240  71.583  1.00  0.00    -0.388 C  
HETATM   19  O   UNL     1     -14.329  15.448  70.831  1.00  0.00    -0.844 OA 
HETATM   20  H   UNL     1     -15.226  15.733  70.702  1.00  0.00     0.000 HD 
ENDBRANCH  15  18
ENDBRANCH  14  15
ENDBRANCH   6  14
TORSDOF 3
ENDMDL
MODEL       61
REMARK 921   NORMALIZED FREE ENERGY PREDICTED BY IDOCK:   -4.57 KCAL/MOL
REMARK 922        TOTAL FREE ENERGY PREDICTED BY IDOCK:   -5.84 KCAL/MOL
REMARK 923 INTER-LIGAND FREE ENERGY PREDICTED BY IDOCK:   -5.62 KCAL/MOL
REMARK 924 INTRA-LIGAND FREE ENERGY PREDICTED BY IDOCK:   -0.23 KCAL/MOL
REMARK 927      BINDING AFFINITY PREDICTED BY RF-SCORE:    0.00 PKD
ROOT
HETATM    1  C   UNL     1     -10.415   8.889  67.672  1.00  0.00    -0.255 C  
HETATM    2  N   UNL     1     -10.378   9.938  66.672  1.00  0.00    -0.224 N  
HETATM    3  C   UNL     1     -10.953  11.168  66.894  1.00  0.00    -0.273 A  
HETATM    4  C   UNL     1     -10.899  12.159  65.958  1.00  0.00    -0.282 A  
HETATM    5  C   UNL     1     -10.250  12.009  64.700  1.00  0.00    -0.282 C  
HETATM    6  N   UNL     1     -11.555  13.217  66.527  1.00  0.00    -0.339 NA 
HETATM    7  O   UNL     1     -10.187  12.917  63.873  1.00  0.00    -0.383 OA 
HETATM    8  N   UNL     1      -9.707  10.735  64.518  1.00  0.00    -0.267 N  
HETATM    9  O   UNL     1      -9.209   8.596  65.226  1.00  0.00    -0.117 OA 
HETATM   10  C   UNL     1     -11.984  12.804  67.763  1.00  0.00    -0.260 A  
HETATM   11  N   UNL     1     -11.625  11.561  68.010  1.00  0.00    -0.454 NA 
HETATM   12  C   UNL     1      -9.035  10.445  63.266  1.00  0.00    -0.232 C  
HETATM   13  C   UNL     1      -9.735   9.689  65.463  1.00  0.00    -0.301 C  
ENDROOT
BRANCH   6  14
HETATM   14  C   UNL     1     -11.805  14.516  65.936  1.00  0.00    -0.331 C  
BRANCH  14  15
HETATM   15  C   UNL     1     -10.622  15.479  66.084  1.00  0.00    -0.315 C  
HETATM   16  H   UNL     1      -9.880  17.072  65.148  1.00  0.00     0.000 HD 
HETATM   17  O   UNL     1     -10.614  16.475  65.057  1.00  0.00    -0.670 OA 
BRANCH  15  18
HETATM   18  C   UNL     1     -10.671  16.171  67.455  1.00  0.00    -0.304 C  
HETATM   19  O   UNL     1     -10.365  17.561  67.369  1.00  0.00    -0.329 OA 
HETATM   20  H   UNL     1     -10.395  17.988  68.217  1.00  0.00     0.000 HD 
ENDBRANCH  15  18
ENDBRANCH  14  15
ENDBRANCH   6  14
TORSDOF 3
ENDMDL
MODEL       62
REMARK 921   NORMALIZED FREE ENERGY PREDICTED BY IDOCK:   -4.55 KCAL/MOL
REMARK 922        TOTAL FREE ENERGY PREDICTED BY IDOCK:   -5.82 KCAL/MOL
REMARK 923 INTER-LIGAND FREE ENERGY PREDICTED BY IDOCK:   -5.53 KCAL/MOL
REMARK 924 INTRA-LIGAND FREE ENERGY PREDICTED BY IDOCK:   -0.29 KCAL/MOL
REMARK 927      BINDING AFFINITY PREDICTED BY RF-SCORE:    0.00 PKD
ROOT
HETATM    1  C   UNL     1     -12.390   9.173  71.895  1.00  0.00    -0.385 C  
HETATM    2  N   UNL     1     -12.046  10.217  70.948  1.00  0.00    -0.328 N  
HETATM    3  C   UNL     1     -12.490  11.508  71.104  1.00  0.00    -0.337 A  
HETATM    4  C   UNL     1     -12.149  12.492  70.223  1.00  0.00    -0.294 A  
HETATM    5  C   UNL     1     -11.314  12.269  69.091  1.00  0.00    -0.272 C  
HETATM    6  N   UNL     1     -12.756  13.621  70.702  1.00  0.00    -0.272 NA 
HETATM    7  O   UNL     1     -10.993  13.167  68.316  1.00  0.00    -0.234 OA 
HETATM    8  N   UNL     1     -10.913  10.936  68.967  1.00  0.00    -0.217 N  
HETATM    9  O   UNL     1     -10.820   8.745  69.685  1.00  0.00    -0.231 OA 
HETATM   10  C   UNL     1     -13.443  13.258  71.832  1.00  0.00    -0.438 A  
HETATM   11  N   UNL     1     -13.293  11.976  72.100  1.00  0.00    -0.439 NA 
HETATM   12  C   UNL     1     -10.075  10.571  67.842  1.00  0.00    -0.176 C  
HETATM   13  C   UNL     1     -11.238   9.895  69.861  1.00  0.00    -0.250 C  
ENDROOT
BRANCH   6  14
HETATM   14  C   UNL     1     -12.732  14.946  70.117  1.00  0.00    -0.219 C  
BRANCH  14  15
HETATM   15  C   UNL     1     -11.822  15.919  70.872  1.00  0.00    -0.417 C  
HETATM   16  H   UNL     1     -10.622  15.899  72.460  1.00  0.00     0.000 HD 
HETATM   17  O   UNL     1     -11.186  15.296  71.992  1.00  0.00    -0.419 OA 
BRANCH  15  18
HETATM   18  C   UNL     1     -10.745  16.479  69.929  1.00  0.00    -0.269 C  
HETATM   19  O   UNL     1     -11.104  16.334  68.557  1.00  0.00    -0.337 OA 
HETATM   20  H   UNL     1     -10.438  16.680  67.974  1.00  0.00     0.000 HD 
ENDBRANCH  15  18
ENDBRANCH  14  15
ENDBRANCH   6  14
TORSDOF 3
ENDMDL
MODEL       63
REMARK 921   NORMALIZED FREE ENERGY PREDICTED BY IDOCK:   -4.55 KCAL/MOL
REMARK 922        TOTAL FREE ENERGY PREDICTED BY IDOCK:   -5.82 KCAL/MOL
REMARK 923 INTER-LIGAND FREE ENERGY PREDICTED BY IDOCK:   -5.72 KCAL/MOL
REMARK 924 INTRA-LIGAND FREE ENERGY PREDICTED BY IDOCK:   -0.10 KCAL/MOL
REMARK 927      BINDING AFFINITY PREDICTED BY RF-SCORE:    0.00 PKD
ROOT
HETATM    1  C   UNL     1      -6.851  12.969  67.969  1.00  0.00    -0.113 C  
HETATM    2  N   UNL     1      -8.235  12.536  67.955  1.00  0.00    -0.156 N  
HETATM    3  C   UNL     1      -9.202  13.228  67.265  1.00  0.00    -0.222 A  
HETATM    4  C   UNL     1     -10.499  12.806  67.238  1.00  0.00    -0.232 A  
HETATM    5  C   UNL     1     -10.950  11.632  67.905  1.00  0.00    -0.225 C  
HETATM    6  N   UNL     1     -11.152  13.722  66.459  1.00  0.00    -0.303 NA 
HETATM    7  O   UNL     1     -12.118  11.248  67.855  1.00  0.00    -0.634 OA 
HETATM    8  N   UNL     1      -9.934  10.983  68.610  1.00  0.00    -0.193 N  
HETATM    9  O   UNL     1      -7.743  10.735  69.289  1.00  0.00    -0.137 OA 
HETATM   10  C   UNL     1     -10.222  14.654  66.073  1.00  0.00    -0.311 A  
HETATM   11  N   UNL     1      -9.026  14.372  66.549  1.00  0.00    -0.208 NA 
HETATM   12  C   UNL     1     -10.268   9.783  69.352  1.00  0.00    -0.210 C  
HETATM   13  C   UNL     1      -8.583  11.383  68.655  1.00  0.00    -0.126 C  
ENDROOT
BRANCH   6  14
HETATM   14  C   UNL     1     -12.563  13.751  66.132  1.00  0.00    -0.371 C  
BRANCH  14  15
HETATM   15  C   UNL     1     -12.858  13.273  64.707  1.00  0.00    -0.191 C  
HETATM   16  H   UNL     1     -12.808  14.004  62.856  1.00  0.00     0.000 HD 
HETATM   17  O   UNL     1     -12.625  14.301  63.740  1.00  0.00    -0.821 OA 
BRANCH  15  18
HETATM   18  C   UNL     1     -11.987  12.053  64.366  1.00  0.00    -0.300 C  
HETATM   19  O   UNL     1     -12.268  11.537  63.068  1.00  0.00    -0.968 OA 
HETATM   20  H   UNL     1     -11.729  10.783  62.857  1.00  0.00     0.000 HD 
ENDBRANCH  15  18
ENDBRANCH  14  15
ENDBRANCH   6  14
TORSDOF 3
ENDMDL
MODEL       64
REMARK 921   NORMALIZED FREE ENERGY PREDICTED BY IDOCK:   -4.54 KCAL/MOL
REMARK 922        TOTAL FREE ENERGY PREDICTED BY IDOCK:   -5.81 KCAL/MOL
REMARK 923 INTER-LIGAND FREE ENERGY PREDICTED BY IDOCK:   -5.21 KCAL/MOL
REMARK 924 INTRA-LIGAND FREE ENERGY PREDICTED BY IDOCK:   -0.60 KCAL/MOL
REMARK 927      BINDING AFFINITY PREDICTED BY RF-SCORE:    0.00 PKD
ROOT
HETATM    1  C   UNL     1      -9.844   9.328  65.799  1.00  0.00    -0.231 C  
HETATM    2  N   UNL     1     -10.414  10.184  66.821  1.00  0.00    -0.224 N  
HETATM    3  C   UNL     1     -10.788  11.479  66.552  1.00  0.00    -0.288 A  
HETATM    4  C   UNL     1     -11.342  12.276  67.511  1.00  0.00    -0.325 A  
HETATM    5  C   UNL     1     -11.583  11.838  68.844  1.00  0.00    -0.309 C  
HETATM    6  N   UNL     1     -11.588  13.466  66.882  1.00  0.00    -0.346 NA 
HETATM    7  O   UNL     1     -12.105  12.557  69.694  1.00  0.00    -0.279 OA 
HETATM    8  N   UNL     1     -11.162  10.525  69.069  1.00  0.00    -0.248 N  
HETATM    9  O   UNL     1     -10.268   8.511  68.384  1.00  0.00    -0.193 OA 
HETATM   10  C   UNL     1     -11.154  13.332  65.588  1.00  0.00    -0.282 A  
HETATM   11  N   UNL     1     -10.666  12.129  65.362  1.00  0.00    -0.274 NA 
HETATM   12  C   UNL     1     -11.331   9.964  70.395  1.00  0.00    -0.307 C  
HETATM   13  C   UNL     1     -10.593   9.670  68.103  1.00  0.00    -0.226 C  
ENDROOT
BRANCH   6  14
HETATM   14  C   UNL     1     -12.150  14.668  67.465  1.00  0.00    -0.178 C  
BRANCH  14  15
HETATM   15  C   UNL     1     -11.094  15.577  68.101  1.00  0.00    -0.325 C  
HETATM   16  H   UNL     1     -10.041  17.194  67.614  1.00  0.00     0.000 HD 
HETATM   17  O   UNL     1     -10.696  16.630  67.220  1.00  0.00    -0.306 OA 
BRANCH  15  18
HETATM   18  C   UNL     1     -11.636  16.187  69.403  1.00  0.00    -0.261 C  
HETATM   19  O   UNL     1     -12.727  15.439  69.936  1.00  0.00    -0.611 OA 
HETATM   20  H   UNL     1     -13.062  15.817  70.741  1.00  0.00     0.000 HD 
ENDBRANCH  15  18
ENDBRANCH  14  15
ENDBRANCH   6  14
TORSDOF 3
ENDMDL
MODEL       65
REMARK 921   NORMALIZED FREE ENERGY PREDICTED BY IDOCK:   -4.51 KCAL/MOL
REMARK 922        TOTAL FREE ENERGY PREDICTED BY IDOCK:   -5.78 KCAL/MOL
REMARK 923 INTER-LIGAND FREE ENERGY PREDICTED BY IDOCK:   -5.38 KCAL/MOL
REMARK 924 INTRA-LIGAND FREE ENERGY PREDICTED BY IDOCK:   -0.40 KCAL/MOL
REMARK 927      BINDING AFFINITY PREDICTED BY RF-SCORE:    0.00 PKD
ROOT
HETATM    1  C   UNL     1     -13.040  11.821  71.936  1.00  0.00    -0.376 C  
HETATM    2  N   UNL     1     -12.404  12.176  70.682  1.00  0.00    -0.342 N  
HETATM    3  C   UNL     1     -12.262  13.485  70.289  1.00  0.00    -0.347 A  
HETATM    4  C   UNL     1     -11.645  13.816  69.118  1.00  0.00    -0.317 A  
HETATM    5  C   UNL     1     -11.101  12.850  68.224  1.00  0.00    -0.264 C  
HETATM    6  N   UNL     1     -11.682  15.183  69.073  1.00  0.00    -0.325 NA 
HETATM    7  O   UNL     1     -10.526  13.160  67.182  1.00  0.00    -0.245 OA 
HETATM    8  N   UNL     1     -11.295  11.537  68.660  1.00  0.00    -0.242 N  
HETATM    9  O   UNL     1     -12.029   9.968  70.184  1.00  0.00    -0.220 OA 
HETATM   10  C   UNL     1     -12.332  15.603  70.205  1.00  0.00    -0.370 A  
HETATM   11  N   UNL     1     -12.691  14.587  70.963  1.00  0.00    -0.323 NA 
HETATM   12  C   UNL     1     -10.805  10.456  67.828  1.00  0.00    -0.297 C  
HETATM   13  C   UNL     1     -11.919  11.157  69.866  1.00  0.00    -0.363 C  
ENDROOT
BRANCH   6  14
HETATM   14  C   UNL     1     -11.182  16.041  68.018  1.00  0.00    -0.303 C  
BRANCH  14  15
HETATM   15  C   UNL     1      -9.874  16.748  68.389  1.00  0.00    -0.253 C  
HETATM   16  H   UNL     1      -9.300  18.425  69.295  1.00  0.00     0.000 HD 
HETATM   17  O   UNL     1     -10.111  17.986  69.065  1.00  0.00    -0.377 OA 
BRANCH  15  18
HETATM   18  C   UNL     1      -9.017  15.840  69.285  1.00  0.00    -0.266 C  
HETATM   19  O   UNL     1      -8.339  14.833  68.539  1.00  0.00    -0.146 OA 
HETATM   20  H   UNL     1      -7.809  14.272  69.094  1.00  0.00     0.000 HD 
ENDBRANCH  15  18
ENDBRANCH  14  15
ENDBRANCH   6  14
TORSDOF 3
ENDMDL
MODEL       66
REMARK 921   NORMALIZED FREE ENERGY PREDICTED BY IDOCK:   -4.51 KCAL/MOL
REMARK 922        TOTAL FREE ENERGY PREDICTED BY IDOCK:   -5.77 KCAL/MOL
REMARK 923 INTER-LIGAND FREE ENERGY PREDICTED BY IDOCK:   -5.58 KCAL/MOL
REMARK 924 INTRA-LIGAND FREE ENERGY PREDICTED BY IDOCK:   -0.20 KCAL/MOL
REMARK 927      BINDING AFFINITY PREDICTED BY RF-SCORE:    0.00 PKD
ROOT
HETATM    1  C   UNL     1     -11.457  15.742  64.169  1.00  0.00    -0.072 C  
HETATM    2  N   UNL     1     -11.060  15.592  65.555  1.00  0.00    -0.298 N  
HETATM    3  C   UNL     1     -11.291  14.429  66.251  1.00  0.00    -0.350 A  
HETATM    4  C   UNL     1     -10.899  14.283  67.549  1.00  0.00    -0.280 A  
HETATM    5  C   UNL     1     -10.223  15.303  68.278  1.00  0.00    -0.226 C  
HETATM    6  N   UNL     1     -11.282  13.016  67.894  1.00  0.00    -0.257 NA 
HETATM    7  O   UNL     1      -9.853  15.153  69.441  1.00  0.00    -0.225 OA 
HETATM    8  N   UNL     1     -10.037  16.470  67.533  1.00  0.00    -0.261 N  
HETATM    9  O   UNL     1     -10.196  17.717  65.597  1.00  0.00    -0.593 OA 
HETATM   10  C   UNL     1     -11.899  12.472  66.797  1.00  0.00    -0.346 A  
HETATM   11  N   UNL     1     -11.913  13.312  65.782  1.00  0.00    -0.394 NA 
HETATM   12  C   UNL     1      -9.377  17.595  68.167  1.00  0.00    -0.279 C  
HETATM   13  C   UNL     1     -10.420  16.654  66.188  1.00  0.00    -0.285 C  
ENDROOT
BRANCH   6  14
HETATM   14  C   UNL     1     -11.123  12.370  69.181  1.00  0.00    -0.203 C  
BRANCH  14  15
HETATM   15  C   UNL     1     -11.866  11.033  69.277  1.00  0.00    -0.340 C  
HETATM   16  H   UNL     1     -11.470   9.096  69.049  1.00  0.00     0.000 HD 
HETATM   17  O   UNL     1     -11.010   9.925  68.990  1.00  0.00    -0.224 OA 
BRANCH  15  18
HETATM   18  C   UNL     1     -12.463  10.859  70.682  1.00  0.00    -0.369 C  
HETATM   19  O   UNL     1     -13.165   9.626  70.820  1.00  0.00    -0.574 OA 
HETATM   20  H   UNL     1     -13.534   9.518  71.689  1.00  0.00     0.000 HD 
ENDBRANCH  15  18
ENDBRANCH  14  15
ENDBRANCH   6  14
TORSDOF 3
ENDMDL
MODEL       67
REMARK 921   NORMALIZED FREE ENERGY PREDICTED BY IDOCK:   -4.49 KCAL/MOL
REMARK 922        TOTAL FREE ENERGY PREDICTED BY IDOCK:   -5.75 KCAL/MOL
REMARK 923 INTER-LIGAND FREE ENERGY PREDICTED BY IDOCK:   -5.25 KCAL/MOL
REMARK 924 INTRA-LIGAND FREE ENERGY PREDICTED BY IDOCK:   -0.50 KCAL/MOL
REMARK 927      BINDING AFFINITY PREDICTED BY RF-SCORE:    0.00 PKD
ROOT
HETATM    1  C   UNL     1     -11.035   5.937  69.671  1.00  0.00    -0.377 C  
HETATM    2  N   UNL     1     -11.250   7.336  69.990  1.00  0.00    -0.243 N  
HETATM    3  C   UNL     1     -10.624   8.341  69.291  1.00  0.00    -0.181 A  
HETATM    4  C   UNL     1     -10.843   9.656  69.581  1.00  0.00    -0.244 A  
HETATM    5  C   UNL     1     -11.728  10.089  70.609  1.00  0.00    -0.337 C  
HETATM    6  N   UNL     1     -10.072  10.348  68.688  1.00  0.00    -0.168 NA 
HETATM    7  O   UNL     1     -11.937  11.277  70.847  1.00  0.00    -0.326 OA 
HETATM    8  N   UNL     1     -12.316   9.029  71.302  1.00  0.00    -0.310 N  
HETATM    9  O   UNL     1     -12.701   6.785  71.679  1.00  0.00    -0.366 OA 
HETATM   10  C   UNL     1      -9.416   9.419  67.921  1.00  0.00    -0.132 A  
HETATM   11  N   UNL     1      -9.740   8.189  68.267  1.00  0.00    -0.157 NA 
HETATM   12  C   UNL     1     -13.225   9.336  72.390  1.00  0.00    -0.426 C  
HETATM   13  C   UNL     1     -12.121   7.660  71.027  1.00  0.00    -0.258 C  
ENDROOT
BRANCH   6  14
HETATM   14  C   UNL     1      -9.922  11.785  68.586  1.00  0.00    -0.172 C  
BRANCH  14  15
HETATM   15  C   UNL     1     -10.924  12.426  67.620  1.00  0.00    -0.236 C  
HETATM   16  H   UNL     1     -12.540  11.890  66.588  1.00  0.00     0.000 HD 
HETATM   17  O   UNL     1     -11.918  11.493  67.187  1.00  0.00    -0.581 OA 
BRANCH  15  18
HETATM   18  C   UNL     1     -11.614  13.624  68.291  1.00  0.00    -0.339 C  
HETATM   19  O   UNL     1     -11.174  13.817  69.633  1.00  0.00    -0.398 OA 
HETATM   20  H   UNL     1     -11.601  14.558  70.048  1.00  0.00     0.000 HD 
ENDBRANCH  15  18
ENDBRANCH  14  15
ENDBRANCH   6  14
TORSDOF 3
ENDMDL
MODEL       68
REMARK 921   NORMALIZED FREE ENERGY PREDICTED BY IDOCK:   -4.48 KCAL/MOL
REMARK 922        TOTAL FREE ENERGY PREDICTED BY IDOCK:   -5.74 KCAL/MOL
REMARK 923 INTER-LIGAND FREE ENERGY PREDICTED BY IDOCK:   -5.37 KCAL/MOL
REMARK 924 INTRA-LIGAND FREE ENERGY PREDICTED BY IDOCK:   -0.37 KCAL/MOL
REMARK 927      BINDING AFFINITY PREDICTED BY RF-SCORE:    0.00 PKD
ROOT
HETATM    1  C   UNL     1     -12.496  12.161  63.358  1.00  0.00    -0.512 C  
HETATM    2  N   UNL     1     -11.787  12.311  64.614  1.00  0.00    -0.371 N  
HETATM    3  C   UNL     1     -10.665  11.571  64.903  1.00  0.00    -0.297 A  
HETATM    4  C   UNL     1      -9.989  11.729  66.077  1.00  0.00    -0.229 A  
HETATM    5  C   UNL     1     -10.378  12.661  67.081  1.00  0.00    -0.231 C  
HETATM    6  N   UNL     1      -8.943  10.849  66.004  1.00  0.00    -0.180 NA 
HETATM    7  O   UNL     1      -9.748  12.812  68.126  1.00  0.00    -0.214 OA 
HETATM    8  N   UNL     1     -11.536  13.367  66.747  1.00  0.00    -0.346 N  
HETATM    9  O   UNL     1     -13.263  13.920  65.319  1.00  0.00    -0.774 OA 
HETATM   10  C   UNL     1      -9.053  10.197  64.802  1.00  0.00    -0.222 A  
HETATM   11  N   UNL     1     -10.092  10.623  64.112  1.00  0.00    -0.347 NA 
HETATM   12  C   UNL     1     -12.051  14.335  67.696  1.00  0.00    -0.297 C  
HETATM   13  C   UNL     1     -12.256  13.238  65.542  1.00  0.00    -0.457 C  
ENDROOT
BRANCH   6  14
HETATM   14  C   UNL     1      -7.932  10.601  67.011  1.00  0.00    -0.121 C  
BRANCH  14  15
HETATM   15  C   UNL     1      -6.756  11.580  66.933  1.00  0.00    -0.139 C  
HETATM   16  H   UNL     1      -5.565  12.571  68.184  1.00  0.00     0.000 HD 
HETATM   17  O   UNL     1      -6.294  11.964  68.232  1.00  0.00    -0.049 OA 
BRANCH  15  18
HETATM   18  C   UNL     1      -5.593  10.950  66.151  1.00  0.00    -0.134 C  
HETATM   19  O   UNL     1      -5.728  11.134  64.744  1.00  0.00    -0.448 OA 
HETATM   20  H   UNL     1      -5.009  10.745  64.260  1.00  0.00     0.000 HD 
ENDBRANCH  15  18
ENDBRANCH  14  15
ENDBRANCH   6  14
TORSDOF 3
ENDMDL
MODEL       69
REMARK 921   NORMALIZED FREE ENERGY PREDICTED BY IDOCK:   -4.48 KCAL/MOL
REMARK 922        TOTAL FREE ENERGY PREDICTED BY IDOCK:   -5.74 KCAL/MOL
REMARK 923 INTER-LIGAND FREE ENERGY PREDICTED BY IDOCK:   -5.86 KCAL/MOL
REMARK 924 INTRA-LIGAND FREE ENERGY PREDICTED BY IDOCK:    0.12 KCAL/MOL
REMARK 927      BINDING AFFINITY PREDICTED BY RF-SCORE:    0.00 PKD
ROOT
HETATM    1  C   UNL     1     -10.280   9.231  66.679  1.00  0.00    -0.253 C  
HETATM    2  N   UNL     1      -9.801  10.526  67.122  1.00  0.00    -0.171 N  
HETATM    3  C   UNL     1     -10.528  11.675  66.917  1.00  0.00    -0.227 A  
HETATM    4  C   UNL     1     -10.083  12.889  67.353  1.00  0.00    -0.223 A  
HETATM    5  C   UNL     1      -8.855  13.063  68.050  1.00  0.00    -0.191 C  
HETATM    6  N   UNL     1     -11.058  13.775  66.985  1.00  0.00    -0.297 NA 
HETATM    7  O   UNL     1      -8.474  14.158  68.460  1.00  0.00    -0.162 OA 
HETATM    8  N   UNL     1      -8.146  11.870  68.209  1.00  0.00    -0.149 N  
HETATM    9  O   UNL     1      -7.892   9.588  67.982  1.00  0.00    -0.087 OA 
HETATM   10  C   UNL     1     -12.028  13.056  66.333  1.00  0.00    -0.402 A  
HETATM   11  N   UNL     1     -11.728  11.773  66.283  1.00  0.00    -0.470 NA 
HETATM   12  C   UNL     1      -6.865  11.914  68.887  1.00  0.00    -0.103 C  
HETATM   13  C   UNL     1      -8.576  10.597  67.780  1.00  0.00    -0.123 C  
ENDROOT
BRANCH   6  14
HETATM   14  C   UNL     1     -11.064  15.209  67.189  1.00  0.00    -0.335 C  
BRANCH  14  15
HETATM   15  C   UNL     1     -10.535  15.989  65.981  1.00  0.00    -0.345 C  
HETATM   16  H   UNL     1      -8.787  16.351  65.100  1.00  0.00     0.000 HD 
HETATM   17  O   UNL     1      -9.116  15.868  65.848  1.00  0.00    -0.336 OA 
BRANCH  15  18
HETATM   18  C   UNL     1     -11.206  15.489  64.692  1.00  0.00    -0.371 C  
HETATM   19  O   UNL     1     -11.574  16.560  63.826  1.00  0.00    -1.617 OA 
HETATM   20  H   UNL     1     -11.989  16.251  63.029  1.00  0.00     0.000 HD 
ENDBRANCH  15  18
ENDBRANCH  14  15
ENDBRANCH   6  14
TORSDOF 3
ENDMDL
MODEL       70
REMARK 921   NORMALIZED FREE ENERGY PREDICTED BY IDOCK:   -4.46 KCAL/MOL
REMARK 922        TOTAL FREE ENERGY PREDICTED BY IDOCK:   -5.72 KCAL/MOL
REMARK 923 INTER-LIGAND FREE ENERGY PREDICTED BY IDOCK:   -5.10 KCAL/MOL
REMARK 924 INTRA-LIGAND FREE ENERGY PREDICTED BY IDOCK:   -0.61 KCAL/MOL
REMARK 927      BINDING AFFINITY PREDICTED BY RF-SCORE:    0.00 PKD
ROOT
HETATM    1  C   UNL     1      -6.389  18.127  65.693  1.00  0.00    -0.253 C  
HETATM    2  N   UNL     1      -7.653  17.820  66.335  1.00  0.00    -0.255 N  
HETATM    3  C   UNL     1      -7.930  16.565  66.822  1.00  0.00    -0.255 A  
HETATM    4  C   UNL     1      -9.112  16.285  67.443  1.00  0.00    -0.195 A  
HETATM    5  C   UNL     1     -10.137  17.253  67.640  1.00  0.00    -0.313 C  
HETATM    6  N   UNL     1      -9.022  14.966  67.794  1.00  0.00    -0.174 NA 
HETATM    7  O   UNL     1     -11.189  16.996  68.221  1.00  0.00    -0.267 OA 
HETATM    8  N   UNL     1      -9.815  18.502  67.103  1.00  0.00    -0.307 N  
HETATM    9  O   UNL     1      -8.391  19.972  66.037  1.00  0.00    -0.330 OA 
HETATM   10  C   UNL     1      -7.803  14.516  67.354  1.00  0.00    -0.199 A  
HETATM   11  N   UNL     1      -7.118  15.474  66.762  1.00  0.00    -0.109 NA 
HETATM   12  C   UNL     1     -10.785  19.573  67.219  1.00  0.00    -0.484 C  
HETATM   13  C   UNL     1      -8.602  18.831  66.464  1.00  0.00    -0.305 C  
ENDROOT
BRANCH   6  14
HETATM   14  C   UNL     1     -10.028  14.163  68.460  1.00  0.00    -0.235 C  
BRANCH  14  15
HETATM   15  C   UNL     1     -10.547  13.011  67.593  1.00  0.00    -0.224 C  
HETATM   16  H   UNL     1     -11.314  11.192  67.847  1.00  0.00     0.000 HD 
HETATM   17  O   UNL     1     -10.992  11.907  68.384  1.00  0.00    -0.206 OA 
BRANCH  15  18
HETATM   18  C   UNL     1     -11.705  13.496  66.706  1.00  0.00    -0.391 C  
HETATM   19  O   UNL     1     -12.523  14.457  67.367  1.00  0.00    -0.603 OA 
HETATM   20  H   UNL     1     -13.239  14.757  66.819  1.00  0.00     0.000 HD 
ENDBRANCH  15  18
ENDBRANCH  14  15
ENDBRANCH   6  14
TORSDOF 3
ENDMDL
MODEL       71
REMARK 921   NORMALIZED FREE ENERGY PREDICTED BY IDOCK:   -4.44 KCAL/MOL
REMARK 922        TOTAL FREE ENERGY PREDICTED BY IDOCK:   -5.69 KCAL/MOL
REMARK 923 INTER-LIGAND FREE ENERGY PREDICTED BY IDOCK:   -5.57 KCAL/MOL
REMARK 924 INTRA-LIGAND FREE ENERGY PREDICTED BY IDOCK:   -0.12 KCAL/MOL
REMARK 927      BINDING AFFINITY PREDICTED BY RF-SCORE:    0.00 PKD
ROOT
HETATM    1  C   UNL     1      -8.461  16.122  66.471  1.00  0.00    -0.311 C  
HETATM    2  N   UNL     1      -9.432  15.081  66.196  1.00  0.00    -0.305 N  
HETATM    3  C   UNL     1      -9.350  13.842  66.786  1.00  0.00    -0.275 A  
HETATM    4  C   UNL     1     -10.277  12.871  66.540  1.00  0.00    -0.259 A  
HETATM    5  C   UNL     1     -11.389  13.058  65.671  1.00  0.00    -0.301 C  
HETATM    6  N   UNL     1      -9.879  11.804  67.298  1.00  0.00    -0.185 NA 
HETATM    7  O   UNL     1     -12.231  12.184  65.474  1.00  0.00    -0.549 OA 
HETATM    8  N   UNL     1     -11.409  14.323  65.079  1.00  0.00    -0.348 N  
HETATM    9  O   UNL     1     -10.583  16.455  64.763  1.00  0.00    -0.676 OA 
HETATM   10  C   UNL     1      -8.730  12.178  67.946  1.00  0.00    -0.176 A  
HETATM   11  N   UNL     1      -8.390  13.418  67.653  1.00  0.00    -0.165 NA 
HETATM   12  C   UNL     1     -12.482  14.635  64.155  1.00  0.00    -0.147 C  
HETATM   13  C   UNL     1     -10.476  15.354  65.316  1.00  0.00    -0.415 C  
ENDROOT
BRANCH   6  14
HETATM   14  C   UNL     1     -10.508  10.501  67.379  1.00  0.00    -0.244 C  
BRANCH  14  15
HETATM   15  C   UNL     1     -10.150   9.588  66.202  1.00  0.00    -0.256 C  
HETATM   16  H   UNL     1      -8.723   9.438  64.822  1.00  0.00     0.000 HD 
HETATM   17  O   UNL     1      -8.945  10.004  65.552  1.00  0.00    -0.156 OA 
BRANCH  15  18
HETATM   18  C   UNL     1      -9.988   8.139  66.685  1.00  0.00    -0.269 C  
HETATM   19  O   UNL     1     -11.119   7.689  67.428  1.00  0.00    -0.537 OA 
HETATM   20  H   UNL     1     -11.019   6.793  67.726  1.00  0.00     0.000 HD 
ENDBRANCH  15  18
ENDBRANCH  14  15
ENDBRANCH   6  14
TORSDOF 3
ENDMDL
MODEL       72
REMARK 921   NORMALIZED FREE ENERGY PREDICTED BY IDOCK:   -4.39 KCAL/MOL
REMARK 922        TOTAL FREE ENERGY PREDICTED BY IDOCK:   -5.63 KCAL/MOL
REMARK 923 INTER-LIGAND FREE ENERGY PREDICTED BY IDOCK:   -5.41 KCAL/MOL
REMARK 924 INTRA-LIGAND FREE ENERGY PREDICTED BY IDOCK:   -0.22 KCAL/MOL
REMARK 927      BINDING AFFINITY PREDICTED BY RF-SCORE:    0.00 PKD
ROOT
HETATM    1  C   UNL     1     -10.613   8.275  68.986  1.00  0.00    -0.150 C  
HETATM    2  N   UNL     1     -10.214   8.809  67.698  1.00  0.00    -0.223 N  
HETATM    3  C   UNL     1     -10.650  10.036  67.258  1.00  0.00    -0.257 A  
HETATM    4  C   UNL     1     -10.256  10.544  66.055  1.00  0.00    -0.245 A  
HETATM    5  C   UNL     1      -9.372   9.860  65.173  1.00  0.00    -0.258 C  
HETATM    6  N   UNL     1     -10.871  11.763  65.968  1.00  0.00    -0.287 NA 
HETATM    7  O   UNL     1      -9.005  10.337  64.100  1.00  0.00    -0.197 OA 
HETATM    8  N   UNL     1      -8.981   8.610  65.657  1.00  0.00    -0.194 N  
HETATM    9  O   UNL     1      -8.947   6.948  67.257  1.00  0.00    -0.117 OA 
HETATM   10  C   UNL     1     -11.614  11.919  67.110  1.00  0.00    -0.290 A  
HETATM   11  N   UNL     1     -11.492  10.881  67.913  1.00  0.00    -0.487 NA 
HETATM   12  C   UNL     1      -8.095   7.801  64.842  1.00  0.00    -0.136 C  
HETATM   13  C   UNL     1      -9.359   8.056  66.897  1.00  0.00    -0.164 C  
ENDROOT
BRANCH   6  14
HETATM   14  C   UNL     1     -10.805  12.704  64.868  1.00  0.00    -0.298 C  
BRANCH  14  15
HETATM   15  C   UNL     1     -11.147  14.138  65.284  1.00  0.00    -0.331 C  
HETATM   16  H   UNL     1     -10.320  15.946  65.195  1.00  0.00     0.000 HD 
HETATM   17  O   UNL     1     -10.108  15.057  64.937  1.00  0.00    -0.320 OA 
BRANCH  15  18
HETATM   18  C   UNL     1     -12.458  14.584  64.618  1.00  0.00    -0.321 C  
HETATM   19  O   UNL     1     -12.501  14.247  63.234  1.00  0.00    -1.133 OA 
HETATM   20  H   UNL     1     -13.311  14.523  62.822  1.00  0.00     0.000 HD 
ENDBRANCH  15  18
ENDBRANCH  14  15
ENDBRANCH   6  14
TORSDOF 3
ENDMDL
MODEL       73
REMARK 921   NORMALIZED FREE ENERGY PREDICTED BY IDOCK:   -4.39 KCAL/MOL
REMARK 922        TOTAL FREE ENERGY PREDICTED BY IDOCK:   -5.63 KCAL/MOL
REMARK 923 INTER-LIGAND FREE ENERGY PREDICTED BY IDOCK:   -5.00 KCAL/MOL
REMARK 924 INTRA-LIGAND FREE ENERGY PREDICTED BY IDOCK:   -0.63 KCAL/MOL
REMARK 927      BINDING AFFINITY PREDICTED BY RF-SCORE:    0.00 PKD
ROOT
HETATM    1  C   UNL     1     -11.717  15.994  64.212  1.00  0.00    -0.081 C  
HETATM    2  N   UNL     1     -10.823  15.239  65.069  1.00  0.00    -0.419 N  
HETATM    3  C   UNL     1     -10.927  13.874  65.198  1.00  0.00    -0.350 A  
HETATM    4  C   UNL     1     -10.072  13.165  65.990  1.00  0.00    -0.286 A  
HETATM    5  C   UNL     1      -9.015  13.767  66.730  1.00  0.00    -0.185 C  
HETATM    6  N   UNL     1     -10.470  11.862  65.861  1.00  0.00    -0.249 NA 
HETATM    7  O   UNL     1      -8.235  13.116  67.422  1.00  0.00    -0.171 OA 
HETATM    8  N   UNL     1      -8.971  15.155  66.582  1.00  0.00    -0.270 N  
HETATM    9  O   UNL     1      -9.706  17.148  65.679  1.00  0.00    -0.545 OA 
HETATM   10  C   UNL     1     -11.551  11.856  65.017  1.00  0.00    -0.214 A  
HETATM   11  N   UNL     1     -11.845  13.070  64.597  1.00  0.00    -0.352 NA 
HETATM   12  C   UNL     1      -7.951  15.893  67.302  1.00  0.00    -0.182 C  
HETATM   13  C   UNL     1      -9.830  15.921  65.768  1.00  0.00    -0.345 C  
ENDROOT
BRANCH   6  14
HETATM   14  C   UNL     1      -9.906  10.702  66.520  1.00  0.00    -0.204 C  
BRANCH  14  15
HETATM   15  C   UNL     1     -10.876  10.039  67.503  1.00  0.00    -0.265 C  
HETATM   16  H   UNL     1     -11.089   8.287  68.424  1.00  0.00     0.000 HD 
HETATM   17  O   UNL     1     -10.487   8.698  67.814  1.00  0.00    -0.235 OA 
BRANCH  15  18
HETATM   18  C   UNL     1     -10.955  10.856  68.802  1.00  0.00    -0.237 C  
HETATM   19  O   UNL     1      -9.670  11.281  69.250  1.00  0.00    -0.409 OA 
HETATM   20  H   UNL     1      -9.719  11.786  70.053  1.00  0.00     0.000 HD 
ENDBRANCH  15  18
ENDBRANCH  14  15
ENDBRANCH   6  14
TORSDOF 3
ENDMDL
MODEL       74
REMARK 921   NORMALIZED FREE ENERGY PREDICTED BY IDOCK:   -4.39 KCAL/MOL
REMARK 922        TOTAL FREE ENERGY PREDICTED BY IDOCK:   -5.63 KCAL/MOL
REMARK 923 INTER-LIGAND FREE ENERGY PREDICTED BY IDOCK:   -5.02 KCAL/MOL
REMARK 924 INTRA-LIGAND FREE ENERGY PREDICTED BY IDOCK:   -0.61 KCAL/MOL
REMARK 927      BINDING AFFINITY PREDICTED BY RF-SCORE:    0.00 PKD
ROOT
HETATM    1  C   UNL     1      -7.082   9.846  69.061  1.00  0.00    -0.068 C  
HETATM    2  N   UNL     1      -8.498  10.153  69.018  1.00  0.00    -0.140 N  
HETATM    3  C   UNL     1      -9.071  10.771  67.931  1.00  0.00    -0.150 A  
HETATM    4  C   UNL     1     -10.408  11.041  67.886  1.00  0.00    -0.186 A  
HETATM    5  C   UNL     1     -11.306  10.705  68.938  1.00  0.00    -0.274 C  
HETATM    6  N   UNL     1     -10.606  11.637  66.671  1.00  0.00    -0.233 NA 
HETATM    7  O   UNL     1     -12.513  10.931  68.877  1.00  0.00    -0.431 OA 
HETATM    8  N   UNL     1     -10.668  10.104  70.026  1.00  0.00    -0.288 N  
HETATM    9  O   UNL     1      -8.815   9.247  71.102  1.00  0.00    -0.257 OA 
HETATM   10  C   UNL     1      -9.382  11.712  66.056  1.00  0.00    -0.227 A  
HETATM   11  N   UNL     1      -8.432  11.187  66.804  1.00  0.00    -0.147 NA 
HETATM   12  C   UNL     1     -11.470   9.731  71.175  1.00  0.00    -0.398 C  
HETATM   13  C   UNL     1      -9.293   9.802  70.106  1.00  0.00    -0.215 C  
ENDROOT
BRANCH   6  14
HETATM   14  C   UNL     1     -11.853  12.145  66.135  1.00  0.00    -0.254 C  
BRANCH  14  15
HETATM   15  C   UNL     1     -11.856  13.668  65.966  1.00  0.00    -0.385 C  
HETATM   16  H   UNL     1     -12.966  15.059  65.073  1.00  0.00     0.000 HD 
HETATM   17  O   UNL     1     -12.963  14.114  65.178  1.00  0.00    -0.729 OA 
BRANCH  15  18
HETATM   18  C   UNL     1     -11.907  14.353  67.340  1.00  0.00    -0.400 C  
HETATM   19  O   UNL     1     -10.612  14.497  67.919  1.00  0.00    -0.240 OA 
HETATM   20  H   UNL     1     -10.643  14.920  68.768  1.00  0.00     0.000 HD 
ENDBRANCH  15  18
ENDBRANCH  14  15
ENDBRANCH   6  14
TORSDOF 3
ENDMDL
MODEL       75
REMARK 921   NORMALIZED FREE ENERGY PREDICTED BY IDOCK:   -4.38 KCAL/MOL
REMARK 922        TOTAL FREE ENERGY PREDICTED BY IDOCK:   -5.62 KCAL/MOL
REMARK 923 INTER-LIGAND FREE ENERGY PREDICTED BY IDOCK:   -5.38 KCAL/MOL
REMARK 924 INTRA-LIGAND FREE ENERGY PREDICTED BY IDOCK:   -0.24 KCAL/MOL
REMARK 927      BINDING AFFINITY PREDICTED BY RF-SCORE:    0.00 PKD
ROOT
HETATM    1  C   UNL     1     -10.930   9.746  67.978  1.00  0.00    -0.180 C  
HETATM    2  N   UNL     1     -11.007  11.078  67.410  1.00  0.00    -0.274 N  
HETATM    3  C   UNL     1     -11.358  12.168  68.170  1.00  0.00    -0.293 A  
HETATM    4  C   UNL     1     -11.410  13.423  67.637  1.00  0.00    -0.290 A  
HETATM    5  C   UNL     1     -11.104  13.704  66.276  1.00  0.00    -0.301 C  
HETATM    6  N   UNL     1     -11.779  14.233  68.677  1.00  0.00    -0.326 NA 
HETATM    7  O   UNL     1     -11.131  14.843  65.811  1.00  0.00    -0.331 OA 
HETATM    8  N   UNL     1     -10.779  12.560  65.545  1.00  0.00    -0.265 N  
HETATM    9  O   UNL     1     -10.388  10.294  65.345  1.00  0.00    -0.269 OA 
HETATM   10  C   UNL     1     -11.946  13.427  69.773  1.00  0.00    -0.330 A  
HETATM   11  N   UNL     1     -11.692  12.165  69.490  1.00  0.00    -0.321 NA 
HETATM   12  C   UNL     1     -10.466  12.707  64.137  1.00  0.00    -0.413 C  
HETATM   13  C   UNL     1     -10.706  11.250  66.061  1.00  0.00    -0.242 C  
ENDROOT
BRANCH   6  14
HETATM   14  C   UNL     1     -12.003  15.664  68.639  1.00  0.00    -0.182 C  
BRANCH  14  15
HETATM   15  C   UNL     1     -10.768  16.476  69.042  1.00  0.00    -0.332 C  
HETATM   16  H   UNL     1      -8.800  16.215  69.175  1.00  0.00     0.000 HD 
HETATM   17  O   UNL     1      -9.566  15.711  68.925  1.00  0.00    -0.198 OA 
BRANCH  15  18
HETATM   18  C   UNL     1     -10.653  17.734  68.166  1.00  0.00    -0.344 C  
HETATM   19  O   UNL     1     -10.340  18.896  68.931  1.00  0.00    -0.488 OA 
HETATM   20  H   UNL     1     -10.268  19.673  68.390  1.00  0.00     0.000 HD 
ENDBRANCH  15  18
ENDBRANCH  14  15
ENDBRANCH   6  14
TORSDOF 3
ENDMDL
MODEL       76
REMARK 921   NORMALIZED FREE ENERGY PREDICTED BY IDOCK:   -4.35 KCAL/MOL
REMARK 922        TOTAL FREE ENERGY PREDICTED BY IDOCK:   -5.58 KCAL/MOL
REMARK 923 INTER-LIGAND FREE ENERGY PREDICTED BY IDOCK:   -5.33 KCAL/MOL
REMARK 924 INTRA-LIGAND FREE ENERGY PREDICTED BY IDOCK:   -0.25 KCAL/MOL
REMARK 927      BINDING AFFINITY PREDICTED BY RF-SCORE:    0.00 PKD
ROOT
HETATM    1  C   UNL     1     -12.443   8.686  72.126  1.00  0.00    -0.389 C  
HETATM    2  N   UNL     1     -11.745   8.993  70.893  1.00  0.00    -0.284 N  
HETATM    3  C   UNL     1     -11.742  10.260  70.360  1.00  0.00    -0.319 A  
HETATM    4  C   UNL     1     -11.067  10.549  69.210  1.00  0.00    -0.246 A  
HETATM    5  C   UNL     1     -10.318   9.582  68.482  1.00  0.00    -0.207 C  
HETATM    6  N   UNL     1     -11.282  11.884  69.001  1.00  0.00    -0.242 NA 
HETATM    7  O   UNL     1      -9.694   9.859  67.459  1.00  0.00    -0.153 OA 
HETATM    8  N   UNL     1     -10.376   8.308  69.053  1.00  0.00    -0.221 N  
HETATM    9  O   UNL     1     -11.035   6.821  70.690  1.00  0.00    -0.240 OA 
HETATM   10  C   UNL     1     -12.085  12.325  70.022  1.00  0.00    -0.273 A  
HETATM   11  N   UNL     1     -12.376  11.354  70.864  1.00  0.00    -0.392 NA 
HETATM   12  C   UNL     1      -9.670   7.226  68.396  1.00  0.00    -0.148 C  
HETATM   13  C   UNL     1     -11.054   7.973  70.243  1.00  0.00    -0.224 C  
ENDROOT
BRANCH   6  14
HETATM   14  C   UNL     1     -10.803  12.689  67.895  1.00  0.00    -0.219 C  
BRANCH  14  15
HETATM   15  C   UNL     1     -11.934  13.368  67.115  1.00  0.00    -0.366 C  
HETATM   16  H   UNL     1     -12.420  15.197  66.498  1.00  0.00     0.000 HD 
HETATM   17  O   UNL     1     -11.719  14.776  66.982  1.00  0.00    -0.368 OA 
BRANCH  15  18
HETATM   18  C   UNL     1     -12.062  12.743  65.717  1.00  0.00    -0.448 C  
HETATM   19  O   UNL     1     -12.574  13.666  64.759  1.00  0.00    -0.590 OA 
HETATM   20  H   UNL     1     -12.653  13.280  63.895  1.00  0.00     0.000 HD 
ENDBRANCH  15  18
ENDBRANCH  14  15
ENDBRANCH   6  14
TORSDOF 3
ENDMDL
MODEL       77
REMARK 921   NORMALIZED FREE ENERGY PREDICTED BY IDOCK:   -4.33 KCAL/MOL
REMARK 922        TOTAL FREE ENERGY PREDICTED BY IDOCK:   -5.57 KCAL/MOL
REMARK 923 INTER-LIGAND FREE ENERGY PREDICTED BY IDOCK:   -5.14 KCAL/MOL
REMARK 924 INTRA-LIGAND FREE ENERGY PREDICTED BY IDOCK:   -0.42 KCAL/MOL
REMARK 927      BINDING AFFINITY PREDICTED BY RF-SCORE:    0.00 PKD
ROOT
HETATM    1  C   UNL     1     -10.066  17.493  65.981  1.00  0.00    -0.260 C  
HETATM    2  N   UNL     1     -10.315  16.077  65.798  1.00  0.00    -0.358 N  
HETATM    3  C   UNL     1      -9.767  15.133  66.634  1.00  0.00    -0.258 A  
HETATM    4  C   UNL     1     -10.019  13.802  66.471  1.00  0.00    -0.288 A  
HETATM    5  C   UNL     1     -10.861  13.289  65.444  1.00  0.00    -0.291 C  
HETATM    6  N   UNL     1      -9.325  13.185  67.476  1.00  0.00    -0.199 NA 
HETATM    7  O   UNL     1     -11.101  12.089  65.320  1.00  0.00    -0.303 OA 
HETATM    8  N   UNL     1     -11.370  14.287  64.609  1.00  0.00    -0.378 N  
HETATM    9  O   UNL     1     -11.648  16.489  63.977  1.00  0.00    -1.154 OA 
HETATM   10  C   UNL     1      -8.679  14.170  68.179  1.00  0.00    -0.181 A  
HETATM   11  N   UNL     1      -8.936  15.365  67.687  1.00  0.00    -0.179 NA 
HETATM   12  C   UNL     1     -12.227  13.894  63.508  1.00  0.00    -0.080 C  
HETATM   13  C   UNL     1     -11.139  15.671  64.751  1.00  0.00    -0.412 C  
ENDROOT
BRANCH   6  14
HETATM   14  C   UNL     1      -9.235  11.763  67.737  1.00  0.00    -0.181 C  
BRANCH  14  15
HETATM   15  C   UNL     1      -8.006  11.383  68.570  1.00  0.00    -0.143 C  
HETATM   16  H   UNL     1      -7.582  10.272  70.166  1.00  0.00     0.000 HD 
HETATM   17  O   UNL     1      -8.344  10.507  69.649  1.00  0.00    -0.119 OA 
BRANCH  15  18
HETATM   18  C   UNL     1      -6.953  10.704  67.681  1.00  0.00    -0.079 C  
HETATM   19  O   UNL     1      -6.638  11.482  66.528  1.00  0.00    -0.277 OA 
HETATM   20  H   UNL     1      -5.987  11.062  65.979  1.00  0.00     0.000 HD 
ENDBRANCH  15  18
ENDBRANCH  14  15
ENDBRANCH   6  14
TORSDOF 3
ENDMDL
MODEL       78
REMARK 921   NORMALIZED FREE ENERGY PREDICTED BY IDOCK:   -4.33 KCAL/MOL
REMARK 922        TOTAL FREE ENERGY PREDICTED BY IDOCK:   -5.56 KCAL/MOL
REMARK 923 INTER-LIGAND FREE ENERGY PREDICTED BY IDOCK:   -5.24 KCAL/MOL
REMARK 924 INTRA-LIGAND FREE ENERGY PREDICTED BY IDOCK:   -0.31 KCAL/MOL
REMARK 927      BINDING AFFINITY PREDICTED BY RF-SCORE:    0.00 PKD
ROOT
HETATM    1  C   UNL     1     -11.098   9.254  71.458  1.00  0.00    -0.373 C  
HETATM    2  N   UNL     1     -10.900   9.332  70.024  1.00  0.00    -0.233 N  
HETATM    3  C   UNL     1     -11.225  10.461  69.310  1.00  0.00    -0.248 A  
HETATM    4  C   UNL     1     -11.019  10.537  67.963  1.00  0.00    -0.290 A  
HETATM    5  C   UNL     1     -10.455   9.476  67.200  1.00  0.00    -0.253 C  
HETATM    6  N   UNL     1     -11.444  11.789  67.612  1.00  0.00    -0.375 NA 
HETATM    7  O   UNL     1     -10.252   9.564  65.990  1.00  0.00    -0.272 OA 
HETATM    8  N   UNL     1     -10.168   8.346  67.970  1.00  0.00    -0.203 N  
HETATM    9  O   UNL     1     -10.055   7.199  69.969  1.00  0.00    -0.185 OA 
HETATM   10  C   UNL     1     -11.899  12.394  68.756  1.00  0.00    -0.311 A  
HETATM   11  N   UNL     1     -11.771  11.605  69.804  1.00  0.00    -0.331 NA 
HETATM   12  C   UNL     1      -9.607   7.185  67.307  1.00  0.00    -0.143 C  
HETATM   13  C   UNL     1     -10.358   8.233  69.362  1.00  0.00    -0.222 C  
ENDROOT
BRANCH   6  14
HETATM   14  C   UNL     1     -11.466  12.369  66.285  1.00  0.00    -0.371 C  
BRANCH  14  15
HETATM   15  C   UNL     1     -10.330  13.370  66.048  1.00  0.00    -0.297 C  
HETATM   16  H   UNL     1      -8.346  13.422  66.191  1.00  0.00     0.000 HD 
HETATM   17  O   UNL     1      -9.050  12.802  66.337  1.00  0.00    -0.192 OA 
BRANCH  15  18
HETATM   18  C   UNL     1     -10.348  13.858  64.591  1.00  0.00    -0.339 C  
HETATM   19  O   UNL     1     -11.482  14.675  64.310  1.00  0.00    -0.607 OA 
HETATM   20  H   UNL     1     -11.493  14.976  63.409  1.00  0.00     0.000 HD 
ENDBRANCH  15  18
ENDBRANCH  14  15
ENDBRANCH   6  14
TORSDOF 3
ENDMDL
MODEL       79
REMARK 921   NORMALIZED FREE ENERGY PREDICTED BY IDOCK:   -4.31 KCAL/MOL
REMARK 922        TOTAL FREE ENERGY PREDICTED BY IDOCK:   -5.54 KCAL/MOL
REMARK 923 INTER-LIGAND FREE ENERGY PREDICTED BY IDOCK:   -5.25 KCAL/MOL
REMARK 924 INTRA-LIGAND FREE ENERGY PREDICTED BY IDOCK:   -0.29 KCAL/MOL
REMARK 927      BINDING AFFINITY PREDICTED BY RF-SCORE:    0.00 PKD
ROOT
HETATM    1  C   UNL     1     -11.532  15.926  69.278  1.00  0.00    -0.374 C  
HETATM    2  N   UNL     1     -11.789  14.527  69.557  1.00  0.00    -0.310 N  
HETATM    3  C   UNL     1     -11.371  13.531  68.707  1.00  0.00    -0.290 A  
HETATM    4  C   UNL     1     -11.597  12.215  68.982  1.00  0.00    -0.319 A  
HETATM    5  C   UNL     1     -12.268  11.769  70.156  1.00  0.00    -0.263 C  
HETATM    6  N   UNL     1     -11.038  11.534  67.936  1.00  0.00    -0.237 NA 
HETATM    7  O   UNL     1     -12.446  10.578  70.407  1.00  0.00    -0.309 OA 
HETATM    8  N   UNL     1     -12.693  12.821  70.971  1.00  0.00    -0.302 N  
HETATM    9  O   UNL     1     -12.865  15.057  71.513  1.00  0.00    -0.303 OA 
HETATM   10  C   UNL     1     -10.522  12.471  67.078  1.00  0.00    -0.231 A  
HETATM   11  N   UNL     1     -10.709  13.695  67.528  1.00  0.00    -0.258 NA 
HETATM   12  C   UNL     1     -13.410  12.502  72.191  1.00  0.00    -0.435 C  
HETATM   13  C   UNL     1     -12.471  14.191  70.724  1.00  0.00    -0.366 C  
ENDROOT
BRANCH   6  14
HETATM   14  C   UNL     1     -11.026  10.100  67.727  1.00  0.00    -0.277 C  
BRANCH  14  15
HETATM   15  C   UNL     1      -9.614   9.530  67.558  1.00  0.00    -0.144 C  
HETATM   16  H   UNL     1      -8.344   8.385  68.577  1.00  0.00     0.000 HD 
HETATM   17  O   UNL     1      -9.220   8.738  68.681  1.00  0.00    -0.141 OA 
BRANCH  15  18
HETATM   18  C   UNL     1      -9.537   8.673  66.284  1.00  0.00    -0.252 C  
HETATM   19  O   UNL     1      -9.761   9.440  65.104  1.00  0.00    -0.443 OA 
HETATM   20  H   UNL     1      -9.713   8.910  64.317  1.00  0.00     0.000 HD 
ENDBRANCH  15  18
ENDBRANCH  14  15
ENDBRANCH   6  14
TORSDOF 3
ENDMDL
MODEL       80
REMARK 921   NORMALIZED FREE ENERGY PREDICTED BY IDOCK:   -4.29 KCAL/MOL
REMARK 922        TOTAL FREE ENERGY PREDICTED BY IDOCK:   -5.52 KCAL/MOL
REMARK 923 INTER-LIGAND FREE ENERGY PREDICTED BY IDOCK:   -4.92 KCAL/MOL
REMARK 924 INTRA-LIGAND FREE ENERGY PREDICTED BY IDOCK:   -0.60 KCAL/MOL
REMARK 927      BINDING AFFINITY PREDICTED BY RF-SCORE:    0.00 PKD
ROOT
HETATM    1  C   UNL     1     -12.143  14.064  69.059  1.00  0.00    -0.323 C  
HETATM    2  N   UNL     1     -11.685  13.208  67.982  1.00  0.00    -0.338 N  
HETATM    3  C   UNL     1     -11.395  11.880  68.188  1.00  0.00    -0.288 A  
HETATM    4  C   UNL     1     -10.983  11.073  67.168  1.00  0.00    -0.283 A  
HETATM    5  C   UNL     1     -10.826  11.529  65.828  1.00  0.00    -0.262 C  
HETATM    6  N   UNL     1     -10.806   9.843  67.740  1.00  0.00    -0.278 NA 
HETATM    7  O   UNL     1     -10.476  10.788  64.912  1.00  0.00    -0.311 OA 
HETATM    8  N   UNL     1     -11.108  12.889  65.681  1.00  0.00    -0.275 N  
HETATM    9  O   UNL     1     -11.793  14.942  66.484  1.00  0.00    -0.279 OA 
HETATM   10  C   UNL     1     -11.102   9.975  69.073  1.00  0.00    -0.180 A  
HETATM   11  N   UNL     1     -11.468  11.206  69.368  1.00  0.00    -0.269 NA 
HETATM   12  C   UNL     1     -10.967  13.484  64.367  1.00  0.00    -0.384 C  
HETATM   13  C   UNL     1     -11.545  13.752  66.708  1.00  0.00    -0.370 C  
ENDROOT
BRANCH   6  14
HETATM   14  C   UNL     1     -10.346   8.631  67.093  1.00  0.00    -0.299 C  
BRANCH  14  15
HETATM   15  C   UNL     1      -8.870   8.326  67.370  1.00  0.00    -0.131 C  
HETATM   16  H   UNL     1      -7.794   6.962  68.341  1.00  0.00     0.000 HD 
HETATM   17  O   UNL     1      -8.709   7.151  68.169  1.00  0.00    -0.128 OA 
BRANCH  15  18
HETATM   18  C   UNL     1      -8.110   8.144  66.047  1.00  0.00    -0.112 C  
HETATM   19  O   UNL     1      -8.918   8.453  64.914  1.00  0.00    -0.410 OA 
HETATM   20  H   UNL     1      -8.447   8.340  64.097  1.00  0.00     0.000 HD 
ENDBRANCH  15  18
ENDBRANCH  14  15
ENDBRANCH   6  14
TORSDOF 3
ENDMDL
MODEL       81
REMARK 921   NORMALIZED FREE ENERGY PREDICTED BY IDOCK:   -4.28 KCAL/MOL
REMARK 922        TOTAL FREE ENERGY PREDICTED BY IDOCK:   -5.50 KCAL/MOL
REMARK 923 INTER-LIGAND FREE ENERGY PREDICTED BY IDOCK:   -5.46 KCAL/MOL
REMARK 924 INTRA-LIGAND FREE ENERGY PREDICTED BY IDOCK:   -0.04 KCAL/MOL
REMARK 927      BINDING AFFINITY PREDICTED BY RF-SCORE:    0.00 PKD
ROOT
HETATM    1  C   UNL     1      -9.997  18.453  66.326  1.00  0.00    -0.366 C  
HETATM    2  N   UNL     1     -10.534  17.253  66.938  1.00  0.00    -0.303 N  
HETATM    3  C   UNL     1     -10.976  16.193  66.182  1.00  0.00    -0.036 A  
HETATM    4  C   UNL     1     -11.464  15.058  66.761  1.00  0.00    -0.251 A  
HETATM    5  C   UNL     1     -11.548  14.877  68.171  1.00  0.00    -0.334 C  
HETATM    6  N   UNL     1     -11.788  14.239  65.714  1.00  0.00    -0.365 NA 
HETATM    7  O   UNL     1     -11.967  13.840  68.683  1.00  0.00    -0.351 OA 
HETATM    8  N   UNL     1     -11.110  15.992  68.889  1.00  0.00    -0.308 N  
HETATM    9  O   UNL     1     -10.207  18.111  69.040  1.00  0.00    -0.381 OA 
HETATM   10  C   UNL     1     -11.498  14.926  64.563  1.00  0.00    -0.325 A  
HETATM   11  N   UNL     1     -10.998  16.118  64.823  1.00  0.00    -0.638 NA 
HETATM   12  C   UNL     1     -11.163  15.944  70.337  1.00  0.00    -0.378 C  
HETATM   13  C   UNL     1     -10.593  17.178  68.327  1.00  0.00    -0.375 C  
ENDROOT
BRANCH   6  14
HETATM   14  C   UNL     1     -12.374  12.916  65.782  1.00  0.00    -0.375 C  
BRANCH  14  15
HETATM   15  C   UNL     1     -11.380  11.802  65.438  1.00  0.00    -0.222 C  
HETATM   16  H   UNL     1      -9.485  11.633  64.854  1.00  0.00     0.000 HD 
HETATM   17  O   UNL     1     -10.101  12.323  65.068  1.00  0.00    -0.271 OA 
BRANCH  15  18
HETATM   18  C   UNL     1     -11.210  10.854  66.636  1.00  0.00     0.016 C  
HETATM   19  O   UNL     1      -9.940  10.208  66.636  1.00  0.00    -0.197 OA 
HETATM   20  H   UNL     1      -9.835   9.623  67.377  1.00  0.00     0.000 HD 
ENDBRANCH  15  18
ENDBRANCH  14  15
ENDBRANCH   6  14
TORSDOF 3
ENDMDL
MODEL       82
REMARK 921   NORMALIZED FREE ENERGY PREDICTED BY IDOCK:   -4.27 KCAL/MOL
REMARK 922        TOTAL FREE ENERGY PREDICTED BY IDOCK:   -5.50 KCAL/MOL
REMARK 923 INTER-LIGAND FREE ENERGY PREDICTED BY IDOCK:   -5.02 KCAL/MOL
REMARK 924 INTRA-LIGAND FREE ENERGY PREDICTED BY IDOCK:   -0.48 KCAL/MOL
REMARK 927      BINDING AFFINITY PREDICTED BY RF-SCORE:    0.00 PKD
ROOT
HETATM    1  C   UNL     1      -7.205  10.521  68.913  1.00  0.00    -0.086 C  
HETATM    2  N   UNL     1      -8.588  10.535  69.350  1.00  0.00    -0.130 N  
HETATM    3  C   UNL     1      -9.048   9.677  70.320  1.00  0.00    -0.225 A  
HETATM    4  C   UNL     1     -10.345   9.707  70.742  1.00  0.00    -0.286 A  
HETATM    5  C   UNL     1     -11.311  10.616  70.227  1.00  0.00    -0.319 C  
HETATM    6  N   UNL     1     -10.426   8.736  71.703  1.00  0.00    -0.289 NA 
HETATM    7  O   UNL     1     -12.472  10.651  70.631  1.00  0.00    -0.318 OA 
HETATM    8  N   UNL     1     -10.797  11.446  69.228  1.00  0.00    -0.219 N  
HETATM    9  O   UNL     1      -9.087  12.237  67.895  1.00  0.00    -0.175 OA 
HETATM   10  C   UNL     1      -9.184   8.162  71.798  1.00  0.00    -0.174 A  
HETATM   11  N   UNL     1      -8.327   8.722  70.968  1.00  0.00    -0.156 NA 
HETATM   12  C   UNL     1     -11.686  12.407  68.604  1.00  0.00    -0.326 C  
HETATM   13  C   UNL     1      -9.463  11.451  68.772  1.00  0.00    -0.119 C  
ENDROOT
BRANCH   6  14
HETATM   14  C   UNL     1     -11.599   8.339  72.455  1.00  0.00    -0.396 C  
BRANCH  14  15
HETATM   15  C   UNL     1     -12.496   7.359  71.692  1.00  0.00    -0.349 C  
HETATM   16  H   UNL     1     -12.864   5.403  71.658  1.00  0.00     0.000 HD 
HETATM   17  O   UNL     1     -12.308   6.011  72.131  1.00  0.00    -0.254 OA 
BRANCH  15  18
HETATM   18  C   UNL     1     -13.973   7.745  71.868  1.00  0.00    -0.325 C  
HETATM   19  O   UNL     1     -14.138   8.856  72.746  1.00  0.00    -0.876 OA 
HETATM   20  H   UNL     1     -15.051   9.095  72.855  1.00  0.00     0.000 HD 
ENDBRANCH  15  18
ENDBRANCH  14  15
ENDBRANCH   6  14
TORSDOF 3
ENDMDL
MODEL       83
REMARK 921   NORMALIZED FREE ENERGY PREDICTED BY IDOCK:   -4.27 KCAL/MOL
REMARK 922        TOTAL FREE ENERGY PREDICTED BY IDOCK:   -5.49 KCAL/MOL
REMARK 923 INTER-LIGAND FREE ENERGY PREDICTED BY IDOCK:   -5.19 KCAL/MOL
REMARK 924 INTRA-LIGAND FREE ENERGY PREDICTED BY IDOCK:   -0.30 KCAL/MOL
REMARK 927      BINDING AFFINITY PREDICTED BY RF-SCORE:    0.00 PKD
ROOT
HETATM    1  C   UNL     1      -8.539   8.213  64.743  1.00  0.00     0.027 C  
HETATM    2  N   UNL     1      -8.889   9.430  65.449  1.00  0.00    -0.171 N  
HETATM    3  C   UNL     1      -9.344  10.545  64.786  1.00  0.00    -0.238 A  
HETATM    4  C   UNL     1      -9.691  11.682  65.456  1.00  0.00    -0.232 A  
HETATM    5  C   UNL     1      -9.616  11.805  66.872  1.00  0.00    -0.193 C  
HETATM    6  N   UNL     1     -10.099  12.554  64.484  1.00  0.00    -0.278 NA 
HETATM    7  O   UNL     1      -9.953  12.827  67.468  1.00  0.00    -0.205 OA 
HETATM    8  N   UNL     1      -9.124  10.654  67.492  1.00  0.00    -0.139 N  
HETATM    9  O   UNL     1      -8.356   8.478  67.467  1.00  0.00    -0.125 OA 
HETATM   10  C   UNL     1      -9.962  11.907  63.282  1.00  0.00    -0.380 A  
HETATM   11  N   UNL     1      -9.507  10.680  63.442  1.00  0.00    -0.288 NA 
HETATM   12  C   UNL     1      -8.979  10.657  68.935  1.00  0.00    -0.168 C  
HETATM   13  C   UNL     1      -8.764   9.459  66.836  1.00  0.00    -0.127 C  
ENDROOT
BRANCH   6  14
HETATM   14  C   UNL     1     -10.547  13.920  64.661  1.00  0.00    -0.412 C  
BRANCH  14  15
HETATM   15  C   UNL     1     -12.070  14.069  64.571  1.00  0.00    -0.459 C  
HETATM   16  H   UNL     1     -13.456  14.312  63.163  1.00  0.00     0.000 HD 
HETATM   17  O   UNL     1     -12.512  14.220  63.219  1.00  0.00    -0.705 OA 
BRANCH  15  18
HETATM   18  C   UNL     1     -12.759  12.844  65.193  1.00  0.00    -0.374 C  
HETATM   19  O   UNL     1     -13.308  11.976  64.205  1.00  0.00    -0.725 OA 
HETATM   20  H   UNL     1     -13.734  11.218  64.589  1.00  0.00     0.000 HD 
ENDBRANCH  15  18
ENDBRANCH  14  15
ENDBRANCH   6  14
TORSDOF 3
ENDMDL
MODEL       84
REMARK 921   NORMALIZED FREE ENERGY PREDICTED BY IDOCK:   -4.27 KCAL/MOL
REMARK 922        TOTAL FREE ENERGY PREDICTED BY IDOCK:   -5.49 KCAL/MOL
REMARK 923 INTER-LIGAND FREE ENERGY PREDICTED BY IDOCK:   -5.18 KCAL/MOL
REMARK 924 INTRA-LIGAND FREE ENERGY PREDICTED BY IDOCK:   -0.31 KCAL/MOL
REMARK 927      BINDING AFFINITY PREDICTED BY RF-SCORE:    0.00 PKD
ROOT
HETATM    1  C   UNL     1      -7.129  13.300  67.516  1.00  0.00    -0.149 C  
HETATM    2  N   UNL     1      -8.474  12.775  67.656  1.00  0.00    -0.165 N  
HETATM    3  C   UNL     1      -8.738  11.662  68.419  1.00  0.00    -0.158 A  
HETATM    4  C   UNL     1     -10.007  11.182  68.566  1.00  0.00    -0.199 A  
HETATM    5  C   UNL     1     -11.143  11.785  67.956  1.00  0.00    -0.242 C  
HETATM    6  N   UNL     1      -9.880  10.095  69.387  1.00  0.00    -0.218 NA 
HETATM    7  O   UNL     1     -12.285  11.358  68.113  1.00  0.00    -0.602 OA 
HETATM    8  N   UNL     1     -10.814  12.894  67.173  1.00  0.00    -0.253 N  
HETATM    9  O   UNL     1      -9.321  14.426  66.309  1.00  0.00    -0.283 OA 
HETATM   10  C   UNL     1      -8.546   9.966  69.678  1.00  0.00    -0.194 A  
HETATM   11  N   UNL     1      -7.831  10.912  69.103  1.00  0.00    -0.138 NA 
HETATM   12  C   UNL     1     -11.881  13.589  66.479  1.00  0.00    -0.399 C  
HETATM   13  C   UNL     1      -9.519  13.425  67.005  1.00  0.00    -0.247 C  
ENDROOT
BRANCH   6  14
HETATM   14  C   UNL     1     -10.932   9.206  69.835  1.00  0.00    -0.204 C  
BRANCH  14  15
HETATM   15  C   UNL     1     -11.420   9.521  71.253  1.00  0.00    -0.377 C  
HETATM   16  H   UNL     1     -13.024  10.309  72.130  1.00  0.00     0.000 HD 
HETATM   17  O   UNL     1     -12.721  10.114  71.251  1.00  0.00    -0.340 OA 
BRANCH  15  18
HETATM   18  C   UNL     1     -11.452   8.239  72.100  1.00  0.00    -0.361 C  
HETATM   19  O   UNL     1     -12.414   8.310  73.150  1.00  0.00    -0.648 OA 
HETATM   20  H   UNL     1     -12.433   7.517  73.673  1.00  0.00     0.000 HD 
ENDBRANCH  15  18
ENDBRANCH  14  15
ENDBRANCH   6  14
TORSDOF 3
ENDMDL
MODEL       85
REMARK 921   NORMALIZED FREE ENERGY PREDICTED BY IDOCK:   -4.24 KCAL/MOL
REMARK 922        TOTAL FREE ENERGY PREDICTED BY IDOCK:   -5.45 KCAL/MOL
REMARK 923 INTER-LIGAND FREE ENERGY PREDICTED BY IDOCK:   -5.08 KCAL/MOL
REMARK 924 INTRA-LIGAND FREE ENERGY PREDICTED BY IDOCK:   -0.37 KCAL/MOL
REMARK 927      BINDING AFFINITY PREDICTED BY RF-SCORE:    0.00 PKD
ROOT
HETATM    1  C   UNL     1     -10.616   9.013  68.120  1.00  0.00    -0.171 C  
HETATM    2  N   UNL     1     -10.655  10.261  67.381  1.00  0.00    -0.251 N  
HETATM    3  C   UNL     1     -11.072  11.433  67.965  1.00  0.00    -0.257 A  
HETATM    4  C   UNL     1     -11.089  12.609  67.272  1.00  0.00    -0.278 A  
HETATM    5  C   UNL     1     -10.678  12.719  65.914  1.00  0.00    -0.270 C  
HETATM    6  N   UNL     1     -11.544  13.539  68.167  1.00  0.00    -0.311 NA 
HETATM    7  O   UNL     1     -10.675  13.788  65.306  1.00  0.00    -0.307 OA 
HETATM    8  N   UNL     1     -10.289  11.495  65.364  1.00  0.00    -0.262 N  
HETATM    9  O   UNL     1      -9.870   9.229  65.488  1.00  0.00    -0.265 OA 
HETATM   10  C   UNL     1     -11.793  12.876  69.342  1.00  0.00    -0.312 A  
HETATM   11  N   UNL     1     -11.510  11.593  69.244  1.00  0.00    -0.274 NA 
HETATM   12  C   UNL     1      -9.865  11.466  63.977  1.00  0.00    -0.278 C  
HETATM   13  C   UNL     1     -10.249  10.263  66.049  1.00  0.00    -0.228 C  
ENDROOT
BRANCH   6  14
HETATM   14  C   UNL     1     -11.773  14.949  67.928  1.00  0.00    -0.321 C  
BRANCH  14  15
HETATM   15  C   UNL     1     -10.481  15.772  67.911  1.00  0.00    -0.270 C  
HETATM   16  H   UNL     1      -9.831  17.497  67.158  1.00  0.00     0.000 HD 
HETATM   17  O   UNL     1     -10.632  16.986  67.169  1.00  0.00    -0.312 OA 
BRANCH  15  18
HETATM   18  C   UNL     1     -10.049  16.110  69.346  1.00  0.00    -0.256 C  
HETATM   19  O   UNL     1      -9.228  15.092  69.915  1.00  0.00    -0.453 OA 
HETATM   20  H   UNL     1      -8.961  15.301  70.802  1.00  0.00     0.000 HD 
ENDBRANCH  15  18
ENDBRANCH  14  15
ENDBRANCH   6  14
TORSDOF 3
ENDMDL
MODEL       86
REMARK 921   NORMALIZED FREE ENERGY PREDICTED BY IDOCK:   -4.21 KCAL/MOL
REMARK 922        TOTAL FREE ENERGY PREDICTED BY IDOCK:   -5.42 KCAL/MOL
REMARK 923 INTER-LIGAND FREE ENERGY PREDICTED BY IDOCK:   -4.74 KCAL/MOL
REMARK 924 INTRA-LIGAND FREE ENERGY PREDICTED BY IDOCK:   -0.68 KCAL/MOL
REMARK 927      BINDING AFFINITY PREDICTED BY RF-SCORE:    0.00 PKD
ROOT
HETATM    1  C   UNL     1      -8.831  11.320  67.428  1.00  0.00    -0.145 C  
HETATM    2  N   UNL     1      -9.450  12.523  66.905  1.00  0.00    -0.213 N  
HETATM    3  C   UNL     1      -8.791  13.730  66.898  1.00  0.00    -0.188 A  
HETATM    4  C   UNL     1      -9.369  14.855  66.386  1.00  0.00    -0.297 A  
HETATM    5  C   UNL     1     -10.676  14.872  65.823  1.00  0.00    -0.331 C  
HETATM    6  N   UNL     1      -8.427  15.836  66.539  1.00  0.00    -0.290 NA 
HETATM    7  O   UNL     1     -11.178  15.887  65.343  1.00  0.00    -0.224 OA 
HETATM    8  N   UNL     1     -11.308  13.628  65.879  1.00  0.00    -0.306 N  
HETATM    9  O   UNL     1     -11.367  11.377  66.382  1.00  0.00    -0.301 OA 
HETATM   10  C   UNL     1      -7.342  15.258  67.148  1.00  0.00    -0.143 A  
HETATM   11  N   UNL     1      -7.539  13.974  67.373  1.00  0.00    -0.175 NA 
HETATM   12  C   UNL     1     -12.655  13.515  65.355  1.00  0.00    -0.483 C  
HETATM   13  C   UNL     1     -10.741  12.443  66.391  1.00  0.00    -0.247 C  
ENDROOT
BRANCH   6  14
HETATM   14  C   UNL     1      -8.549  17.234  66.181  1.00  0.00    -0.172 C  
BRANCH  14  15
HETATM   15  C   UNL     1      -8.327  18.179  67.366  1.00  0.00    -0.239 C  
HETATM   16  H   UNL     1      -7.936  20.106  67.675  1.00  0.00     0.000 HD 
HETATM   17  O   UNL     1      -8.074  19.520  66.940  1.00  0.00    -0.262 OA 
BRANCH  15  18
HETATM   18  C   UNL     1      -9.556  18.168  68.290  1.00  0.00    -0.317 C  
HETATM   19  O   UNL     1     -10.774  18.016  67.564  1.00  0.00    -0.404 OA 
HETATM   20  H   UNL     1     -11.533  18.009  68.135  1.00  0.00     0.000 HD 
ENDBRANCH  15  18
ENDBRANCH  14  15
ENDBRANCH   6  14
TORSDOF 3
ENDMDL
MODEL       87
REMARK 921   NORMALIZED FREE ENERGY PREDICTED BY IDOCK:   -4.19 KCAL/MOL
REMARK 922        TOTAL FREE ENERGY PREDICTED BY IDOCK:   -5.40 KCAL/MOL
REMARK 923 INTER-LIGAND FREE ENERGY PREDICTED BY IDOCK:   -4.89 KCAL/MOL
REMARK 924 INTRA-LIGAND FREE ENERGY PREDICTED BY IDOCK:   -0.51 KCAL/MOL
REMARK 927      BINDING AFFINITY PREDICTED BY RF-SCORE:    0.00 PKD
ROOT
HETATM    1  C   UNL     1     -12.106  11.816  63.094  1.00  0.00    -0.140 C  
HETATM    2  N   UNL     1     -11.319  12.002  64.297  1.00  0.00    -0.346 N  
HETATM    3  C   UNL     1     -11.637  12.962  65.228  1.00  0.00    -0.340 A  
HETATM    4  C   UNL     1     -10.906  13.122  66.369  1.00  0.00    -0.287 A  
HETATM    5  C   UNL     1      -9.775  12.317  66.687  1.00  0.00    -0.222 C  
HETATM    6  N   UNL     1     -11.518  14.144  67.041  1.00  0.00    -0.335 NA 
HETATM    7  O   UNL     1      -9.137  12.454  67.729  1.00  0.00    -0.177 OA 
HETATM    8  N   UNL     1      -9.481  11.377  65.697  1.00  0.00    -0.227 N  
HETATM    9  O   UNL     1      -9.898  10.303  63.698  1.00  0.00    -0.281 OA 
HETATM   10  C   UNL     1     -12.572  14.558  66.266  1.00  0.00     0.023 A  
HETATM   11  N   UNL     1     -12.667  13.850  65.159  1.00  0.00    -0.689 NA 
HETATM   12  C   UNL     1      -8.338  10.506  65.891  1.00  0.00    -0.161 C  
HETATM   13  C   UNL     1     -10.218  11.177  64.512  1.00  0.00    -0.324 C  
ENDROOT
BRANCH   6  14
HETATM   14  C   UNL     1     -11.119  14.728  68.305  1.00  0.00    -0.274 C  
BRANCH  14  15
HETATM   15  C   UNL     1     -10.604  16.164  68.167  1.00  0.00    -0.290 C  
HETATM   16  H   UNL     1     -10.278  17.742  69.335  1.00  0.00     0.000 HD 
HETATM   17  O   UNL     1     -10.597  16.852  69.421  1.00  0.00    -0.337 OA 
BRANCH  15  18
HETATM   18  C   UNL     1      -9.181  16.163  67.585  1.00  0.00    -0.205 C  
HETATM   19  O   UNL     1      -9.158  15.758  66.218  1.00  0.00    -0.282 OA 
HETATM   20  H   UNL     1      -8.279  15.758  65.859  1.00  0.00     0.000 HD 
ENDBRANCH  15  18
ENDBRANCH  14  15
ENDBRANCH   6  14
TORSDOF 3
ENDMDL
MODEL       88
REMARK 921   NORMALIZED FREE ENERGY PREDICTED BY IDOCK:   -4.19 KCAL/MOL
REMARK 922        TOTAL FREE ENERGY PREDICTED BY IDOCK:   -5.39 KCAL/MOL
REMARK 923 INTER-LIGAND FREE ENERGY PREDICTED BY IDOCK:   -4.85 KCAL/MOL
REMARK 924 INTRA-LIGAND FREE ENERGY PREDICTED BY IDOCK:   -0.55 KCAL/MOL
REMARK 927      BINDING AFFINITY PREDICTED BY RF-SCORE:    0.00 PKD
ROOT
HETATM    1  C   UNL     1     -11.575  14.902  67.330  1.00  0.00    -0.324 C  
HETATM    2  N   UNL     1     -11.249  13.727  66.544  1.00  0.00    -0.306 N  
HETATM    3  C   UNL     1     -10.188  12.914  66.867  1.00  0.00    -0.242 A  
HETATM    4  C   UNL     1      -9.896  11.798  66.137  1.00  0.00    -0.229 A  
HETATM    5  C   UNL     1     -10.655  11.387  65.005  1.00  0.00    -0.299 C  
HETATM    6  N   UNL     1      -8.804  11.250  66.753  1.00  0.00    -0.164 NA 
HETATM    7  O   UNL     1     -10.398  10.367  64.368  1.00  0.00    -0.304 OA 
HETATM    8  N   UNL     1     -11.703  12.262  64.707  1.00  0.00    -0.360 N  
HETATM    9  O   UNL     1     -13.002  14.125  65.119  1.00  0.00    -0.729 OA 
HETATM   10  C   UNL     1      -8.485  12.068  67.806  1.00  0.00    -0.157 A  
HETATM   11  N   UNL     1      -9.317  13.087  67.898  1.00  0.00    -0.204 NA 
HETATM   12  C   UNL     1     -12.543  11.967  63.563  1.00  0.00    -0.507 C  
HETATM   13  C   UNL     1     -12.041  13.417  65.442  1.00  0.00    -0.421 C  
ENDROOT
BRANCH   6  14
HETATM   14  C   UNL     1      -8.078  10.061  66.357  1.00  0.00    -0.120 C  
BRANCH  14  15
HETATM   15  C   UNL     1      -7.069  10.321  65.233  1.00  0.00    -0.130 C  
HETATM   16  H   UNL     1      -5.164  10.868  65.047  1.00  0.00     0.000 HD 
HETATM   17  O   UNL     1      -5.790  10.707  65.744  1.00  0.00    -0.111 OA 
BRANCH  15  18
HETATM   18  C   UNL     1      -6.906   9.063  64.365  1.00  0.00    -0.085 C  
HETATM   19  O   UNL     1      -8.052   8.818  63.553  1.00  0.00    -0.155 OA 
HETATM   20  H   UNL     1      -7.951   8.040  63.016  1.00  0.00     0.000 HD 
ENDBRANCH  15  18
ENDBRANCH  14  15
ENDBRANCH   6  14
TORSDOF 3
ENDMDL
MODEL       89
REMARK 921   NORMALIZED FREE ENERGY PREDICTED BY IDOCK:   -4.16 KCAL/MOL
REMARK 922        TOTAL FREE ENERGY PREDICTED BY IDOCK:   -5.37 KCAL/MOL
REMARK 923 INTER-LIGAND FREE ENERGY PREDICTED BY IDOCK:   -4.83 KCAL/MOL
REMARK 924 INTRA-LIGAND FREE ENERGY PREDICTED BY IDOCK:   -0.54 KCAL/MOL
REMARK 927      BINDING AFFINITY PREDICTED BY RF-SCORE:    0.00 PKD
ROOT
HETATM    1  C   UNL     1      -9.522   3.514  72.423  1.00  0.00    -0.125 C  
HETATM    2  N   UNL     1      -9.923   4.572  71.516  1.00  0.00    -0.189 N  
HETATM    3  C   UNL     1     -10.372   5.787  71.977  1.00  0.00    -0.208 A  
HETATM    4  C   UNL     1     -10.730   6.787  71.121  1.00  0.00    -0.229 A  
HETATM    5  C   UNL     1     -10.663   6.660  69.704  1.00  0.00    -0.260 C  
HETATM    6  N   UNL     1     -11.105   7.826  71.928  1.00  0.00    -0.247 NA 
HETATM    7  O   UNL     1     -10.966   7.576  68.941  1.00  0.00    -0.091 OA 
HETATM    8  N   UNL     1     -10.226   5.400  69.291  1.00  0.00    -0.230 N  
HETATM    9  O   UNL     1      -9.443   3.266  69.692  1.00  0.00    -0.164 OA 
HETATM   10  C   UNL     1     -10.972   7.394  73.223  1.00  0.00    -0.318 A  
HETATM   11  N   UNL     1     -10.523   6.156  73.278  1.00  0.00    -0.228 NA 
HETATM   12  C   UNL     1     -10.133   5.134  67.869  1.00  0.00    -0.137 C  
HETATM   13  C   UNL     1      -9.839   4.346  70.145  1.00  0.00    -0.217 C  
ENDROOT
BRANCH   6  14
HETATM   14  C   UNL     1     -11.599   9.124  71.517  1.00  0.00    -0.368 C  
BRANCH  14  15
HETATM   15  C   UNL     1     -12.932   9.495  72.177  1.00  0.00    -0.412 C  
HETATM   16  H   UNL     1     -14.040  11.122  72.468  1.00  0.00     0.000 HD 
HETATM   17  O   UNL     1     -13.214  10.892  72.059  1.00  0.00    -0.492 OA 
BRANCH  15  18
HETATM   18  C   UNL     1     -14.079   8.693  71.542  1.00  0.00    -0.343 C  
HETATM   19  O   UNL     1     -14.206   7.392  72.111  1.00  0.00    -0.568 OA 
HETATM   20  H   UNL     1     -14.915   6.897  71.719  1.00  0.00     0.000 HD 
ENDBRANCH  15  18
ENDBRANCH  14  15
ENDBRANCH   6  14
TORSDOF 3
ENDMDL
MODEL       90
REMARK 921   NORMALIZED FREE ENERGY PREDICTED BY IDOCK:   -4.14 KCAL/MOL
REMARK 922        TOTAL FREE ENERGY PREDICTED BY IDOCK:   -5.34 KCAL/MOL
REMARK 923 INTER-LIGAND FREE ENERGY PREDICTED BY IDOCK:   -4.95 KCAL/MOL
REMARK 924 INTRA-LIGAND FREE ENERGY PREDICTED BY IDOCK:   -0.40 KCAL/MOL
REMARK 927      BINDING AFFINITY PREDICTED BY RF-SCORE:    0.00 PKD
ROOT
HETATM    1  C   UNL     1      -8.803  10.781  66.593  1.00  0.00    -0.145 C  
HETATM    2  N   UNL     1      -9.408  12.025  66.157  1.00  0.00    -0.229 N  
HETATM    3  C   UNL     1      -9.073  13.230  66.726  1.00  0.00    -0.210 A  
HETATM    4  C   UNL     1      -9.630  14.401  66.299  1.00  0.00    -0.298 A  
HETATM    5  C   UNL     1     -10.584  14.470  65.244  1.00  0.00    -0.383 C  
HETATM    6  N   UNL     1      -9.056  15.369  67.077  1.00  0.00    -0.214 NA 
HETATM    7  O   UNL     1     -11.062  15.533  64.852  1.00  0.00    -0.409 OA 
HETATM    8  N   UNL     1     -10.907  13.216  64.721  1.00  0.00    -0.332 N  
HETATM    9  O   UNL     1     -10.676  10.924  64.594  1.00  0.00    -0.308 OA 
HETATM   10  C   UNL     1      -8.199  14.734  67.940  1.00  0.00    -0.150 A  
HETATM   11  N   UNL     1      -8.190  13.431  67.742  1.00  0.00    -0.157 NA 
HETATM   12  C   UNL     1     -11.884  13.146  63.652  1.00  0.00    -0.488 C  
HETATM   13  C   UNL     1     -10.347  11.988  65.128  1.00  0.00    -0.276 C  
ENDROOT
BRANCH   6  14
HETATM   14  C   UNL     1      -9.323  16.793  67.046  1.00  0.00    -0.233 C  
BRANCH  14  15
HETATM   15  C   UNL     1      -9.454  17.408  68.443  1.00  0.00    -0.293 C  
HETATM   16  H   UNL     1      -9.354  19.208  69.287  1.00  0.00     0.000 HD 
HETATM   17  O   UNL     1      -9.273  18.827  68.420  1.00  0.00    -0.316 OA 
BRANCH  15  18
HETATM   18  C   UNL     1     -10.834  17.086  69.037  1.00  0.00    -0.206 C  
HETATM   19  O   UNL     1     -10.793  15.968  69.921  1.00  0.00    -0.297 OA 
HETATM   20  H   UNL     1     -11.646  15.769  70.288  1.00  0.00     0.000 HD 
ENDBRANCH  15  18
ENDBRANCH  14  15
ENDBRANCH   6  14
TORSDOF 3
ENDMDL
MODEL       91
REMARK 921   NORMALIZED FREE ENERGY PREDICTED BY IDOCK:   -4.13 KCAL/MOL
REMARK 922        TOTAL FREE ENERGY PREDICTED BY IDOCK:   -5.33 KCAL/MOL
REMARK 923 INTER-LIGAND FREE ENERGY PREDICTED BY IDOCK:   -5.00 KCAL/MOL
REMARK 924 INTRA-LIGAND FREE ENERGY PREDICTED BY IDOCK:   -0.33 KCAL/MOL
REMARK 927      BINDING AFFINITY PREDICTED BY RF-SCORE:    0.00 PKD
ROOT
HETATM    1  C   UNL     1     -10.782  13.032  68.378  1.00  0.00    -0.256 C  
HETATM    2  N   UNL     1     -11.399  12.171  69.369  1.00  0.00    -0.262 N  
HETATM    3  C   UNL     1     -11.168  10.816  69.392  1.00  0.00    -0.276 A  
HETATM    4  C   UNL     1     -11.734  10.012  70.338  1.00  0.00    -0.286 A  
HETATM    5  C   UNL     1     -12.591  10.500  71.364  1.00  0.00    -0.434 C  
HETATM    6  N   UNL     1     -11.274   8.755  70.053  1.00  0.00    -0.169 NA 
HETATM    7  O   UNL     1     -13.077   9.770  72.226  1.00  0.00    -0.416 OA 
HETATM    8  N   UNL     1     -12.811  11.877  71.278  1.00  0.00    -0.351 N  
HETATM    9  O   UNL     1     -12.472  13.955  70.333  1.00  0.00    -0.336 OA 
HETATM   10  C   UNL     1     -10.472   8.863  68.946  1.00  0.00    -0.205 A  
HETATM   11  N   UNL     1     -10.389  10.110  68.527  1.00  0.00    -0.171 NA 
HETATM   12  C   UNL     1     -13.685  12.498  72.255  1.00  0.00    -0.259 C  
HETATM   13  C   UNL     1     -12.238  12.741  70.323  1.00  0.00    -0.277 C  
ENDROOT
BRANCH   6  14
HETATM   14  C   UNL     1     -11.598   7.523  70.745  1.00  0.00    -0.277 C  
BRANCH  14  15
HETATM   15  C   UNL     1     -10.438   6.988  71.591  1.00  0.00    -0.199 C  
HETATM   16  H   UNL     1      -8.534   6.467  71.337  1.00  0.00     0.000 HD 
HETATM   17  O   UNL     1      -9.253   6.799  70.813  1.00  0.00    -0.157 OA 
BRANCH  15  18
HETATM   18  C   UNL     1     -10.134   7.954  72.746  1.00  0.00    -0.300 C  
HETATM   19  O   UNL     1      -9.108   8.886  72.413  1.00  0.00    -0.372 OA 
HETATM   20  H   UNL     1      -8.920   9.484  73.127  1.00  0.00     0.000 HD 
ENDBRANCH  15  18
ENDBRANCH  14  15
ENDBRANCH   6  14
TORSDOF 3
ENDMDL
MODEL       92
REMARK 921   NORMALIZED FREE ENERGY PREDICTED BY IDOCK:   -4.12 KCAL/MOL
REMARK 922        TOTAL FREE ENERGY PREDICTED BY IDOCK:   -5.31 KCAL/MOL
REMARK 923 INTER-LIGAND FREE ENERGY PREDICTED BY IDOCK:   -5.08 KCAL/MOL
REMARK 924 INTRA-LIGAND FREE ENERGY PREDICTED BY IDOCK:   -0.23 KCAL/MOL
REMARK 927      BINDING AFFINITY PREDICTED BY RF-SCORE:    0.00 PKD
ROOT
HETATM    1  C   UNL     1     -11.515  15.354  68.758  1.00  0.00    -0.341 C  
HETATM    2  N   UNL     1     -11.435  13.941  69.074  1.00  0.00    -0.278 N  
HETATM    3  C   UNL     1     -10.629  13.085  68.360  1.00  0.00    -0.251 A  
HETATM    4  C   UNL     1     -10.541  11.760  68.673  1.00  0.00    -0.223 A  
HETATM    5  C   UNL     1     -11.259  11.164  69.748  1.00  0.00    -0.245 C  
HETATM    6  N   UNL     1      -9.653  11.243  67.770  1.00  0.00    -0.171 NA 
HETATM    7  O   UNL     1     -11.154   9.973  70.036  1.00  0.00    -0.256 OA 
HETATM    8  N   UNL     1     -12.080  12.071  70.422  1.00  0.00    -0.355 N  
HETATM    9  O   UNL     1     -12.928  14.184  70.798  1.00  0.00    -0.329 OA 
HETATM   10  C   UNL     1      -9.266  12.274  66.952  1.00  0.00    -0.209 A  
HETATM   11  N   UNL     1      -9.845  13.408  67.295  1.00  0.00    -0.229 NA 
HETATM   12  C   UNL     1     -12.882  11.586  71.528  1.00  0.00    -0.380 C  
HETATM   13  C   UNL     1     -12.191  13.447  70.135  1.00  0.00    -0.315 C  
ENDROOT
BRANCH   6  14
HETATM   14  C   UNL     1      -9.225   9.864  67.649  1.00  0.00    -0.133 C  
BRANCH  14  15
HETATM   15  C   UNL     1      -9.959   9.104  66.540  1.00  0.00    -0.288 C  
HETATM   16  H   UNL     1      -9.830   8.868  64.567  1.00  0.00     0.000 HD 
HETATM   17  O   UNL     1      -9.375   9.339  65.255  1.00  0.00    -0.241 OA 
BRANCH  15  18
HETATM   18  C   UNL     1      -9.943   7.595  66.831  1.00  0.00    -0.255 C  
HETATM   19  O   UNL     1     -11.239   7.011  66.721  1.00  0.00    -0.580 OA 
HETATM   20  H   UNL     1     -11.229   6.078  66.902  1.00  0.00     0.000 HD 
ENDBRANCH  15  18
ENDBRANCH  14  15
ENDBRANCH   6  14
TORSDOF 3
ENDMDL
MODEL       93
REMARK 921   NORMALIZED FREE ENERGY PREDICTED BY IDOCK:   -4.08 KCAL/MOL
REMARK 922        TOTAL FREE ENERGY PREDICTED BY IDOCK:   -5.27 KCAL/MOL
REMARK 923 INTER-LIGAND FREE ENERGY PREDICTED BY IDOCK:   -5.06 KCAL/MOL
REMARK 924 INTRA-LIGAND FREE ENERGY PREDICTED BY IDOCK:   -0.21 KCAL/MOL
REMARK 927      BINDING AFFINITY PREDICTED BY RF-SCORE:    0.00 PKD
ROOT
HETATM    1  C   UNL     1      -8.061   9.982  64.568  1.00  0.00    -0.156 C  
HETATM    2  N   UNL     1      -9.145  10.388  65.442  1.00  0.00    -0.177 N  
HETATM    3  C   UNL     1      -9.311   9.836  66.691  1.00  0.00    -0.158 A  
HETATM    4  C   UNL     1     -10.320  10.234  67.518  1.00  0.00    -0.229 A  
HETATM    5  C   UNL     1     -11.265  11.240  67.167  1.00  0.00    -0.275 C  
HETATM    6  N   UNL     1     -10.162   9.486  68.653  1.00  0.00    -0.188 NA 
HETATM    7  O   UNL     1     -12.156  11.608  67.930  1.00  0.00    -0.613 OA 
HETATM    8  N   UNL     1     -11.065  11.747  65.881  1.00  0.00    -0.315 N  
HETATM    9  O   UNL     1      -9.915  11.886  63.885  1.00  0.00    -0.320 OA 
HETATM   10  C   UNL     1      -9.082   8.667  68.445  1.00  0.00    -0.138 A  
HETATM   11  N   UNL     1      -8.545   8.865  67.258  1.00  0.00    -0.118 NA 
HETATM   12  C   UNL     1     -11.974  12.766  65.393  1.00  0.00    -0.436 C  
HETATM   13  C   UNL     1     -10.030  11.368  65.001  1.00  0.00    -0.266 C  
ENDROOT
BRANCH   6  14
HETATM   14  C   UNL     1     -10.994   9.503  69.839  1.00  0.00    -0.238 C  
BRANCH  14  15
HETATM   15  C   UNL     1     -10.627   8.406  70.844  1.00  0.00    -0.204 C  
HETATM   16  H   UNL     1      -9.603   8.231  72.542  1.00  0.00     0.000 HD 
HETATM   17  O   UNL     1      -9.831   8.912  71.919  1.00  0.00    -0.312 OA 
BRANCH  15  18
HETATM   18  C   UNL     1     -11.901   7.767  71.418  1.00  0.00    -0.297 C  
HETATM   19  O   UNL     1     -11.963   7.872  72.839  1.00  0.00    -0.614 OA 
HETATM   20  H   UNL     1     -12.751   7.477  73.194  1.00  0.00     0.000 HD 
ENDBRANCH  15  18
ENDBRANCH  14  15
ENDBRANCH   6  14
TORSDOF 3
ENDMDL
MODEL       94
REMARK 921   NORMALIZED FREE ENERGY PREDICTED BY IDOCK:   -4.07 KCAL/MOL
REMARK 922        TOTAL FREE ENERGY PREDICTED BY IDOCK:   -5.26 KCAL/MOL
REMARK 923 INTER-LIGAND FREE ENERGY PREDICTED BY IDOCK:   -4.82 KCAL/MOL
REMARK 924 INTRA-LIGAND FREE ENERGY PREDICTED BY IDOCK:   -0.44 KCAL/MOL
REMARK 927      BINDING AFFINITY PREDICTED BY RF-SCORE:    0.00 PKD
ROOT
HETATM    1  C   UNL     1      -8.082  13.447  66.997  1.00  0.00    -0.001 C  
HETATM    2  N   UNL     1      -9.226  13.130  67.831  1.00  0.00    -0.199 N  
HETATM    3  C   UNL     1      -9.936  14.109  68.485  1.00  0.00    -0.235 A  
HETATM    4  C   UNL     1     -11.023  13.809  69.253  1.00  0.00    -0.163 A  
HETATM    5  C   UNL     1     -11.508  12.482  69.432  1.00  0.00    -0.263 C  
HETATM    6  N   UNL     1     -11.466  15.014  69.725  1.00  0.00    -0.277 NA 
HETATM    7  O   UNL     1     -12.503  12.225  70.107  1.00  0.00    -0.153 OA 
HETATM    8  N   UNL     1     -10.736  11.527  68.766  1.00  0.00    -0.204 N  
HETATM    9  O   UNL     1      -8.999  10.891  67.387  1.00  0.00    -0.136 OA 
HETATM   10  C   UNL     1     -10.616  15.973  69.234  1.00  0.00    -0.265 A  
HETATM   11  N   UNL     1      -9.678  15.445  68.473  1.00  0.00    -0.200 NA 
HETATM   12  C   UNL     1     -11.113  10.132  68.885  1.00  0.00    -0.207 C  
HETATM   13  C   UNL     1      -9.613  11.799  67.958  1.00  0.00    -0.187 C  
ENDROOT
BRANCH   6  14
HETATM   14  C   UNL     1     -12.584  15.253  70.613  1.00  0.00    -0.417 C  
BRANCH  14  15
HETATM   15  C   UNL     1     -12.298  14.843  72.062  1.00  0.00    -0.344 C  
HETATM   16  H   UNL     1     -11.619  15.683  73.734  1.00  0.00     0.000 HD 
HETATM   17  O   UNL     1     -11.797  15.937  72.836  1.00  0.00    -0.457 OA 
BRANCH  15  18
HETATM   18  C   UNL     1     -13.575  14.302  72.722  1.00  0.00    -0.435 C  
HETATM   19  O   UNL     1     -13.626  12.877  72.709  1.00  0.00    -0.672 OA 
HETATM   20  H   UNL     1     -14.415  12.542  73.118  1.00  0.00     0.000 HD 
ENDBRANCH  15  18
ENDBRANCH  14  15
ENDBRANCH   6  14
TORSDOF 3
ENDMDL
MODEL       95
REMARK 921   NORMALIZED FREE ENERGY PREDICTED BY IDOCK:   -4.05 KCAL/MOL
REMARK 922        TOTAL FREE ENERGY PREDICTED BY IDOCK:   -5.24 KCAL/MOL
REMARK 923 INTER-LIGAND FREE ENERGY PREDICTED BY IDOCK:   -4.87 KCAL/MOL
REMARK 924 INTRA-LIGAND FREE ENERGY PREDICTED BY IDOCK:   -0.37 KCAL/MOL
REMARK 927      BINDING AFFINITY PREDICTED BY RF-SCORE:    0.00 PKD
ROOT
HETATM    1  C   UNL     1     -12.503  14.001  70.027  1.00  0.00    -0.281 C  
HETATM    2  N   UNL     1     -11.766  13.216  69.055  1.00  0.00    -0.302 N  
HETATM    3  C   UNL     1     -11.390  11.919  69.310  1.00  0.00    -0.277 A  
HETATM    4  C   UNL     1     -10.713  11.177  68.387  1.00  0.00    -0.198 A  
HETATM    5  C   UNL     1     -10.352  11.674  67.102  1.00  0.00    -0.217 C  
HETATM    6  N   UNL     1     -10.527   9.959  68.981  1.00  0.00    -0.200 NA 
HETATM    7  O   UNL     1      -9.763  10.989  66.268  1.00  0.00    -0.195 OA 
HETATM    8  N   UNL     1     -10.735  13.003  66.906  1.00  0.00    -0.261 N  
HETATM    9  O   UNL     1     -11.760  14.962  67.566  1.00  0.00    -0.360 OA 
HETATM   10  C   UNL     1     -11.082  10.034  70.232  1.00  0.00    -0.318 A  
HETATM   11  N   UNL     1     -11.618  11.218  70.455  1.00  0.00    -0.288 NA 
HETATM   12  C   UNL     1     -10.407  13.635  65.643  1.00  0.00    -0.300 C  
HETATM   13  C   UNL     1     -11.442  13.797  67.832  1.00  0.00    -0.314 C  
ENDROOT
BRANCH   6  14
HETATM   14  C   UNL     1      -9.834   8.811  68.432  1.00  0.00    -0.171 C  
BRANCH  14  15
HETATM   15  C   UNL     1     -10.774   7.820  67.736  1.00  0.00    -0.127 C  
HETATM   16  H   UNL     1     -10.867   6.823  66.015  1.00  0.00     0.000 HD 
HETATM   17  O   UNL     1     -10.285   7.437  66.447  1.00  0.00    -0.125 OA 
BRANCH  15  18
HETATM   18  C   UNL     1     -10.953   6.563  68.601  1.00  0.00    -0.293 C  
HETATM   19  O   UNL     1     -12.007   6.709  69.551  1.00  0.00    -0.642 OA 
HETATM   20  H   UNL     1     -12.118   5.931  70.085  1.00  0.00     0.000 HD 
ENDBRANCH  15  18
ENDBRANCH  14  15
ENDBRANCH   6  14
TORSDOF 3
ENDMDL
MODEL       96
REMARK 921   NORMALIZED FREE ENERGY PREDICTED BY IDOCK:   -4.04 KCAL/MOL
REMARK 922        TOTAL FREE ENERGY PREDICTED BY IDOCK:   -5.23 KCAL/MOL
REMARK 923 INTER-LIGAND FREE ENERGY PREDICTED BY IDOCK:   -4.91 KCAL/MOL
REMARK 924 INTRA-LIGAND FREE ENERGY PREDICTED BY IDOCK:   -0.32 KCAL/MOL
REMARK 927      BINDING AFFINITY PREDICTED BY RF-SCORE:    0.00 PKD
ROOT
HETATM    1  C   UNL     1     -11.926  14.320  67.521  1.00  0.00    -0.376 C  
HETATM    2  N   UNL     1     -11.545  12.921  67.538  1.00  0.00    -0.335 N  
HETATM    3  C   UNL     1     -11.667  12.153  68.672  1.00  0.00    -0.330 A  
HETATM    4  C   UNL     1     -11.326  10.832  68.679  1.00  0.00    -0.291 A  
HETATM    5  C   UNL     1     -10.831  10.149  67.532  1.00  0.00    -0.290 C  
HETATM    6  N   UNL     1     -11.588  10.406  69.953  1.00  0.00    -0.273 NA 
HETATM    7  O   UNL     1     -10.549   8.952  67.543  1.00  0.00    -0.271 OA 
HETATM    8  N   UNL     1     -10.703  10.981  66.418  1.00  0.00    -0.252 N  
HETATM    9  O   UNL     1     -10.927  13.005  65.331  1.00  0.00    -0.271 OA 
HETATM   10  C   UNL     1     -12.055  11.492  70.649  1.00  0.00    -0.353 A  
HETATM   11  N   UNL     1     -12.115  12.567  69.889  1.00  0.00    -0.287 NA 
HETATM   12  C   UNL     1     -10.189  10.412  65.187  1.00  0.00    -0.256 C  
HETATM   13  C   UNL     1     -11.053  12.346  66.369  1.00  0.00    -0.301 C  
ENDROOT
BRANCH   6  14
HETATM   14  C   UNL     1     -11.375   9.081  70.498  1.00  0.00    -0.243 C  
BRANCH  14  15
HETATM   15  C   UNL     1      -9.974   8.894  71.088  1.00  0.00    -0.272 C  
HETATM   16  H   UNL     1      -9.139   8.651  72.879  1.00  0.00     0.000 HD 
HETATM   17  O   UNL     1     -10.008   8.767  72.513  1.00  0.00    -0.245 OA 
BRANCH  15  18
HETATM   18  C   UNL     1      -9.308   7.646  70.487  1.00  0.00    -0.163 C  
HETATM   19  O   UNL     1      -8.037   7.377  71.075  1.00  0.00    -0.100 OA 
HETATM   20  H   UNL     1      -7.626   6.606  70.703  1.00  0.00     0.000 HD 
ENDBRANCH  15  18
ENDBRANCH  14  15
ENDBRANCH   6  14
TORSDOF 3
ENDMDL
MODEL       97
REMARK 921   NORMALIZED FREE ENERGY PREDICTED BY IDOCK:   -4.03 KCAL/MOL
REMARK 922        TOTAL FREE ENERGY PREDICTED BY IDOCK:   -5.21 KCAL/MOL
REMARK 923 INTER-LIGAND FREE ENERGY PREDICTED BY IDOCK:   -4.64 KCAL/MOL
REMARK 924 INTRA-LIGAND FREE ENERGY PREDICTED BY IDOCK:   -0.56 KCAL/MOL
REMARK 927      BINDING AFFINITY PREDICTED BY RF-SCORE:    0.00 PKD
ROOT
HETATM    1  C   UNL     1     -12.778  13.909  65.402  1.00  0.00    -0.490 C  
HETATM    2  N   UNL     1     -11.625  13.029  65.367  1.00  0.00    -0.327 N  
HETATM    3  C   UNL     1     -10.911  12.728  66.502  1.00  0.00    -0.262 A  
HETATM    4  C   UNL     1      -9.839  11.885  66.469  1.00  0.00    -0.206 A  
HETATM    5  C   UNL     1      -9.382  11.253  65.278  1.00  0.00    -0.203 C  
HETATM    6  N   UNL     1      -9.402  11.819  67.764  1.00  0.00    -0.176 NA 
HETATM    7  O   UNL     1      -8.429  10.476  65.263  1.00  0.00    -0.168 OA 
HETATM    8  N   UNL     1     -10.125  11.614  64.152  1.00  0.00    -0.275 N  
HETATM    9  O   UNL     1     -11.858  12.722  63.105  1.00  0.00    -0.493 OA 
HETATM   10  C   UNL     1     -10.217  12.636  68.504  1.00  0.00    -0.201 A  
HETATM   11  N   UNL     1     -11.147  13.198  67.758  1.00  0.00    -0.253 NA 
HETATM   12  C   UNL     1      -9.748  11.054  62.869  1.00  0.00    -0.323 C  
HETATM   13  C   UNL     1     -11.243  12.474  64.148  1.00  0.00    -0.382 C  
ENDROOT
BRANCH   6  14
HETATM   14  C   UNL     1      -8.266  11.076  68.271  1.00  0.00    -0.130 C  
BRANCH  14  15
HETATM   15  C   UNL     1      -7.294  11.942  69.079  1.00  0.00    -0.038 C  
HETATM   16  H   UNL     1      -6.177  11.783  70.718  1.00  0.00     0.000 HD 
HETATM   17  O   UNL     1      -6.779  11.246  70.217  1.00  0.00    -0.195 OA 
BRANCH  15  18
HETATM   18  C   UNL     1      -6.124  12.394  68.192  1.00  0.00    -0.065 C  
HETATM   19  O   UNL     1      -6.567  12.937  66.950  1.00  0.00    -0.455 OA 
HETATM   20  H   UNL     1      -5.843  13.217  66.402  1.00  0.00     0.000 HD 
ENDBRANCH  15  18
ENDBRANCH  14  15
ENDBRANCH   6  14
TORSDOF 3
ENDMDL
MODEL       98
REMARK 921   NORMALIZED FREE ENERGY PREDICTED BY IDOCK:   -4.02 KCAL/MOL
REMARK 922        TOTAL FREE ENERGY PREDICTED BY IDOCK:   -5.20 KCAL/MOL
REMARK 923 INTER-LIGAND FREE ENERGY PREDICTED BY IDOCK:   -5.10 KCAL/MOL
REMARK 924 INTRA-LIGAND FREE ENERGY PREDICTED BY IDOCK:   -0.10 KCAL/MOL
REMARK 927      BINDING AFFINITY PREDICTED BY RF-SCORE:    0.00 PKD
ROOT
HETATM    1  C   UNL     1     -12.059  12.063  63.366  1.00  0.00    -0.493 C  
HETATM    2  N   UNL     1     -11.262  11.974  64.574  1.00  0.00    -0.321 N  
HETATM    3  C   UNL     1     -11.479  12.807  65.646  1.00  0.00    -0.342 A  
HETATM    4  C   UNL     1     -10.740  12.708  66.789  1.00  0.00    -0.239 A  
HETATM    5  C   UNL     1      -9.705  11.747  66.966  1.00  0.00    -0.185 C  
HETATM    6  N   UNL     1     -11.241  13.674  67.618  1.00  0.00    -0.269 NA 
HETATM    7  O   UNL     1      -9.060  11.650  68.008  1.00  0.00    -0.164 OA 
HETATM    8  N   UNL     1      -9.510  10.945  65.839  1.00  0.00    -0.198 N  
HETATM    9  O   UNL     1     -10.031  10.246  63.702  1.00  0.00    -0.243 OA 
HETATM   10  C   UNL     1     -12.240  14.314  66.930  1.00  0.00    -0.331 A  
HETATM   11  N   UNL     1     -12.406  13.801  65.727  1.00  0.00    -0.463 NA 
HETATM   12  C   UNL     1      -8.468   9.937  65.882  1.00  0.00    -0.130 C  
HETATM   13  C   UNL     1     -10.258  11.012  64.645  1.00  0.00    -0.330 C  
ENDROOT
BRANCH   6  14
HETATM   14  C   UNL     1     -10.787  14.008  68.953  1.00  0.00    -0.258 C  
BRANCH  14  15
HETATM   15  C   UNL     1     -11.712  13.476  70.052  1.00  0.00    -0.241 C  
HETATM   16  H   UNL     1     -13.460  13.951  70.878  1.00  0.00     0.000 HD 
HETATM   17  O   UNL     1     -12.886  14.281  70.196  1.00  0.00    -0.281 OA 
BRANCH  15  18
HETATM   18  C   UNL     1     -12.128  12.030  69.741  1.00  0.00    -0.248 C  
HETATM   19  O   UNL     1     -12.262  11.242  70.921  1.00  0.00    -0.365 OA 
HETATM   20  H   UNL     1     -12.519  10.348  70.729  1.00  0.00     0.000 HD 
ENDBRANCH  15  18
ENDBRANCH  14  15
ENDBRANCH   6  14
TORSDOF 3
ENDMDL
MODEL       99
REMARK 921   NORMALIZED FREE ENERGY PREDICTED BY IDOCK:   -4.02 KCAL/MOL
REMARK 922        TOTAL FREE ENERGY PREDICTED BY IDOCK:   -5.20 KCAL/MOL
REMARK 923 INTER-LIGAND FREE ENERGY PREDICTED BY IDOCK:   -4.57 KCAL/MOL
REMARK 924 INTRA-LIGAND FREE ENERGY PREDICTED BY IDOCK:   -0.63 KCAL/MOL
REMARK 927      BINDING AFFINITY PREDICTED BY RF-SCORE:    0.00 PKD
ROOT
HETATM    1  C   UNL     1     -12.059   6.782  72.032  1.00  0.00    -0.305 C  
HETATM    2  N   UNL     1     -11.912   8.082  71.405  1.00  0.00    -0.293 N  
HETATM    3  C   UNL     1     -11.145   8.257  70.277  1.00  0.00    -0.219 A  
HETATM    4  C   UNL     1     -11.025   9.477  69.679  1.00  0.00    -0.212 A  
HETATM    5  C   UNL     1     -11.676  10.648  70.160  1.00  0.00    -0.332 C  
HETATM    6  N   UNL     1     -10.210   9.263  68.601  1.00  0.00    -0.193 NA 
HETATM    7  O   UNL     1     -11.580  11.739  69.599  1.00  0.00    -0.293 OA 
HETATM    8  N   UNL     1     -12.419  10.419  71.320  1.00  0.00    -0.379 N  
HETATM    9  O   UNL     1     -13.270   9.055  72.976  1.00  0.00    -0.306 OA 
HETATM   10  C   UNL     1      -9.869   7.935  68.615  1.00  0.00    -0.170 A  
HETATM   11  N   UNL     1     -10.430   7.300  69.625  1.00  0.00    -0.225 NA 
HETATM   12  C   UNL     1     -13.116  11.537  71.925  1.00  0.00    -0.387 C  
HETATM   13  C   UNL     1     -12.574   9.173  71.962  1.00  0.00    -0.390 C  
ENDROOT
BRANCH   6  14
HETATM   14  C   UNL     1      -9.744  10.245  67.643  1.00  0.00    -0.164 C  
BRANCH  14  15
HETATM   15  C   UNL     1      -8.244  10.535  67.764  1.00  0.00    -0.107 C  
HETATM   16  H   UNL     1      -6.735  11.061  66.578  1.00  0.00     0.000 HD 
HETATM   17  O   UNL     1      -7.665  10.881  66.503  1.00  0.00    -0.138 OA 
BRANCH  15  18
HETATM   18  C   UNL     1      -8.005  11.680  68.760  1.00  0.00    -0.086 C  
HETATM   19  O   UNL     1      -9.027  12.672  68.696  1.00  0.00    -0.372 OA 
HETATM   20  H   UNL     1      -8.879  13.380  69.312  1.00  0.00     0.000 HD 
ENDBRANCH  15  18
ENDBRANCH  14  15
ENDBRANCH   6  14
TORSDOF 3
ENDMDL
MODEL      100
REMARK 921   NORMALIZED FREE ENERGY PREDICTED BY IDOCK:   -4.01 KCAL/MOL
REMARK 922        TOTAL FREE ENERGY PREDICTED BY IDOCK:   -5.18 KCAL/MOL
REMARK 923 INTER-LIGAND FREE ENERGY PREDICTED BY IDOCK:   -4.85 KCAL/MOL
REMARK 924 INTRA-LIGAND FREE ENERGY PREDICTED BY IDOCK:   -0.33 KCAL/MOL
REMARK 927      BINDING AFFINITY PREDICTED BY RF-SCORE:    0.00 PKD
ROOT
HETATM    1  C   UNL     1     -13.365  11.864  71.978  1.00  0.00    -0.320 C  
HETATM    2  N   UNL     1     -12.632  10.840  71.258  1.00  0.00    -0.403 N  
HETATM    3  C   UNL     1     -11.876  11.138  70.149  1.00  0.00    -0.365 A  
HETATM    4  C   UNL     1     -11.172  10.175  69.486  1.00  0.00    -0.238 A  
HETATM    5  C   UNL     1     -11.158   8.808  69.882  1.00  0.00    -0.123 C  
HETATM    6  N   UNL     1     -10.546  10.837  68.465  1.00  0.00    -0.182 NA 
HETATM    7  O   UNL     1     -10.501   7.952  69.291  1.00  0.00    -0.218 OA 
HETATM    8  N   UNL     1     -11.962   8.557  70.997  1.00  0.00    -0.267 N  
HETATM    9  O   UNL     1     -13.367   9.218  72.704  1.00  0.00    -0.430 OA 
HETATM   10  C   UNL     1     -10.916  12.154  68.554  1.00  0.00    -0.238 A  
HETATM   11  N   UNL     1     -11.723  12.362  69.575  1.00  0.00    -0.315 NA 
HETATM   12  C   UNL     1     -12.051   7.197  71.491  1.00  0.00    -0.342 C  
HETATM   13  C   UNL     1     -12.696   9.525  71.713  1.00  0.00    -0.404 C  
ENDROOT
BRANCH   6  14
HETATM   14  C   UNL     1      -9.691  10.267  67.443  1.00  0.00    -0.160 C  
BRANCH  14  15
HETATM   15  C   UNL     1      -9.062  11.324  66.530  1.00  0.00    -0.184 C  
HETATM   16  H   UNL     1      -7.259  11.799  65.832  1.00  0.00     0.000 HD 
HETATM   17  O   UNL     1      -7.649  11.143  66.398  1.00  0.00    -0.145 OA 
BRANCH  15  18
HETATM   18  C   UNL     1      -9.709  11.273  65.137  1.00  0.00    -0.244 C  
HETATM   19  O   UNL     1     -11.108  11.542  65.182  1.00  0.00    -0.271 OA 
HETATM   20  H   UNL     1     -11.507  11.510  64.321  1.00  0.00     0.000 HD 
ENDBRANCH  15  18
ENDBRANCH  14  15
ENDBRANCH   6  14
TORSDOF 3
ENDMDL
MODEL      101
REMARK 921   NORMALIZED FREE ENERGY PREDICTED BY IDOCK:   -3.96 KCAL/MOL
REMARK 922        TOTAL FREE ENERGY PREDICTED BY IDOCK:   -5.13 KCAL/MOL
REMARK 923 INTER-LIGAND FREE ENERGY PREDICTED BY IDOCK:   -4.41 KCAL/MOL
REMARK 924 INTRA-LIGAND FREE ENERGY PREDICTED BY IDOCK:   -0.72 KCAL/MOL
REMARK 927      BINDING AFFINITY PREDICTED BY RF-SCORE:    0.00 PKD
ROOT
HETATM    1  C   UNL     1     -13.132   9.035  72.329  1.00  0.00    -0.445 C  
HETATM    2  N   UNL     1     -12.487   9.890  71.351  1.00  0.00    -0.367 N  
HETATM    3  C   UNL     1     -11.632   9.383  70.402  1.00  0.00    -0.192 A  
HETATM    4  C   UNL     1     -11.041  10.187  69.471  1.00  0.00    -0.250 A  
HETATM    5  C   UNL     1     -11.262  11.592  69.403  1.00  0.00    -0.246 C  
HETATM    6  N   UNL     1     -10.284   9.344  68.705  1.00  0.00    -0.197 NA 
HETATM    7  O   UNL     1     -10.744  12.305  68.545  1.00  0.00    -0.223 OA 
HETATM    8  N   UNL     1     -12.118  12.057  70.405  1.00  0.00    -0.355 N  
HETATM    9  O   UNL     1     -13.514  11.750  72.217  1.00  0.00    -0.423 OA 
HETATM   10  C   UNL     1     -10.442   8.083  69.222  1.00  0.00    -0.215 A  
HETATM   11  N   UNL     1     -11.262   8.082  70.254  1.00  0.00    -0.233 NA 
HETATM   12  C   UNL     1     -12.409  13.476  70.459  1.00  0.00    -0.342 C  
HETATM   13  C   UNL     1     -12.752  11.257  71.377  1.00  0.00    -0.396 C  
ENDROOT
BRANCH   6  14
HETATM   14  C   UNL     1      -9.431   9.698  67.589  1.00  0.00    -0.133 C  
BRANCH  14  15
HETATM   15  C   UNL     1      -7.996   9.185  67.744  1.00  0.00    -0.101 C  
HETATM   16  H   UNL     1      -6.551   8.450  66.589  1.00  0.00     0.000 HD 
HETATM   17  O   UNL     1      -7.441   8.769  66.493  1.00  0.00    -0.083 OA 
BRANCH  15  18
HETATM   18  C   UNL     1      -7.104  10.279  68.352  1.00  0.00    -0.078 C  
HETATM   19  O   UNL     1      -7.848  11.439  68.716  1.00  0.00    -0.136 OA 
HETATM   20  H   UNL     1      -7.297  12.115  69.092  1.00  0.00     0.000 HD 
ENDBRANCH  15  18
ENDBRANCH  14  15
ENDBRANCH   6  14
TORSDOF 3
ENDMDL
MODEL      102
REMARK 921   NORMALIZED FREE ENERGY PREDICTED BY IDOCK:   -3.96 KCAL/MOL
REMARK 922        TOTAL FREE ENERGY PREDICTED BY IDOCK:   -5.13 KCAL/MOL
REMARK 923 INTER-LIGAND FREE ENERGY PREDICTED BY IDOCK:   -4.89 KCAL/MOL
REMARK 924 INTRA-LIGAND FREE ENERGY PREDICTED BY IDOCK:   -0.24 KCAL/MOL
REMARK 927      BINDING AFFINITY PREDICTED BY RF-SCORE:    0.00 PKD
ROOT
HETATM    1  C   UNL     1     -11.706  12.776  69.312  1.00  0.00    -0.319 C  
HETATM    2  N   UNL     1     -11.614  11.396  69.749  1.00  0.00    -0.310 N  
HETATM    3  C   UNL     1     -10.817  10.484  69.098  1.00  0.00    -0.237 A  
HETATM    4  C   UNL     1     -10.717   9.192  69.524  1.00  0.00    -0.215 A  
HETATM    5  C   UNL     1     -11.412   8.690  70.661  1.00  0.00    -0.228 C  
HETATM    6  N   UNL     1      -9.844   8.600  68.653  1.00  0.00    -0.165 NA 
HETATM    7  O   UNL     1     -11.296   7.530  71.051  1.00  0.00    -0.262 OA 
HETATM    8  N   UNL     1     -12.224   9.651  71.268  1.00  0.00    -0.339 N  
HETATM    9  O   UNL     1     -13.075  11.786  71.474  1.00  0.00    -0.407 OA 
HETATM   10  C   UNL     1      -9.478   9.556  67.741  1.00  0.00    -0.131 A  
HETATM   11  N   UNL     1     -10.055  10.713  67.994  1.00  0.00    -0.154 NA 
HETATM   12  C   UNL     1     -13.002   9.262  72.428  1.00  0.00    -0.377 C  
HETATM   13  C   UNL     1     -12.347  10.996  70.863  1.00  0.00    -0.402 C  
ENDROOT
BRANCH   6  14
HETATM   14  C   UNL     1      -9.412   7.217  68.646  1.00  0.00    -0.140 C  
BRANCH  14  15
HETATM   15  C   UNL     1      -9.294   6.633  67.234  1.00  0.00    -0.132 C  
HETATM   16  H   UNL     1      -7.888   5.836  66.072  1.00  0.00     0.000 HD 
HETATM   17  O   UNL     1      -7.962   6.197  66.947  1.00  0.00    -0.103 OA 
BRANCH  15  18
HETATM   18  C   UNL     1     -10.258   5.447  67.068  1.00  0.00    -0.233 C  
HETATM   19  O   UNL     1     -11.405   5.790  66.294  1.00  0.00    -0.733 OA 
HETATM   20  H   UNL     1     -12.000   5.057  66.191  1.00  0.00     0.000 HD 
ENDBRANCH  15  18
ENDBRANCH  14  15
ENDBRANCH   6  14
TORSDOF 3
ENDMDL
MODEL      103
REMARK 921   NORMALIZED FREE ENERGY PREDICTED BY IDOCK:   -3.95 KCAL/MOL
REMARK 922        TOTAL FREE ENERGY PREDICTED BY IDOCK:   -5.12 KCAL/MOL
REMARK 923 INTER-LIGAND FREE ENERGY PREDICTED BY IDOCK:   -4.92 KCAL/MOL
REMARK 924 INTRA-LIGAND FREE ENERGY PREDICTED BY IDOCK:   -0.19 KCAL/MOL
REMARK 927      BINDING AFFINITY PREDICTED BY RF-SCORE:    0.00 PKD
ROOT
HETATM    1  C   UNL     1      -9.096  17.976  68.440  1.00  0.00    -0.286 C  
HETATM    2  N   UNL     1      -8.819  16.566  68.245  1.00  0.00    -0.203 N  
HETATM    3  C   UNL     1      -9.535  15.806  67.350  1.00  0.00    -0.212 A  
HETATM    4  C   UNL     1      -9.259  14.484  67.155  1.00  0.00    -0.223 A  
HETATM    5  C   UNL     1      -8.222  13.795  67.845  1.00  0.00    -0.166 C  
HETATM    6  N   UNL     1     -10.152  14.074  66.203  1.00  0.00    -0.300 NA 
HETATM    7  O   UNL     1      -7.966  12.609  67.644  1.00  0.00    -0.144 OA 
HETATM    8  N   UNL     1      -7.545  14.606  68.758  1.00  0.00    -0.131 N  
HETATM    9  O   UNL     1      -7.131  16.625  69.797  1.00  0.00    -0.050 OA 
HETATM   10  C   UNL     1     -10.928  15.160  65.887  1.00  0.00    -0.339 A  
HETATM   11  N   UNL     1     -10.568  16.228  66.571  1.00  0.00    -0.291 NA 
HETATM   12  C   UNL     1      -6.476  14.018  69.542  1.00  0.00    -0.122 C  
HETATM   13  C   UNL     1      -7.795  15.976  68.981  1.00  0.00    -0.222 C  
ENDROOT
BRANCH   6  14
HETATM   14  C   UNL     1     -10.301  12.741  65.654  1.00  0.00    -0.279 C  
BRANCH  14  15
HETATM   15  C   UNL     1     -10.909  12.736  64.248  1.00  0.00    -0.390 C  
HETATM   16  H   UNL     1     -10.489  11.986  62.452  1.00  0.00     0.000 HD 
HETATM   17  O   UNL     1     -10.112  11.989  63.325  1.00  0.00    -0.430 OA 
BRANCH  15  18
HETATM   18  C   UNL     1     -12.326  12.143  64.285  1.00  0.00    -0.371 C  
HETATM   19  O   UNL     1     -12.906  12.052  62.987  1.00  0.00    -0.766 OA 
HETATM   20  H   UNL     1     -13.782  11.685  63.010  1.00  0.00     0.000 HD 
ENDBRANCH  15  18
ENDBRANCH  14  15
ENDBRANCH   6  14
TORSDOF 3
ENDMDL
MODEL      104
REMARK 921   NORMALIZED FREE ENERGY PREDICTED BY IDOCK:   -3.93 KCAL/MOL
REMARK 922        TOTAL FREE ENERGY PREDICTED BY IDOCK:   -5.10 KCAL/MOL
REMARK 923 INTER-LIGAND FREE ENERGY PREDICTED BY IDOCK:   -4.78 KCAL/MOL
REMARK 924 INTRA-LIGAND FREE ENERGY PREDICTED BY IDOCK:   -0.31 KCAL/MOL
REMARK 927      BINDING AFFINITY PREDICTED BY RF-SCORE:    0.00 PKD
ROOT
HETATM    1  C   UNL     1      -7.907   9.700  68.003  1.00  0.00    -0.086 C  
HETATM    2  N   UNL     1      -8.400  10.079  66.692  1.00  0.00    -0.125 N  
HETATM    3  C   UNL     1      -9.611  10.709  66.531  1.00  0.00    -0.180 A  
HETATM    4  C   UNL     1     -10.063  11.082  65.299  1.00  0.00    -0.275 A  
HETATM    5  C   UNL     1      -9.329  10.859  64.100  1.00  0.00    -0.234 C  
HETATM    6  N   UNL     1     -11.273  11.677  65.532  1.00  0.00    -0.253 NA 
HETATM    7  O   UNL     1      -9.735  11.220  62.996  1.00  0.00    -0.341 OA 
HETATM    8  N   UNL     1      -8.120  10.194  64.319  1.00  0.00    -0.157 N  
HETATM    9  O   UNL     1      -6.523   9.235  65.680  1.00  0.00    -0.066 OA 
HETATM   10  C   UNL     1     -11.495  11.618  66.884  1.00  0.00    -0.247 A  
HETATM   11  N   UNL     1     -10.495  11.035  67.514  1.00  0.00    -0.198 NA 
HETATM   12  C   UNL     1      -7.284   9.888  63.174  1.00  0.00    -0.128 C  
HETATM   13  C   UNL     1      -7.616   9.802  65.576  1.00  0.00    -0.118 C  
ENDROOT
BRANCH   6  14
HETATM   14  C   UNL     1     -12.185  12.228  64.549  1.00  0.00    -0.388 C  
BRANCH  14  15
HETATM   15  C   UNL     1     -12.364  13.744  64.681  1.00  0.00    -0.372 C  
HETATM   16  H   UNL     1     -13.515  15.020  65.686  1.00  0.00     0.000 HD 
HETATM   17  O   UNL     1     -13.403  14.080  65.605  1.00  0.00    -0.636 OA 
BRANCH  15  18
HETATM   18  C   UNL     1     -11.050  14.395  65.142  1.00  0.00    -0.362 C  
HETATM   19  O   UNL     1      -9.991  14.188  64.210  1.00  0.00    -0.616 OA 
HETATM   20  H   UNL     1      -9.179  14.591  64.495  1.00  0.00     0.000 HD 
ENDBRANCH  15  18
ENDBRANCH  14  15
ENDBRANCH   6  14
TORSDOF 3
ENDMDL
MODEL      105
REMARK 921   NORMALIZED FREE ENERGY PREDICTED BY IDOCK:   -3.92 KCAL/MOL
REMARK 922        TOTAL FREE ENERGY PREDICTED BY IDOCK:   -5.08 KCAL/MOL
REMARK 923 INTER-LIGAND FREE ENERGY PREDICTED BY IDOCK:   -4.99 KCAL/MOL
REMARK 924 INTRA-LIGAND FREE ENERGY PREDICTED BY IDOCK:   -0.09 KCAL/MOL
REMARK 927      BINDING AFFINITY PREDICTED BY RF-SCORE:    0.00 PKD
ROOT
HETATM    1  C   UNL     1      -9.901  11.664  67.042  1.00  0.00    -0.193 C  
HETATM    2  N   UNL     1     -10.664  11.796  68.268  1.00  0.00    -0.204 N  
HETATM    3  C   UNL     1     -10.788  10.755  69.157  1.00  0.00    -0.237 A  
HETATM    4  C   UNL     1     -11.491  10.889  70.319  1.00  0.00    -0.302 A  
HETATM    5  C   UNL     1     -12.136  12.098  70.704  1.00  0.00    -0.250 C  
HETATM    6  N   UNL     1     -11.385   9.673  70.938  1.00  0.00    -0.329 NA 
HETATM    7  O   UNL     1     -12.747  12.215  71.765  1.00  0.00    -0.267 OA 
HETATM    8  N   UNL     1     -12.000  13.113  69.754  1.00  0.00    -0.323 N  
HETATM    9  O   UNL     1     -11.189  13.973  67.772  1.00  0.00    -0.263 OA 
HETATM   10  C   UNL     1     -10.643   8.867  70.112  1.00  0.00    -0.222 A  
HETATM   11  N   UNL     1     -10.265   9.505  69.023  1.00  0.00    -0.192 NA 
HETATM   12  C   UNL     1     -12.630  14.392  70.016  1.00  0.00    -0.233 C  
HETATM   13  C   UNL     1     -11.276  13.015  68.548  1.00  0.00    -0.274 C  
ENDROOT
BRANCH   6  14
HETATM   14  C   UNL     1     -11.977   9.274  72.198  1.00  0.00    -0.246 C  
BRANCH  14  15
HETATM   15  C   UNL     1     -13.281   8.488  72.027  1.00  0.00    -0.369 C  
HETATM   16  H   UNL     1     -14.989   8.650  71.019  1.00  0.00     0.000 HD 
HETATM   17  O   UNL     1     -14.181   9.137  71.125  1.00  0.00    -0.186 OA 
BRANCH  15  18
HETATM   18  C   UNL     1     -12.981   7.073  71.508  1.00  0.00    -0.359 C  
HETATM   19  O   UNL     1     -12.450   6.227  72.525  1.00  0.00    -0.542 OA 
HETATM   20  H   UNL     1     -12.265   5.352  72.204  1.00  0.00     0.000 HD 
ENDBRANCH  15  18
ENDBRANCH  14  15
ENDBRANCH   6  14
TORSDOF 3
ENDMDL
MODEL      106
REMARK 921   NORMALIZED FREE ENERGY PREDICTED BY IDOCK:   -3.92 KCAL/MOL
REMARK 922        TOTAL FREE ENERGY PREDICTED BY IDOCK:   -5.08 KCAL/MOL
REMARK 923 INTER-LIGAND FREE ENERGY PREDICTED BY IDOCK:   -4.46 KCAL/MOL
REMARK 924 INTRA-LIGAND FREE ENERGY PREDICTED BY IDOCK:   -0.63 KCAL/MOL
REMARK 927      BINDING AFFINITY PREDICTED BY RF-SCORE:    0.00 PKD
ROOT
HETATM    1  C   UNL     1     -10.400   6.696  73.934  1.00  0.00    -0.360 C  
HETATM    2  N   UNL     1      -9.790   7.495  72.888  1.00  0.00    -0.196 N  
HETATM    3  C   UNL     1     -10.515   8.412  72.164  1.00  0.00    -0.326 A  
HETATM    4  C   UNL     1      -9.935   9.176  71.195  1.00  0.00    -0.307 A  
HETATM    5  C   UNL     1      -8.553   9.094  70.862  1.00  0.00    -0.206 C  
HETATM    6  N   UNL     1     -10.945   9.961  70.711  1.00  0.00    -0.327 NA 
HETATM    7  O   UNL     1      -8.034   9.805  70.003  1.00  0.00    -0.154 OA 
HETATM    8  N   UNL     1      -7.870   8.131  71.609  1.00  0.00    -0.102 N  
HETATM    9  O   UNL     1      -7.748   6.515  73.252  1.00  0.00    -0.093 OA 
HETATM   10  C   UNL     1     -12.082   9.619  71.398  1.00  0.00    -0.388 A  
HETATM   11  N   UNL     1     -11.844   8.680  72.292  1.00  0.00    -0.376 NA 
HETATM   12  C   UNL     1      -6.457   7.934  71.353  1.00  0.00    -0.038 C  
HETATM   13  C   UNL     1      -8.433   7.330  72.624  1.00  0.00    -0.107 C  
ENDROOT
BRANCH   6  14
HETATM   14  C   UNL     1     -10.865  10.938  69.644  1.00  0.00    -0.216 C  
BRANCH  14  15
HETATM   15  C   UNL     1     -11.536  10.468  68.349  1.00  0.00    -0.214 C  
HETATM   16  H   UNL     1     -12.436  11.274  66.768  1.00  0.00     0.000 HD 
HETATM   17  O   UNL     1     -12.020  11.565  67.571  1.00  0.00    -0.629 OA 
BRANCH  15  18
HETATM   18  C   UNL     1     -10.544   9.651  67.506  1.00  0.00    -0.277 C  
HETATM   19  O   UNL     1      -9.244  10.235  67.487  1.00  0.00    -0.140 OA 
HETATM   20  H   UNL     1      -8.631   9.730  66.965  1.00  0.00     0.000 HD 
ENDBRANCH  15  18
ENDBRANCH  14  15
ENDBRANCH   6  14
TORSDOF 3
ENDMDL
MODEL      107
REMARK 921   NORMALIZED FREE ENERGY PREDICTED BY IDOCK:   -3.92 KCAL/MOL
REMARK 922        TOTAL FREE ENERGY PREDICTED BY IDOCK:   -5.08 KCAL/MOL
REMARK 923 INTER-LIGAND FREE ENERGY PREDICTED BY IDOCK:   -4.58 KCAL/MOL
REMARK 924 INTRA-LIGAND FREE ENERGY PREDICTED BY IDOCK:   -0.50 KCAL/MOL
REMARK 927      BINDING AFFINITY PREDICTED BY RF-SCORE:    0.00 PKD
ROOT
HETATM    1  C   UNL     1      -5.767  12.609  67.886  1.00  0.00    -0.110 C  
HETATM    2  N   UNL     1      -6.796  11.962  67.094  1.00  0.00    -0.144 N  
HETATM    3  C   UNL     1      -8.113  12.349  67.166  1.00  0.00    -0.167 A  
HETATM    4  C   UNL     1      -9.075  11.751  66.406  1.00  0.00    -0.213 A  
HETATM    5  C   UNL     1      -8.799  10.700  65.486  1.00  0.00    -0.188 C  
HETATM    6  N   UNL     1     -10.236  12.396  66.734  1.00  0.00    -0.218 NA 
HETATM    7  O   UNL     1      -9.670  10.184  64.788  1.00  0.00    -0.294 OA 
HETATM    8  N   UNL     1      -7.452  10.330  65.472  1.00  0.00    -0.146 N  
HETATM    9  O   UNL     1      -5.256  10.551  66.144  1.00  0.00    -0.050 OA 
HETATM   10  C   UNL     1      -9.918  13.333  67.684  1.00  0.00    -0.229 A  
HETATM   11  N   UNL     1      -8.630  13.326  67.961  1.00  0.00    -0.169 NA 
HETATM   12  C   UNL     1      -7.042   9.254  64.591  1.00  0.00    -0.096 C  
HETATM   13  C   UNL     1      -6.429  10.929  66.235  1.00  0.00    -0.129 C  
ENDROOT
BRANCH   6  14
HETATM   14  C   UNL     1     -11.565  12.125  66.226  1.00  0.00    -0.360 C  
BRANCH  14  15
HETATM   15  C   UNL     1     -11.977  13.068  65.091  1.00  0.00    -0.402 C  
HETATM   16  H   UNL     1     -11.115  14.374  63.861  1.00  0.00     0.000 HD 
HETATM   17  O   UNL     1     -10.860  13.789  64.564  1.00  0.00    -0.393 OA 
BRANCH  15  18
HETATM   18  C   UNL     1     -12.644  12.273  63.957  1.00  0.00    -0.420 C  
HETATM   19  O   UNL     1     -11.698  11.528  63.194  1.00  0.00    -0.854 OA 
HETATM   20  H   UNL     1     -12.110  11.037  62.493  1.00  0.00     0.000 HD 
ENDBRANCH  15  18
ENDBRANCH  14  15
ENDBRANCH   6  14
TORSDOF 3
ENDMDL
MODEL      108
REMARK 921   NORMALIZED FREE ENERGY PREDICTED BY IDOCK:   -3.90 KCAL/MOL
REMARK 922        TOTAL FREE ENERGY PREDICTED BY IDOCK:   -5.06 KCAL/MOL
REMARK 923 INTER-LIGAND FREE ENERGY PREDICTED BY IDOCK:   -4.56 KCAL/MOL
REMARK 924 INTRA-LIGAND FREE ENERGY PREDICTED BY IDOCK:   -0.50 KCAL/MOL
REMARK 927      BINDING AFFINITY PREDICTED BY RF-SCORE:    0.00 PKD
ROOT
HETATM    1  C   UNL     1     -11.767  12.142  66.109  1.00  0.00    -0.315 C  
HETATM    2  N   UNL     1     -10.529  12.749  66.558  1.00  0.00    -0.260 N  
HETATM    3  C   UNL     1     -10.471  14.067  66.946  1.00  0.00    -0.276 A  
HETATM    4  C   UNL     1      -9.309  14.630  67.386  1.00  0.00    -0.196 A  
HETATM    5  C   UNL     1      -8.083  13.912  67.484  1.00  0.00    -0.182 C  
HETATM    6  N   UNL     1      -9.636  15.924  67.687  1.00  0.00    -0.220 NA 
HETATM    7  O   UNL     1      -7.047  14.423  67.905  1.00  0.00    -0.123 OA 
HETATM    8  N   UNL     1      -8.194  12.588  67.054  1.00  0.00    -0.159 N  
HETATM    9  O   UNL     1      -9.389  10.781  66.258  1.00  0.00    -0.171 OA 
HETATM   10  C   UNL     1     -10.967  16.079  67.397  1.00  0.00    -0.237 A  
HETATM   11  N   UNL     1     -11.499  14.959  66.948  1.00  0.00    -0.341 NA 
HETATM   12  C   UNL     1      -7.010  11.752  67.084  1.00  0.00    -0.145 C  
HETATM   13  C   UNL     1      -9.377  11.969  66.601  1.00  0.00    -0.219 C  
ENDROOT
BRANCH   6  14
HETATM   14  C   UNL     1      -8.751  16.964  68.172  1.00  0.00    -0.226 C  
BRANCH  14  15
HETATM   15  C   UNL     1      -9.267  18.376  67.879  1.00  0.00    -0.283 C  
HETATM   16  H   UNL     1      -9.154  20.194  68.682  1.00  0.00     0.000 HD 
HETATM   17  O   UNL     1      -8.834  19.318  68.864  1.00  0.00    -0.358 OA 
BRANCH  15  18
HETATM   18  C   UNL     1      -8.787  18.839  66.494  1.00  0.00    -0.312 C  
HETATM   19  O   UNL     1      -8.211  17.774  65.740  1.00  0.00    -0.538 OA 
HETATM   20  H   UNL     1      -7.914  18.060  64.884  1.00  0.00     0.000 HD 
ENDBRANCH  15  18
ENDBRANCH  14  15
ENDBRANCH   6  14
TORSDOF 3
ENDMDL
MODEL      109
REMARK 921   NORMALIZED FREE ENERGY PREDICTED BY IDOCK:   -3.90 KCAL/MOL
REMARK 922        TOTAL FREE ENERGY PREDICTED BY IDOCK:   -5.05 KCAL/MOL
REMARK 923 INTER-LIGAND FREE ENERGY PREDICTED BY IDOCK:   -4.99 KCAL/MOL
REMARK 924 INTRA-LIGAND FREE ENERGY PREDICTED BY IDOCK:   -0.07 KCAL/MOL
REMARK 927      BINDING AFFINITY PREDICTED BY RF-SCORE:    0.00 PKD
ROOT
HETATM    1  C   UNL     1      -7.150  10.193  69.785  1.00  0.00    -0.127 C  
HETATM    2  N   UNL     1      -8.228   9.253  69.545  1.00  0.00    -0.113 N  
HETATM    3  C   UNL     1      -9.066   8.842  70.555  1.00  0.00    -0.200 A  
HETATM    4  C   UNL     1     -10.092   7.974  70.322  1.00  0.00    -0.192 A  
HETATM    5  C   UNL     1     -10.380   7.435  69.036  1.00  0.00    -0.210 C  
HETATM    6  N   UNL     1     -10.699   7.811  71.537  1.00  0.00    -0.221 NA 
HETATM    7  O   UNL     1     -11.321   6.671  68.832  1.00  0.00    -0.231 OA 
HETATM    8  N   UNL     1      -9.484   7.865  68.054  1.00  0.00    -0.148 N  
HETATM    9  O   UNL     1      -7.685   9.111  67.321  1.00  0.00    -0.094 OA 
HETATM   10  C   UNL     1     -10.001   8.572  72.439  1.00  0.00    -0.295 A  
HETATM   11  N   UNL     1      -9.004   9.213  71.863  1.00  0.00    -0.293 NA 
HETATM   12  C   UNL     1      -9.654   7.371  66.702  1.00  0.00    -0.190 C  
HETATM   13  C   UNL     1      -8.419   8.767  68.254  1.00  0.00    -0.130 C  
ENDROOT
BRANCH   6  14
HETATM   14  C   UNL     1     -11.833   6.963  71.846  1.00  0.00    -0.315 C  
BRANCH  14  15
HETATM   15  C   UNL     1     -13.175   7.590  71.453  1.00  0.00    -0.316 C  
HETATM   16  H   UNL     1     -15.115   7.203  71.676  1.00  0.00     0.000 HD 
HETATM   17  O   UNL     1     -14.283   6.815  71.920  1.00  0.00    -0.267 OA 
BRANCH  15  18
HETATM   18  C   UNL     1     -13.281   9.014  72.021  1.00  0.00    -0.429 C  
HETATM   19  O   UNL     1     -14.043   9.058  73.225  1.00  0.00    -1.218 OA 
HETATM   20  H   UNL     1     -14.108   9.938  73.577  1.00  0.00     0.000 HD 
ENDBRANCH  15  18
ENDBRANCH  14  15
ENDBRANCH   6  14
TORSDOF 3
ENDMDL
MODEL      110
REMARK 921   NORMALIZED FREE ENERGY PREDICTED BY IDOCK:   -3.89 KCAL/MOL
REMARK 922        TOTAL FREE ENERGY PREDICTED BY IDOCK:   -5.05 KCAL/MOL
REMARK 923 INTER-LIGAND FREE ENERGY PREDICTED BY IDOCK:   -4.78 KCAL/MOL
REMARK 924 INTRA-LIGAND FREE ENERGY PREDICTED BY IDOCK:   -0.27 KCAL/MOL
REMARK 927      BINDING AFFINITY PREDICTED BY RF-SCORE:    0.00 PKD
ROOT
HETATM    1  C   UNL     1     -11.607  15.285  68.295  1.00  0.00    -0.341 C  
HETATM    2  N   UNL     1     -11.498  13.854  68.084  1.00  0.00    -0.293 N  
HETATM    3  C   UNL     1     -11.151  13.329  66.862  1.00  0.00    -0.289 A  
HETATM    4  C   UNL     1     -11.030  11.984  66.671  1.00  0.00    -0.287 A  
HETATM    5  C   UNL     1     -11.243  11.028  67.705  1.00  0.00    -0.308 C  
HETATM    6  N   UNL     1     -10.668  11.844  65.359  1.00  0.00    -0.275 NA 
HETATM    7  O   UNL     1     -11.108   9.819  67.529  1.00  0.00    -0.234 OA 
HETATM    8  N   UNL     1     -11.617  11.614  68.917  1.00  0.00    -0.286 N  
HETATM    9  O   UNL     1     -12.060  13.432  70.267  1.00  0.00    -0.342 OA 
HETATM   10  C   UNL     1     -10.607  13.105  64.824  1.00  0.00    -0.372 A  
HETATM   11  N   UNL     1     -10.894  14.027  65.722  1.00  0.00    -0.286 NA 
HETATM   12  C   UNL     1     -11.884  10.747  70.048  1.00  0.00    -0.344 C  
HETATM   13  C   UNL     1     -11.744  12.998  69.154  1.00  0.00    -0.326 C  
ENDROOT
BRANCH   6  14
HETATM   14  C   UNL     1     -10.437  10.609  64.638  1.00  0.00    -0.205 C  
BRANCH  14  15
HETATM   15  C   UNL     1      -8.951  10.259  64.509  1.00  0.00    -0.219 C  
HETATM   16  H   UNL     1      -7.469  10.536  63.209  1.00  0.00     0.000 HD 
HETATM   17  O   UNL     1      -8.390  10.754  63.290  1.00  0.00    -0.125 OA 
BRANCH  15  18
HETATM   18  C   UNL     1      -8.165  10.837  65.696  1.00  0.00    -0.127 C  
HETATM   19  O   UNL     1      -8.262  10.017  66.858  1.00  0.00    -0.120 OA 
HETATM   20  H   UNL     1      -7.776  10.374  67.592  1.00  0.00     0.000 HD 
ENDBRANCH  15  18
ENDBRANCH  14  15
ENDBRANCH   6  14
TORSDOF 3
ENDMDL
MODEL      111
REMARK 921   NORMALIZED FREE ENERGY PREDICTED BY IDOCK:   -3.89 KCAL/MOL
REMARK 922        TOTAL FREE ENERGY PREDICTED BY IDOCK:   -5.05 KCAL/MOL
REMARK 923 INTER-LIGAND FREE ENERGY PREDICTED BY IDOCK:   -4.72 KCAL/MOL
REMARK 924 INTRA-LIGAND FREE ENERGY PREDICTED BY IDOCK:   -0.33 KCAL/MOL
REMARK 927      BINDING AFFINITY PREDICTED BY RF-SCORE:    0.00 PKD
ROOT
HETATM    1  C   UNL     1      -7.297   3.761  70.908  1.00  0.00    -0.037 C  
HETATM    2  N   UNL     1      -8.188   4.766  70.362  1.00  0.00    -0.082 N  
HETATM    3  C   UNL     1      -9.310   5.182  71.040  1.00  0.00    -0.151 A  
HETATM    4  C   UNL     1     -10.136   6.142  70.532  1.00  0.00    -0.189 A  
HETATM    5  C   UNL     1      -9.906   6.785  69.283  1.00  0.00    -0.155 C  
HETATM    6  N   UNL     1     -11.117   6.297  71.472  1.00  0.00    -0.270 NA 
HETATM    7  O   UNL     1     -10.644   7.666  68.845  1.00  0.00    -0.211 OA 
HETATM    8  N   UNL     1      -8.770   6.307  68.626  1.00  0.00    -0.121 N  
HETATM    9  O   UNL     1      -6.891   4.976  68.482  1.00  0.00    -0.052 OA 
HETATM   10  C   UNL     1     -10.843   5.414  72.486  1.00  0.00    -0.250 A  
HETATM   11  N   UNL     1      -9.745   4.727  72.247  1.00  0.00    -0.154 NA 
HETATM   12  C   UNL     1      -8.435   6.868  67.331  1.00  0.00    -0.121 C  
HETATM   13  C   UNL     1      -7.889   5.325  69.122  1.00  0.00    -0.085 C  
ENDROOT
BRANCH   6  14
HETATM   14  C   UNL     1     -12.263   7.181  71.409  1.00  0.00    -0.362 C  
BRANCH  14  15
HETATM   15  C   UNL     1     -12.120   8.413  72.308  1.00  0.00    -0.392 C  
HETATM   16  H   UNL     1     -10.950  10.017  72.452  1.00  0.00     0.000 HD 
HETATM   17  O   UNL     1     -11.039   9.253  71.894  1.00  0.00    -0.367 OA 
BRANCH  15  18
HETATM   18  C   UNL     1     -13.423   9.229  72.300  1.00  0.00    -0.482 C  
HETATM   19  O   UNL     1     -14.237   8.954  73.437  1.00  0.00    -1.241 OA 
HETATM   20  H   UNL     1     -15.042   9.458  73.432  1.00  0.00     0.000 HD 
ENDBRANCH  15  18
ENDBRANCH  14  15
ENDBRANCH   6  14
TORSDOF 3
ENDMDL
MODEL      112
REMARK 921   NORMALIZED FREE ENERGY PREDICTED BY IDOCK:   -3.87 KCAL/MOL
REMARK 922        TOTAL FREE ENERGY PREDICTED BY IDOCK:   -5.02 KCAL/MOL
REMARK 923 INTER-LIGAND FREE ENERGY PREDICTED BY IDOCK:   -4.73 KCAL/MOL
REMARK 924 INTRA-LIGAND FREE ENERGY PREDICTED BY IDOCK:   -0.28 KCAL/MOL
REMARK 927      BINDING AFFINITY PREDICTED BY RF-SCORE:    0.00 PKD
ROOT
HETATM    1  C   UNL     1     -13.190   9.945  72.082  1.00  0.00    -0.415 C  
HETATM    2  N   UNL     1     -12.232   9.725  71.016  1.00  0.00    -0.329 N  
HETATM    3  C   UNL     1     -11.773   8.467  70.704  1.00  0.00    -0.144 A  
HETATM    4  C   UNL     1     -10.886   8.262  69.688  1.00  0.00    -0.150 A  
HETATM    5  C   UNL     1     -10.375   9.314  68.876  1.00  0.00    -0.214 C  
HETATM    6  N   UNL     1     -10.676   6.911  69.670  1.00  0.00    -0.234 NA 
HETATM    7  O   UNL     1      -9.594   9.116  67.947  1.00  0.00    -0.143 OA 
HETATM    8  N   UNL     1     -10.854  10.572  69.252  1.00  0.00    -0.226 N  
HETATM    9  O   UNL     1     -12.163  11.968  70.540  1.00  0.00    -0.364 OA 
HETATM   10  C   UNL     1     -11.429   6.375  70.683  1.00  0.00    -0.362 A  
HETATM   11  N   UNL     1     -12.110   7.303  71.325  1.00  0.00    -0.322 NA 
HETATM   12  C   UNL     1     -10.393  11.733  68.516  1.00  0.00    -0.217 C  
HETATM   13  C   UNL     1     -11.776  10.822  70.289  1.00  0.00    -0.352 C  
ENDROOT
BRANCH   6  14
HETATM   14  C   UNL     1      -9.793   6.170  68.792  1.00  0.00    -0.136 C  
BRANCH  14  15
HETATM   15  C   UNL     1     -10.523   5.534  67.605  1.00  0.00    -0.191 C  
HETATM   16  H   UNL     1     -11.558   6.124  66.011  1.00  0.00     0.000 HD 
HETATM   17  O   UNL     1     -11.105   6.518  66.747  1.00  0.00    -0.362 OA 
BRANCH  15  18
HETATM   18  C   UNL     1      -9.552   4.665  66.790  1.00  0.00    -0.181 C  
HETATM   19  O   UNL     1      -9.824   3.273  66.933  1.00  0.00    -0.393 OA 
HETATM   20  H   UNL     1      -9.224   2.737  66.429  1.00  0.00     0.000 HD 
ENDBRANCH  15  18
ENDBRANCH  14  15
ENDBRANCH   6  14
TORSDOF 3
ENDMDL
MODEL      113
REMARK 921   NORMALIZED FREE ENERGY PREDICTED BY IDOCK:   -3.85 KCAL/MOL
REMARK 922        TOTAL FREE ENERGY PREDICTED BY IDOCK:   -5.00 KCAL/MOL
REMARK 923 INTER-LIGAND FREE ENERGY PREDICTED BY IDOCK:   -5.15 KCAL/MOL
REMARK 924 INTRA-LIGAND FREE ENERGY PREDICTED BY IDOCK:    0.15 KCAL/MOL
REMARK 927      BINDING AFFINITY PREDICTED BY RF-SCORE:    0.00 PKD
ROOT
HETATM    1  C   UNL     1     -10.065   8.710  66.677  1.00  0.00    -0.294 C  
HETATM    2  N   UNL     1     -10.576   9.629  67.675  1.00  0.00    -0.262 N  
HETATM    3  C   UNL     1     -10.956  10.910  67.350  1.00  0.00    -0.293 A  
HETATM    4  C   UNL     1     -11.454  11.766  68.288  1.00  0.00    -0.307 A  
HETATM    5  C   UNL     1     -11.624  11.410  69.656  1.00  0.00    -0.330 C  
HETATM    6  N   UNL     1     -11.727  12.919  67.605  1.00  0.00    -0.360 NA 
HETATM    7  O   UNL     1     -12.096  12.181  70.489  1.00  0.00    -0.364 OA 
HETATM    8  N   UNL     1     -11.199  10.109  69.935  1.00  0.00    -0.270 N  
HETATM    9  O   UNL     1     -10.354   8.050  69.324  1.00  0.00    -0.214 OA 
HETATM   10  C   UNL     1     -11.364  12.706  66.299  1.00  0.00    -0.329 A  
HETATM   11  N   UNL     1     -10.895  11.487  66.119  1.00  0.00    -0.282 NA 
HETATM   12  C   UNL     1     -11.300   9.628  71.300  1.00  0.00    -0.388 C  
HETATM   13  C   UNL     1     -10.688   9.193  68.992  1.00  0.00    -0.153 C  
ENDROOT
BRANCH   6  14
HETATM   14  C   UNL     1     -12.251  14.158  68.144  1.00  0.00    -0.144 C  
BRANCH  14  15
HETATM   15  C   UNL     1     -11.197  15.266  68.234  1.00  0.00    -0.314 C  
HETATM   16  H   UNL     1      -9.454  15.586  69.142  1.00  0.00     0.000 HD 
HETATM   17  O   UNL     1     -10.108  14.899  69.086  1.00  0.00    -0.229 OA 
BRANCH  15  18
HETATM   18  C   UNL     1     -10.653  15.596  66.835  1.00  0.00    -0.311 C  
HETATM   19  O   UNL     1     -10.504  16.999  66.632  1.00  0.00    -0.307 OA 
HETATM   20  H   UNL     1     -10.168  17.203  65.767  1.00  0.00     0.000 HD 
ENDBRANCH  15  18
ENDBRANCH  14  15
ENDBRANCH   6  14
TORSDOF 3
ENDMDL
MODEL      114
REMARK 921   NORMALIZED FREE ENERGY PREDICTED BY IDOCK:   -3.78 KCAL/MOL
REMARK 922        TOTAL FREE ENERGY PREDICTED BY IDOCK:   -4.92 KCAL/MOL
REMARK 923 INTER-LIGAND FREE ENERGY PREDICTED BY IDOCK:   -4.39 KCAL/MOL
REMARK 924 INTRA-LIGAND FREE ENERGY PREDICTED BY IDOCK:   -0.52 KCAL/MOL
REMARK 927      BINDING AFFINITY PREDICTED BY RF-SCORE:    0.00 PKD
ROOT
HETATM    1  C   UNL     1      -9.633   6.301  68.451  1.00  0.00    -0.121 C  
HETATM    2  N   UNL     1     -10.284   7.542  68.823  1.00  0.00    -0.193 N  
HETATM    3  C   UNL     1     -10.350   8.610  67.960  1.00  0.00    -0.223 A  
HETATM    4  C   UNL     1     -10.980   9.770  68.306  1.00  0.00    -0.164 A  
HETATM    5  C   UNL     1     -11.617   9.964  69.565  1.00  0.00     0.001 C  
HETATM    6  N   UNL     1     -10.852  10.581  67.212  1.00  0.00    -0.286 NA 
HETATM    7  O   UNL     1     -12.203  11.005  69.858  1.00  0.00    -0.325 OA 
HETATM    8  N   UNL     1     -11.498   8.859  70.411  1.00  0.00    -0.210 N  
HETATM    9  O   UNL     1     -10.822   6.705  70.890  1.00  0.00    -0.233 OA 
HETATM   10  C   UNL     1     -10.139   9.879  66.274  1.00  0.00    -0.241 A  
HETATM   11  N   UNL     1      -9.825   8.674  66.706  1.00  0.00    -0.228 NA 
HETATM   12  C   UNL     1     -12.087   8.937  71.733  1.00  0.00    -0.362 C  
HETATM   13  C   UNL     1     -10.863   7.643  70.086  1.00  0.00    -0.248 C  
ENDROOT
BRANCH   6  14
HETATM   14  C   UNL     1     -11.327  11.942  67.068  1.00  0.00    -0.329 C  
BRANCH  14  15
HETATM   15  C   UNL     1     -10.193  12.972  67.036  1.00  0.00    -0.245 C  
HETATM   16  H   UNL     1      -9.510  14.389  65.816  1.00  0.00     0.000 HD 
HETATM   17  O   UNL     1     -10.213  13.751  65.836  1.00  0.00    -0.296 OA 
BRANCH  15  18
HETATM   18  C   UNL     1     -10.297  13.912  68.247  1.00  0.00    -0.249 C  
HETATM   19  O   UNL     1     -10.882  13.271  69.378  1.00  0.00    -0.440 OA 
HETATM   20  H   UNL     1     -10.946  13.852  70.127  1.00  0.00     0.000 HD 
ENDBRANCH  15  18
ENDBRANCH  14  15
ENDBRANCH   6  14
TORSDOF 3
ENDMDL
MODEL      115
REMARK 921   NORMALIZED FREE ENERGY PREDICTED BY IDOCK:   -3.73 KCAL/MOL
REMARK 922        TOTAL FREE ENERGY PREDICTED BY IDOCK:   -4.86 KCAL/MOL
REMARK 923 INTER-LIGAND FREE ENERGY PREDICTED BY IDOCK:   -4.94 KCAL/MOL
REMARK 924 INTRA-LIGAND FREE ENERGY PREDICTED BY IDOCK:    0.09 KCAL/MOL
REMARK 927      BINDING AFFINITY PREDICTED BY RF-SCORE:    0.00 PKD
ROOT
HETATM    1  C   UNL     1      -9.856  20.131  66.259  1.00  0.00    -0.421 C  
HETATM    2  N   UNL     1      -9.353  18.904  66.846  1.00  0.00    -0.300 N  
HETATM    3  C   UNL     1      -9.805  17.671  66.441  1.00  0.00    -0.309 A  
HETATM    4  C   UNL     1      -9.316  16.517  66.981  1.00  0.00    -0.230 A  
HETATM    5  C   UNL     1      -8.309  16.495  67.988  1.00  0.00    -0.180 C  
HETATM    6  N   UNL     1      -9.983  15.513  66.334  1.00  0.00    -0.267 NA 
HETATM    7  O   UNL     1      -7.858  15.450  68.452  1.00  0.00    -0.123 OA 
HETATM    8  N   UNL     1      -7.905  17.773  68.380  1.00  0.00    -0.275 N  
HETATM    9  O   UNL     1      -7.950  20.076  68.232  1.00  0.00    -0.279 OA 
HETATM   10  C   UNL     1     -10.849  16.110  65.454  1.00  0.00    -0.307 A  
HETATM   11  N   UNL     1     -10.756  17.424  65.498  1.00  0.00    -0.522 NA 
HETATM   12  C   UNL     1      -6.897  17.890  69.416  1.00  0.00    -0.120 C  
HETATM   13  C   UNL     1      -8.380  18.986  67.840  1.00  0.00    -0.288 C  
ENDROOT
BRANCH   6  14
HETATM   14  C   UNL     1      -9.852  14.087  66.555  1.00  0.00    -0.290 C  
BRANCH  14  15
HETATM   15  C   UNL     1     -10.915  13.529  67.507  1.00  0.00    -0.268 C  
HETATM   16  H   UNL     1     -11.091  12.052  68.831  1.00  0.00     0.000 HD 
HETATM   17  O   UNL     1     -10.433  12.399  68.241  1.00  0.00    -0.212 OA 
BRANCH  15  18
HETATM   18  C   UNL     1     -11.366  14.616  68.495  1.00  0.00    -0.284 C  
HETATM   19  O   UNL     1     -11.605  14.093  69.800  1.00  0.00    -0.271 OA 
HETATM   20  H   UNL     1     -11.884  14.766  70.410  1.00  0.00     0.000 HD 
ENDBRANCH  15  18
ENDBRANCH  14  15
ENDBRANCH   6  14
TORSDOF 3
ENDMDL
MODEL      116
REMARK 921   NORMALIZED FREE ENERGY PREDICTED BY IDOCK:   -3.72 KCAL/MOL
REMARK 922        TOTAL FREE ENERGY PREDICTED BY IDOCK:   -4.85 KCAL/MOL
REMARK 923 INTER-LIGAND FREE ENERGY PREDICTED BY IDOCK:   -4.55 KCAL/MOL
REMARK 924 INTRA-LIGAND FREE ENERGY PREDICTED BY IDOCK:   -0.30 KCAL/MOL
REMARK 927      BINDING AFFINITY PREDICTED BY RF-SCORE:    0.00 PKD
ROOT
HETATM    1  C   UNL     1     -13.120  10.725  71.835  1.00  0.00    -0.451 C  
HETATM    2  N   UNL     1     -12.186  11.029  70.768  1.00  0.00    -0.358 N  
HETATM    3  C   UNL     1     -11.406  10.055  70.192  1.00  0.00    -0.291 A  
HETATM    4  C   UNL     1     -10.543  10.340  69.175  1.00  0.00    -0.230 A  
HETATM    5  C   UNL     1     -10.385  11.647  68.631  1.00  0.00    -0.215 C  
HETATM    6  N   UNL     1      -9.961   9.143  68.859  1.00  0.00    -0.175 NA 
HETATM    7  O   UNL     1      -9.621  11.889  67.698  1.00  0.00    -0.179 OA 
HETATM    8  N   UNL     1     -11.181  12.601  69.269  1.00  0.00    -0.225 N  
HETATM    9  O   UNL     1     -12.773  13.246  70.810  1.00  0.00    -0.288 OA 
HETATM   10  C   UNL     1     -10.488   8.205  69.709  1.00  0.00    -0.227 A  
HETATM   11  N   UNL     1     -11.374   8.736  70.528  1.00  0.00    -0.253 NA 
HETATM   12  C   UNL     1     -11.099  13.978  68.823  1.00  0.00    -0.264 C  
HETATM   13  C   UNL     1     -12.090  12.342  70.316  1.00  0.00    -0.297 C  
ENDROOT
BRANCH   6  14
HETATM   14  C   UNL     1      -8.944   8.898  67.856  1.00  0.00    -0.139 C  
BRANCH  14  15
HETATM   15  C   UNL     1      -9.497   8.232  66.592  1.00  0.00    -0.209 C  
HETATM   16  H   UNL     1      -9.997   8.755  64.737  1.00  0.00     0.000 HD 
HETATM   17  O   UNL     1      -9.654   9.168  65.521  1.00  0.00    -0.257 OA 
BRANCH  15  18
HETATM   18  C   UNL     1      -8.563   7.099  66.138  1.00  0.00    -0.146 C  
HETATM   19  O   UNL     1      -9.083   6.389  65.017  1.00  0.00    -0.347 OA 
HETATM   20  H   UNL     1      -8.505   5.689  64.736  1.00  0.00     0.000 HD 
ENDBRANCH  15  18
ENDBRANCH  14  15
ENDBRANCH   6  14
TORSDOF 3
ENDMDL
MODEL      117
REMARK 921   NORMALIZED FREE ENERGY PREDICTED BY IDOCK:   -3.70 KCAL/MOL
REMARK 922        TOTAL FREE ENERGY PREDICTED BY IDOCK:   -4.83 KCAL/MOL
REMARK 923 INTER-LIGAND FREE ENERGY PREDICTED BY IDOCK:   -4.32 KCAL/MOL
REMARK 924 INTRA-LIGAND FREE ENERGY PREDICTED BY IDOCK:   -0.50 KCAL/MOL
REMARK 927      BINDING AFFINITY PREDICTED BY RF-SCORE:    0.00 PKD
ROOT
HETATM    1  C   UNL     1     -11.782  12.005  67.816  1.00  0.00    -0.309 C  
HETATM    2  N   UNL     1     -11.105  10.960  68.558  1.00  0.00    -0.235 N  
HETATM    3  C   UNL     1     -11.621  10.453  69.727  1.00  0.00    -0.269 A  
HETATM    4  C   UNL     1     -10.991   9.456  70.412  1.00  0.00    -0.266 A  
HETATM    5  C   UNL     1      -9.772   8.863  69.979  1.00  0.00    -0.174 C  
HETATM    6  N   UNL     1     -11.791   9.211  71.495  1.00  0.00    -0.331 NA 
HETATM    7  O   UNL     1      -9.224   7.948  70.592  1.00  0.00    -0.155 OA 
HETATM    8  N   UNL     1      -9.279   9.432  68.802  1.00  0.00    -0.131 N  
HETATM    9  O   UNL     1      -9.408  10.887  67.016  1.00  0.00    -0.162 OA 
HETATM   10  C   UNL     1     -12.848  10.082  71.416  1.00  0.00    -0.417 A  
HETATM   11  N   UNL     1     -12.768  10.846  70.345  1.00  0.00    -0.285 NA 
HETATM   12  C   UNL     1      -8.030   8.930  68.264  1.00  0.00    -0.105 C  
HETATM   13  C   UNL     1      -9.905  10.456  68.062  1.00  0.00    -0.150 C  
ENDROOT
BRANCH   6  14
HETATM   14  C   UNL     1     -11.562   8.256  72.560  1.00  0.00    -0.385 C  
BRANCH  14  15
HETATM   15  C   UNL     1     -12.253   6.910  72.317  1.00  0.00    -0.138 C  
HETATM   16  H   UNL     1     -13.093   5.925  70.806  1.00  0.00     0.000 HD 
HETATM   17  O   UNL     1     -12.664   6.759  70.956  1.00  0.00    -0.321 OA 
BRANCH  15  18
HETATM   18  C   UNL     1     -11.309   5.756  72.690  1.00  0.00    -0.300 C  
HETATM   19  O   UNL     1     -10.219   5.636  71.780  1.00  0.00    -0.189 OA 
HETATM   20  H   UNL     1      -9.636   4.922  72.011  1.00  0.00     0.000 HD 
ENDBRANCH  15  18
ENDBRANCH  14  15
ENDBRANCH   6  14
TORSDOF 3
ENDMDL
MODEL      118
REMARK 921   NORMALIZED FREE ENERGY PREDICTED BY IDOCK:   -3.70 KCAL/MOL
REMARK 922        TOTAL FREE ENERGY PREDICTED BY IDOCK:   -4.82 KCAL/MOL
REMARK 923 INTER-LIGAND FREE ENERGY PREDICTED BY IDOCK:   -4.88 KCAL/MOL
REMARK 924 INTRA-LIGAND FREE ENERGY PREDICTED BY IDOCK:    0.05 KCAL/MOL
REMARK 927      BINDING AFFINITY PREDICTED BY RF-SCORE:    0.00 PKD
ROOT
HETATM    1  C   UNL     1     -10.798  17.182  69.037  1.00  0.00    -0.129 C  
HETATM    2  N   UNL     1     -11.179  15.784  69.087  1.00  0.00    -0.297 N  
HETATM    3  C   UNL     1     -10.856  14.911  68.075  1.00  0.00    -0.263 A  
HETATM    4  C   UNL     1     -11.198  13.591  68.134  1.00  0.00    -0.272 A  
HETATM    5  C   UNL     1     -11.900  13.017  69.232  1.00  0.00    -0.316 C  
HETATM    6  N   UNL     1     -10.708  13.047  66.978  1.00  0.00    -0.257 NA 
HETATM    7  O   UNL     1     -12.183  11.822  69.286  1.00  0.00    -0.255 OA 
HETATM    8  N   UNL     1     -12.225  13.952  70.217  1.00  0.00    -0.339 N  
HETATM    9  O   UNL     1     -12.192  16.074  71.124  1.00  0.00    -0.422 OA 
HETATM   10  C   UNL     1     -10.115  14.065  66.277  1.00  0.00    -0.300 A  
HETATM   11  N   UNL     1     -10.188  15.209  66.927  1.00  0.00    -0.256 NA 
HETATM   12  C   UNL     1     -12.961  13.499  71.382  1.00  0.00    -0.339 C  
HETATM   13  C   UNL     1     -11.882  15.320  70.195  1.00  0.00    -0.323 C  
ENDROOT
BRANCH   6  14
HETATM   14  C   UNL     1     -10.826  11.673  66.535  1.00  0.00    -0.284 C  
BRANCH  14  15
HETATM   15  C   UNL     1      -9.655  10.794  66.987  1.00  0.00    -0.169 C  
HETATM   16  H   UNL     1      -8.095   9.866  66.170  1.00  0.00     0.000 HD 
HETATM   17  O   UNL     1      -8.822  10.411  65.890  1.00  0.00    -0.153 OA 
BRANCH  15  18
HETATM   18  C   UNL     1      -8.806  11.539  68.029  1.00  0.00    -0.158 C  
HETATM   19  O   UNL     1      -8.764  10.854  69.279  1.00  0.00    -0.348 OA 
HETATM   20  H   UNL     1      -8.238  11.314  69.923  1.00  0.00     0.000 HD 
ENDBRANCH  15  18
ENDBRANCH  14  15
ENDBRANCH   6  14
TORSDOF 3
ENDMDL
MODEL      119
REMARK 921   NORMALIZED FREE ENERGY PREDICTED BY IDOCK:   -3.66 KCAL/MOL
REMARK 922        TOTAL FREE ENERGY PREDICTED BY IDOCK:   -4.77 KCAL/MOL
REMARK 923 INTER-LIGAND FREE ENERGY PREDICTED BY IDOCK:   -4.48 KCAL/MOL
REMARK 924 INTRA-LIGAND FREE ENERGY PREDICTED BY IDOCK:   -0.29 KCAL/MOL
REMARK 927      BINDING AFFINITY PREDICTED BY RF-SCORE:    0.00 PKD
ROOT
HETATM    1  C   UNL     1     -10.038   4.496  74.219  1.00  0.00    -0.204 C  
HETATM    2  N   UNL     1     -10.147   4.928  72.839  1.00  0.00    -0.161 N  
HETATM    3  C   UNL     1     -10.582   6.189  72.509  1.00  0.00    -0.213 A  
HETATM    4  C   UNL     1     -10.665   6.600  71.210  1.00  0.00    -0.231 A  
HETATM    5  C   UNL     1     -10.307   5.772  70.108  1.00  0.00    -0.256 C  
HETATM    6  N   UNL     1     -11.118   7.889  71.275  1.00  0.00    -0.246 NA 
HETATM    7  O   UNL     1     -10.362   6.160  68.943  1.00  0.00    -0.170 OA 
HETATM    8  N   UNL     1      -9.896   4.495  70.498  1.00  0.00    -0.218 N  
HETATM    9  O   UNL     1      -9.396   2.896  72.085  1.00  0.00    -0.093 OA 
HETATM   10  C   UNL     1     -11.302   8.182  72.602  1.00  0.00    -0.381 A  
HETATM   11  N   UNL     1     -10.978   7.164  73.373  1.00  0.00    -0.309 NA 
HETATM   12  C   UNL     1      -9.523   3.546  69.468  1.00  0.00    -0.165 C  
HETATM   13  C   UNL     1      -9.790   4.039  71.828  1.00  0.00    -0.179 C  
ENDROOT
BRANCH   6  14
HETATM   14  C   UNL     1     -11.404   8.776  70.166  1.00  0.00    -0.090 C  
BRANCH  14  15
HETATM   15  C   UNL     1     -10.544  10.044  70.176  1.00  0.00    -0.296 C  
HETATM   16  H   UNL     1      -8.613  10.527  70.194  1.00  0.00     0.000 HD 
HETATM   17  O   UNL     1      -9.146   9.741  70.187  1.00  0.00    -0.227 OA 
BRANCH  15  18
HETATM   18  C   UNL     1     -10.862  10.909  68.946  1.00  0.00    -0.219 C  
HETATM   19  O   UNL     1     -12.232  10.818  68.563  1.00  0.00    -0.824 OA 
HETATM   20  H   UNL     1     -12.428  11.353  67.803  1.00  0.00     0.000 HD 
ENDBRANCH  15  18
ENDBRANCH  14  15
ENDBRANCH   6  14
TORSDOF 3
ENDMDL
MODEL      120
REMARK 921   NORMALIZED FREE ENERGY PREDICTED BY IDOCK:   -3.61 KCAL/MOL
REMARK 922        TOTAL FREE ENERGY PREDICTED BY IDOCK:   -4.72 KCAL/MOL
REMARK 923 INTER-LIGAND FREE ENERGY PREDICTED BY IDOCK:   -4.65 KCAL/MOL
REMARK 924 INTRA-LIGAND FREE ENERGY PREDICTED BY IDOCK:   -0.07 KCAL/MOL
REMARK 927      BINDING AFFINITY PREDICTED BY RF-SCORE:    0.00 PKD
ROOT
HETATM    1  C   UNL     1     -11.949  12.057  68.739  1.00  0.00    -0.244 C  
HETATM    2  N   UNL     1     -11.193  11.246  67.804  1.00  0.00    -0.271 N  
HETATM    3  C   UNL     1     -10.606  10.063  68.185  1.00  0.00    -0.227 A  
HETATM    4  C   UNL     1      -9.911   9.293  67.299  1.00  0.00    -0.207 A  
HETATM    5  C   UNL     1      -9.744   9.641  65.929  1.00  0.00    -0.275 C  
HETATM    6  N   UNL     1      -9.492   8.211  68.024  1.00  0.00    -0.142 NA 
HETATM    7  O   UNL     1      -9.136   8.928  65.133  1.00  0.00    -0.187 OA 
HETATM    8  N   UNL     1     -10.337  10.863  65.603  1.00  0.00    -0.254 N  
HETATM    9  O   UNL     1     -11.580  12.740  66.107  1.00  0.00    -0.338 OA 
HETATM   10  C   UNL     1      -9.939   8.392  69.308  1.00  0.00    -0.195 A  
HETATM   11  N   UNL     1     -10.623   9.512  69.430  1.00  0.00    -0.214 NA 
HETATM   12  C   UNL     1     -10.221  11.343  64.239  1.00  0.00    -0.315 C  
HETATM   13  C   UNL     1     -11.069  11.681  66.487  1.00  0.00    -0.301 C  
ENDROOT
BRANCH   6  14
HETATM   14  C   UNL     1      -8.688   7.099  67.559  1.00  0.00    -0.121 C  
BRANCH  14  15
HETATM   15  C   UNL     1      -9.468   5.782  67.490  1.00  0.00    -0.112 C  
HETATM   16  H   UNL     1     -10.000   4.307  68.716  1.00  0.00     0.000 HD 
HETATM   17  O   UNL     1      -9.517   5.124  68.759  1.00  0.00    -0.119 OA 
BRANCH  15  18
HETATM   18  C   UNL     1     -10.902   6.040  67.000  1.00  0.00    -0.331 C  
HETATM   19  O   UNL     1     -11.263   5.187  65.917  1.00  0.00    -0.794 OA 
HETATM   20  H   UNL     1     -12.149   5.346  65.615  1.00  0.00     0.000 HD 
ENDBRANCH  15  18
ENDBRANCH  14  15
ENDBRANCH   6  14
TORSDOF 3
ENDMDL
MODEL      121
REMARK 921   NORMALIZED FREE ENERGY PREDICTED BY IDOCK:   -3.59 KCAL/MOL
REMARK 922        TOTAL FREE ENERGY PREDICTED BY IDOCK:   -4.70 KCAL/MOL
REMARK 923 INTER-LIGAND FREE ENERGY PREDICTED BY IDOCK:   -4.44 KCAL/MOL
REMARK 924 INTRA-LIGAND FREE ENERGY PREDICTED BY IDOCK:   -0.26 KCAL/MOL
REMARK 927      BINDING AFFINITY PREDICTED BY RF-SCORE:    0.00 PKD
ROOT
HETATM    1  C   UNL     1      -9.071   9.727  62.881  1.00  0.00    -0.254 C  
HETATM    2  N   UNL     1      -8.937  10.322  64.197  1.00  0.00    -0.216 N  
HETATM    3  C   UNL     1      -9.533  11.520  64.512  1.00  0.00    -0.088 A  
HETATM    4  C   UNL     1      -9.421  12.067  65.757  1.00  0.00    -0.175 A  
HETATM    5  C   UNL     1      -8.698  11.451  66.817  1.00  0.00    -0.174 C  
HETATM    6  N   UNL     1     -10.140  13.230  65.697  1.00  0.00    -0.287 NA 
HETATM    7  O   UNL     1      -8.624  11.941  67.943  1.00  0.00    -0.147 OA 
HETATM    8  N   UNL     1      -8.093  10.251  66.436  1.00  0.00    -0.119 N  
HETATM    9  O   UNL     1      -7.641   8.572  64.918  1.00  0.00    -0.090 OA 
HETATM   10  C   UNL     1     -10.630  13.333  64.421  1.00  0.00    -0.419 A  
HETATM   11  N   UNL     1     -10.276  12.301  63.681  1.00  0.00    -0.428 NA 
HETATM   12  C   UNL     1      -7.308   9.531  67.420  1.00  0.00    -0.087 C  
HETATM   13  C   UNL     1      -8.193   9.650  65.164  1.00  0.00    -0.134 C  
ENDROOT
BRANCH   6  14
HETATM   14  C   UNL     1     -10.321  14.206  66.752  1.00  0.00    -0.274 C  
BRANCH  14  15
HETATM   15  C   UNL     1     -11.701  14.127  67.413  1.00  0.00    -0.391 C  
HETATM   16  H   UNL     1     -13.606  13.979  66.854  1.00  0.00     0.000 HD 
HETATM   17  O   UNL     1     -12.750  14.028  66.445  1.00  0.00    -0.369 OA 
BRANCH  15  18
HETATM   18  C   UNL     1     -11.769  12.916  68.356  1.00  0.00    -0.345 C  
HETATM   19  O   UNL     1     -10.779  12.974  69.380  1.00  0.00    -0.438 OA 
HETATM   20  H   UNL     1     -10.821  12.226  69.963  1.00  0.00     0.000 HD 
ENDBRANCH  15  18
ENDBRANCH  14  15
ENDBRANCH   6  14
TORSDOF 3
ENDMDL
MODEL      122
REMARK 921   NORMALIZED FREE ENERGY PREDICTED BY IDOCK:   -3.59 KCAL/MOL
REMARK 922        TOTAL FREE ENERGY PREDICTED BY IDOCK:   -4.69 KCAL/MOL
REMARK 923 INTER-LIGAND FREE ENERGY PREDICTED BY IDOCK:   -4.48 KCAL/MOL
REMARK 924 INTRA-LIGAND FREE ENERGY PREDICTED BY IDOCK:   -0.21 KCAL/MOL
REMARK 927      BINDING AFFINITY PREDICTED BY RF-SCORE:    0.00 PKD
ROOT
HETATM    1  C   UNL     1     -10.144  11.744  65.432  1.00  0.00    -0.254 C  
HETATM    2  N   UNL     1     -10.185  10.668  66.403  1.00  0.00    -0.228 N  
HETATM    3  C   UNL     1     -10.672  10.860  67.674  1.00  0.00    -0.242 A  
HETATM    4  C   UNL     1     -10.728   9.840  68.579  1.00  0.00    -0.215 A  
HETATM    5  C   UNL     1     -10.299   8.515  68.286  1.00  0.00    -0.201 C  
HETATM    6  N   UNL     1     -11.270  10.396  69.705  1.00  0.00    -0.272 NA 
HETATM    7  O   UNL     1     -10.375   7.597  69.101  1.00  0.00    -0.206 OA 
HETATM    8  N   UNL     1      -9.790   8.382  66.992  1.00  0.00    -0.206 N  
HETATM    9  O   UNL     1      -9.277   9.198  64.895  1.00  0.00    -0.192 OA 
HETATM   10  C   UNL     1     -11.496  11.721  69.429  1.00  0.00    -0.307 A  
HETATM   11  N   UNL     1     -11.143  12.026  68.196  1.00  0.00    -0.227 NA 
HETATM   12  C   UNL     1      -9.299   7.084  66.573  1.00  0.00    -0.159 C  
HETATM   13  C   UNL     1      -9.725   9.409  66.027  1.00  0.00    -0.275 C  
ENDROOT
BRANCH   6  14
HETATM   14  C   UNL     1     -11.520   9.744  70.974  1.00  0.00    -0.383 C  
BRANCH  14  15
HETATM   15  C   UNL     1     -12.957   9.930  71.471  1.00  0.00    -0.422 C  
HETATM   16  H   UNL     1     -14.808   9.735  70.765  1.00  0.00     0.000 HD 
HETATM   17  O   UNL     1     -13.917   9.619  70.457  1.00  0.00     0.146 OA 
BRANCH  15  18
HETATM   18  C   UNL     1     -13.213   9.039  72.697  1.00  0.00    -0.312 C  
HETATM   19  O   UNL     1     -13.900   7.837  72.355  1.00  0.00    -0.522 OA 
HETATM   20  H   UNL     1     -14.058   7.286  73.113  1.00  0.00     0.000 HD 
ENDBRANCH  15  18
ENDBRANCH  14  15
ENDBRANCH   6  14
TORSDOF 3
ENDMDL
MODEL      123
REMARK 921   NORMALIZED FREE ENERGY PREDICTED BY IDOCK:   -3.56 KCAL/MOL
REMARK 922        TOTAL FREE ENERGY PREDICTED BY IDOCK:   -4.65 KCAL/MOL
REMARK 923 INTER-LIGAND FREE ENERGY PREDICTED BY IDOCK:   -4.34 KCAL/MOL
REMARK 924 INTRA-LIGAND FREE ENERGY PREDICTED BY IDOCK:   -0.31 KCAL/MOL
REMARK 927      BINDING AFFINITY PREDICTED BY RF-SCORE:    0.00 PKD
ROOT
HETATM    1  C   UNL     1     -11.609  16.052  64.170  1.00  0.00    -0.005 C  
HETATM    2  N   UNL     1     -10.709  15.850  65.289  1.00  0.00    -0.420 N  
HETATM    3  C   UNL     1     -10.269  14.597  65.644  1.00  0.00    -0.359 A  
HETATM    4  C   UNL     1      -9.407  14.411  66.686  1.00  0.00    -0.278 A  
HETATM    5  C   UNL     1      -8.896  15.482  67.473  1.00  0.00    -0.182 C  
HETATM    6  N   UNL     1      -9.191  13.061  66.729  1.00  0.00    -0.234 NA 
HETATM    7  O   UNL     1      -8.102  15.306  68.395  1.00  0.00    -0.130 OA 
HETATM    8  N   UNL     1      -9.395  16.728  67.086  1.00  0.00    -0.226 N  
HETATM    9  O   UNL     1     -10.654  18.101  65.725  1.00  0.00    -0.541 OA 
HETATM   10  C   UNL     1      -9.944  12.503  65.728  1.00  0.00    -0.259 A  
HETATM   11  N   UNL     1     -10.607  13.419  65.051  1.00  0.00    -0.337 NA 
HETATM   12  C   UNL     1      -8.968  17.901  67.823  1.00  0.00    -0.254 C  
HETATM   13  C   UNL     1     -10.279  16.959  66.012  1.00  0.00    -0.336 C  
ENDROOT
BRANCH   6  14
HETATM   14  C   UNL     1      -8.369  12.333  67.674  1.00  0.00    -0.166 C  
BRANCH  14  15
HETATM   15  C   UNL     1      -6.957  12.054  67.150  1.00  0.00    -0.134 C  
HETATM   16  H   UNL     1      -5.100  11.965  67.862  1.00  0.00     0.000 HD 
HETATM   17  O   UNL     1      -5.976  12.138  68.187  1.00  0.00    -0.050 OA 
BRANCH  15  18
HETATM   18  C   UNL     1      -6.896  10.657  66.511  1.00  0.00    -0.124 C  
HETATM   19  O   UNL     1      -6.576  10.714  65.123  1.00  0.00    -0.305 OA 
HETATM   20  H   UNL     1      -6.538   9.850  64.728  1.00  0.00     0.000 HD 
ENDBRANCH  15  18
ENDBRANCH  14  15
ENDBRANCH   6  14
TORSDOF 3
ENDMDL
MODEL      124
REMARK 921   NORMALIZED FREE ENERGY PREDICTED BY IDOCK:   -3.55 KCAL/MOL
REMARK 922        TOTAL FREE ENERGY PREDICTED BY IDOCK:   -4.65 KCAL/MOL
REMARK 923 INTER-LIGAND FREE ENERGY PREDICTED BY IDOCK:   -4.34 KCAL/MOL
REMARK 924 INTRA-LIGAND FREE ENERGY PREDICTED BY IDOCK:   -0.30 KCAL/MOL
REMARK 927      BINDING AFFINITY PREDICTED BY RF-SCORE:    0.00 PKD
ROOT
HETATM    1  C   UNL     1      -9.849   4.438  69.028  1.00  0.00    -0.111 C  
HETATM    2  N   UNL     1     -10.145   5.495  69.975  1.00  0.00    -0.219 N  
HETATM    3  C   UNL     1     -10.214   6.812  69.589  1.00  0.00    -0.187 A  
HETATM    4  C   UNL     1     -10.512   7.802  70.480  1.00  0.00    -0.217 A  
HETATM    5  C   UNL     1     -10.778   7.557  71.856  1.00  0.00    -0.217 C  
HETATM    6  N   UNL     1     -10.501   8.955  69.743  1.00  0.00    -0.208 NA 
HETATM    7  O   UNL     1     -11.069   8.454  72.646  1.00  0.00    -0.359 OA 
HETATM    8  N   UNL     1     -10.669   6.207  72.199  1.00  0.00    -0.226 N  
HETATM    9  O   UNL     1     -10.317   3.984  71.692  1.00  0.00    -0.095 OA 
HETATM   10  C   UNL     1     -10.181   8.605  68.456  1.00  0.00    -0.195 A  
HETATM   11  N   UNL     1     -10.005   7.304  68.337  1.00  0.00    -0.156 NA 
HETATM   12  C   UNL     1     -10.897   5.826  73.579  1.00  0.00    -0.237 C  
HETATM   13  C   UNL     1     -10.372   5.156  71.307  1.00  0.00    -0.205 C  
ENDROOT
BRANCH   6  14
HETATM   14  C   UNL     1     -10.731  10.304  70.218  1.00  0.00    -0.250 C  
BRANCH  14  15
HETATM   15  C   UNL     1     -12.100  10.859  69.810  1.00  0.00    -0.338 C  
HETATM   16  H   UNL     1     -13.925  11.025  70.587  1.00  0.00     0.000 HD 
HETATM   17  O   UNL     1     -13.076  10.681  70.840  1.00  0.00    -0.357 OA 
BRANCH  15  18
HETATM   18  C   UNL     1     -11.987  12.354  69.475  1.00  0.00    -0.261 C  
HETATM   19  O   UNL     1     -11.929  13.166  70.646  1.00  0.00    -0.502 OA 
HETATM   20  H   UNL     1     -11.859  14.090  70.438  1.00  0.00     0.000 HD 
ENDBRANCH  15  18
ENDBRANCH  14  15
ENDBRANCH   6  14
TORSDOF 3
ENDMDL
MODEL      125
REMARK 921   NORMALIZED FREE ENERGY PREDICTED BY IDOCK:   -3.55 KCAL/MOL
REMARK 922        TOTAL FREE ENERGY PREDICTED BY IDOCK:   -4.64 KCAL/MOL
REMARK 923 INTER-LIGAND FREE ENERGY PREDICTED BY IDOCK:   -4.59 KCAL/MOL
REMARK 924 INTRA-LIGAND FREE ENERGY PREDICTED BY IDOCK:   -0.05 KCAL/MOL
REMARK 927      BINDING AFFINITY PREDICTED BY RF-SCORE:    0.00 PKD
ROOT
HETATM    1  C   UNL     1     -11.019   9.984  67.827  1.00  0.00    -0.249 C  
HETATM    2  N   UNL     1     -10.219  11.189  67.938  1.00  0.00    -0.176 N  
HETATM    3  C   UNL     1     -10.752  12.434  67.702  1.00  0.00    -0.221 A  
HETATM    4  C   UNL     1     -10.002  13.567  67.826  1.00  0.00    -0.232 A  
HETATM    5  C   UNL     1      -8.631  13.555  68.210  1.00  0.00    -0.168 C  
HETATM    6  N   UNL     1     -10.859  14.591  67.529  1.00  0.00    -0.283 NA 
HETATM    7  O   UNL     1      -7.971  14.584  68.342  1.00  0.00    -0.126 OA 
HETATM    8  N   UNL     1      -8.135  12.265  68.413  1.00  0.00    -0.161 N  
HETATM    9  O   UNL     1      -8.364   9.971  68.521  1.00  0.00    -0.108 OA 
HETATM   10  C   UNL     1     -12.070  14.025  67.225  1.00  0.00    -0.370 A  
HETATM   11  N   UNL     1     -12.031  12.712  67.327  1.00  0.00    -0.467 NA 
HETATM   12  C   UNL     1      -6.743  12.113  68.789  1.00  0.00    -0.088 C  
HETATM   13  C   UNL     1      -8.880  11.073  68.303  1.00  0.00    -0.144 C  
ENDROOT
BRANCH   6  14
HETATM   14  C   UNL     1     -10.554  16.007  67.488  1.00  0.00    -0.313 C  
BRANCH  14  15
HETATM   15  C   UNL     1     -10.308  16.608  68.875  1.00  0.00    -0.300 C  
HETATM   16  H   UNL     1     -10.350  18.398  69.745  1.00  0.00     0.000 HD 
HETATM   17  O   UNL     1     -10.503  18.025  68.885  1.00  0.00    -0.302 OA 
BRANCH  15  18
HETATM   18  C   UNL     1     -11.246  15.963  69.907  1.00  0.00    -0.348 C  
HETATM   19  O   UNL     1     -10.566  15.035  70.748  1.00  0.00    -0.532 OA 
HETATM   20  H   UNL     1     -11.146  14.636  71.386  1.00  0.00     0.000 HD 
ENDBRANCH  15  18
ENDBRANCH  14  15
ENDBRANCH   6  14
TORSDOF 3
ENDMDL
MODEL      126
REMARK 921   NORMALIZED FREE ENERGY PREDICTED BY IDOCK:   -3.53 KCAL/MOL
REMARK 922        TOTAL FREE ENERGY PREDICTED BY IDOCK:   -4.63 KCAL/MOL
REMARK 923 INTER-LIGAND FREE ENERGY PREDICTED BY IDOCK:   -4.48 KCAL/MOL
REMARK 924 INTRA-LIGAND FREE ENERGY PREDICTED BY IDOCK:   -0.15 KCAL/MOL
REMARK 927      BINDING AFFINITY PREDICTED BY RF-SCORE:    0.00 PKD
ROOT
HETATM    1  C   UNL     1     -10.888   7.481  73.159  1.00  0.00    -0.395 C  
HETATM    2  N   UNL     1     -10.407   8.341  72.095  1.00  0.00    -0.273 N  
HETATM    3  C   UNL     1     -11.188   9.342  71.567  1.00  0.00    -0.386 A  
HETATM    4  C   UNL     1     -10.725  10.162  70.579  1.00  0.00    -0.227 A  
HETATM    5  C   UNL     1      -9.417  10.056  70.028  1.00  0.00    -0.136 C  
HETATM    6  N   UNL     1     -11.758  11.022  70.322  1.00  0.00    -0.335 NA 
HETATM    7  O   UNL     1      -9.001  10.816  69.155  1.00  0.00    -0.159 OA 
HETATM    8  N   UNL     1      -8.677   9.009  70.583  1.00  0.00    -0.193 N  
HETATM    9  O   UNL     1      -8.385   7.258  72.057  1.00  0.00    -0.105 OA 
HETATM   10  C   UNL     1     -12.791  10.667  71.152  1.00  0.00    -0.420 A  
HETATM   11  N   UNL     1     -12.466   9.648  71.922  1.00  0.00    -0.384 NA 
HETATM   12  C   UNL     1      -7.332   8.781  70.093  1.00  0.00    -0.055 C  
HETATM   13  C   UNL     1      -9.117   8.148  71.609  1.00  0.00    -0.163 C  
ENDROOT
BRANCH   6  14
HETATM   14  C   UNL     1     -11.794  12.081  69.334  1.00  0.00    -0.324 C  
BRANCH  14  15
HETATM   15  C   UNL     1     -11.999  13.469  69.949  1.00  0.00    -0.348 C  
HETATM   16  H   UNL     1     -12.094  14.290  71.761  1.00  0.00     0.000 HD 
HETATM   17  O   UNL     1     -11.966  13.429  71.379  1.00  0.00     0.027 OA 
BRANCH  15  18
HETATM   18  C   UNL     1     -10.916  14.437  69.448  1.00  0.00    -0.231 C  
HETATM   19  O   UNL     1      -9.652  13.796  69.290  1.00  0.00    -0.367 OA 
HETATM   20  H   UNL     1      -8.983  14.394  68.980  1.00  0.00     0.000 HD 
ENDBRANCH  15  18
ENDBRANCH  14  15
ENDBRANCH   6  14
TORSDOF 3
ENDMDL
MODEL      127
REMARK 921   NORMALIZED FREE ENERGY PREDICTED BY IDOCK:   -3.53 KCAL/MOL
REMARK 922        TOTAL FREE ENERGY PREDICTED BY IDOCK:   -4.62 KCAL/MOL
REMARK 923 INTER-LIGAND FREE ENERGY PREDICTED BY IDOCK:   -3.89 KCAL/MOL
REMARK 924 INTRA-LIGAND FREE ENERGY PREDICTED BY IDOCK:   -0.73 KCAL/MOL
REMARK 927      BINDING AFFINITY PREDICTED BY RF-SCORE:    0.00 PKD
ROOT
HETATM    1  C   UNL     1     -10.527   7.728  69.025  1.00  0.00    -0.205 C  
HETATM    2  N   UNL     1      -9.891   8.902  68.460  1.00  0.00    -0.162 N  
HETATM    3  C   UNL     1     -10.382  10.167  68.682  1.00  0.00    -0.188 A  
HETATM    4  C   UNL     1      -9.770  11.271  68.164  1.00  0.00    -0.185 A  
HETATM    5  C   UNL     1      -8.590  11.208  67.371  1.00  0.00    -0.137 C  
HETATM    6  N   UNL     1     -10.523  12.328  68.598  1.00  0.00    -0.226 NA 
HETATM    7  O   UNL     1      -8.033  12.211  66.929  1.00  0.00    -0.157 OA 
HETATM    8  N   UNL     1      -8.149   9.900  67.156  1.00  0.00    -0.116 N  
HETATM    9  O   UNL     1      -8.279   7.615  67.457  1.00  0.00    -0.118 OA 
HETATM   10  C   UNL     1     -11.556  11.808  69.336  1.00  0.00    -0.322 A  
HETATM   11  N   UNL     1     -11.489  10.493  69.404  1.00  0.00    -0.260 NA 
HETATM   12  C   UNL     1      -6.965   9.695  66.345  1.00  0.00    -0.088 C  
HETATM   13  C   UNL     1      -8.749   8.736  67.681  1.00  0.00    -0.135 C  
ENDROOT
BRANCH   6  14
HETATM   14  C   UNL     1     -10.318  13.732  68.305  1.00  0.00    -0.247 C  
BRANCH  14  15
HETATM   15  C   UNL     1     -11.553  14.404  67.696  1.00  0.00    -0.370 C  
HETATM   16  H   UNL     1     -12.371  16.218  67.625  1.00  0.00     0.000 HD 
HETATM   17  O   UNL     1     -11.606  15.801  68.002  1.00  0.00    -0.321 OA 
BRANCH  15  18
HETATM   18  C   UNL     1     -11.558  14.222  66.171  1.00  0.00    -0.369 C  
HETATM   19  O   UNL     1     -10.330  13.683  65.689  1.00  0.00    -0.285 OA 
HETATM   20  H   UNL     1     -10.333  13.570  64.745  1.00  0.00     0.000 HD 
ENDBRANCH  15  18
ENDBRANCH  14  15
ENDBRANCH   6  14
TORSDOF 3
ENDMDL
MODEL      128
REMARK 921   NORMALIZED FREE ENERGY PREDICTED BY IDOCK:   -3.51 KCAL/MOL
REMARK 922        TOTAL FREE ENERGY PREDICTED BY IDOCK:   -4.60 KCAL/MOL
REMARK 923 INTER-LIGAND FREE ENERGY PREDICTED BY IDOCK:   -4.42 KCAL/MOL
REMARK 924 INTRA-LIGAND FREE ENERGY PREDICTED BY IDOCK:   -0.18 KCAL/MOL
REMARK 927      BINDING AFFINITY PREDICTED BY RF-SCORE:    0.00 PKD
ROOT
HETATM    1  C   UNL     1     -11.367  12.148  69.499  1.00  0.00    -0.207 C  
HETATM    2  N   UNL     1     -11.537  10.861  70.145  1.00  0.00    -0.314 N  
HETATM    3  C   UNL     1     -10.703   9.801  69.876  1.00  0.00    -0.268 A  
HETATM    4  C   UNL     1     -10.854   8.598  70.501  1.00  0.00    -0.228 A  
HETATM    5  C   UNL     1     -11.865   8.344  71.470  1.00  0.00    -0.297 C  
HETATM    6  N   UNL     1      -9.855   7.811  69.996  1.00  0.00    -0.180 NA 
HETATM    7  O   UNL     1     -11.977   7.263  72.045  1.00  0.00    -0.289 OA 
HETATM    8  N   UNL     1     -12.698   9.445  71.686  1.00  0.00    -0.348 N  
HETATM    9  O   UNL     1     -13.341  11.633  71.334  1.00  0.00    -0.202 OA 
HETATM   10  C   UNL     1      -9.168   8.571  69.084  1.00  0.00    -0.150 A  
HETATM   11  N   UNL     1      -9.664   9.789  68.997  1.00  0.00    -0.169 NA 
HETATM   12  C   UNL     1     -13.784   9.311  72.637  1.00  0.00    -0.319 C  
HETATM   13  C   UNL     1     -12.569  10.705  71.067  1.00  0.00    -0.416 C  
ENDROOT
BRANCH   6  14
HETATM   14  C   UNL     1      -9.586   6.422  70.311  1.00  0.00    -0.164 C  
BRANCH  14  15
HETATM   15  C   UNL     1     -10.443   5.446  69.499  1.00  0.00    -0.273 C  
HETATM   16  H   UNL     1     -11.777   5.517  68.023  1.00  0.00     0.000 HD 
HETATM   17  O   UNL     1     -11.245   6.122  68.526  1.00  0.00    -0.341 OA 
BRANCH  15  18
HETATM   18  C   UNL     1      -9.547   4.420  68.788  1.00  0.00    -0.155 C  
HETATM   19  O   UNL     1      -8.502   5.041  68.044  1.00  0.00    -0.103 OA 
HETATM   20  H   UNL     1      -7.948   4.406  67.605  1.00  0.00     0.000 HD 
ENDBRANCH  15  18
ENDBRANCH  14  15
ENDBRANCH   6  14
TORSDOF 3
ENDMDL
MODEL      129
REMARK 921   NORMALIZED FREE ENERGY PREDICTED BY IDOCK:   -3.50 KCAL/MOL
REMARK 922        TOTAL FREE ENERGY PREDICTED BY IDOCK:   -4.59 KCAL/MOL
REMARK 923 INTER-LIGAND FREE ENERGY PREDICTED BY IDOCK:   -4.39 KCAL/MOL
REMARK 924 INTRA-LIGAND FREE ENERGY PREDICTED BY IDOCK:   -0.20 KCAL/MOL
REMARK 927      BINDING AFFINITY PREDICTED BY RF-SCORE:    0.00 PKD
ROOT
HETATM    1  C   UNL     1      -7.688  14.837  67.331  1.00  0.00    -0.204 C  
HETATM    2  N   UNL     1      -8.800  13.905  67.351  1.00  0.00    -0.196 N  
HETATM    3  C   UNL     1      -8.700  12.674  67.955  1.00  0.00    -0.181 A  
HETATM    4  C   UNL     1      -9.754  11.809  67.989  1.00  0.00    -0.185 A  
HETATM    5  C   UNL     1     -11.024  12.105  67.418  1.00  0.00    -0.260 C  
HETATM    6  N   UNL     1      -9.291  10.716  68.669  1.00  0.00    -0.169 NA 
HETATM    7  O   UNL     1     -11.975  11.327  67.475  1.00  0.00    -0.612 OA 
HETATM    8  N   UNL     1     -11.062  13.355  66.796  1.00  0.00    -0.288 N  
HETATM    9  O   UNL     1     -10.126  15.376  66.193  1.00  0.00    -0.269 OA 
HETATM   10  C   UNL     1      -7.982  10.970  68.993  1.00  0.00    -0.114 A  
HETATM   11  N   UNL     1      -7.601  12.159  68.571  1.00  0.00    -0.123 NA 
HETATM   12  C   UNL     1     -12.295  13.770  66.157  1.00  0.00    -0.452 C  
HETATM   13  C   UNL     1      -9.998  14.279  66.748  1.00  0.00    -0.265 C  
ENDROOT
BRANCH   6  14
HETATM   14  C   UNL     1     -10.010   9.492  68.960  1.00  0.00    -0.180 C  
BRANCH  14  15
HETATM   15  C   UNL     1      -9.795   8.404  67.903  1.00  0.00    -0.170 C  
HETATM   16  H   UNL     1      -8.323   7.225  67.266  1.00  0.00     0.000 HD 
HETATM   17  O   UNL     1      -8.457   7.899  67.922  1.00  0.00    -0.125 OA 
BRANCH  15  18
HETATM   18  C   UNL     1     -10.775   7.243  68.131  1.00  0.00    -0.134 C  
HETATM   19  O   UNL     1     -11.358   7.277  69.431  1.00  0.00    -0.467 OA 
HETATM   20  H   UNL     1     -11.964   6.559  69.571  1.00  0.00     0.000 HD 
ENDBRANCH  15  18
ENDBRANCH  14  15
ENDBRANCH   6  14
TORSDOF 3
ENDMDL
MODEL      130
REMARK 921   NORMALIZED FREE ENERGY PREDICTED BY IDOCK:   -3.50 KCAL/MOL
REMARK 922        TOTAL FREE ENERGY PREDICTED BY IDOCK:   -4.58 KCAL/MOL
REMARK 923 INTER-LIGAND FREE ENERGY PREDICTED BY IDOCK:   -4.25 KCAL/MOL
REMARK 924 INTRA-LIGAND FREE ENERGY PREDICTED BY IDOCK:   -0.33 KCAL/MOL
REMARK 927      BINDING AFFINITY PREDICTED BY RF-SCORE:    0.00 PKD
ROOT
HETATM    1  C   UNL     1     -14.013   9.307  72.797  1.00  0.00    -0.117 C  
HETATM    2  N   UNL     1     -13.052   9.754  71.807  1.00  0.00    -0.399 N  
HETATM    3  C   UNL     1     -12.251   8.868  71.126  1.00  0.00    -0.255 A  
HETATM    4  C   UNL     1     -11.362   9.290  70.181  1.00  0.00    -0.164 A  
HETATM    5  C   UNL     1     -11.197  10.658  69.824  1.00  0.00    -0.297 C  
HETATM    6  N   UNL     1     -10.765   8.147  69.722  1.00  0.00    -0.245 NA 
HETATM    7  O   UNL     1     -10.409  11.026  68.954  1.00  0.00    -0.192 OA 
HETATM    8  N   UNL     1     -12.015  11.515  70.563  1.00  0.00    -0.369 N  
HETATM    9  O   UNL     1     -13.652  11.944  72.132  1.00  0.00    -0.377 OA 
HETATM   10  C   UNL     1     -11.310   7.102  70.423  1.00  0.00    -0.289 A  
HETATM   11  N   UNL     1     -12.221   7.516  71.281  1.00  0.00    -0.323 NA 
HETATM   12  C   UNL     1     -11.928  12.940  70.309  1.00  0.00    -0.283 C  
HETATM   13  C   UNL     1     -12.951  11.116  71.539  1.00  0.00    -0.437 C  
ENDROOT
BRANCH   6  14
HETATM   14  C   UNL     1      -9.721   8.042  68.724  1.00  0.00    -0.156 C  
BRANCH  14  15
HETATM   15  C   UNL     1      -8.388   7.553  69.300  1.00  0.00    -0.132 C  
HETATM   16  H   UNL     1      -6.689   6.753  68.638  1.00  0.00     0.000 HD 
HETATM   17  O   UNL     1      -7.516   7.057  68.281  1.00  0.00    -0.094 OA 
BRANCH  15  18
HETATM   18  C   UNL     1      -7.685   8.693  70.053  1.00  0.00    -0.080 C  
HETATM   19  O   UNL     1      -6.714   9.354  69.246  1.00  0.00    -0.048 OA 
HETATM   20  H   UNL     1      -6.280  10.059  69.711  1.00  0.00     0.000 HD 
ENDBRANCH  15  18
ENDBRANCH  14  15
ENDBRANCH   6  14
TORSDOF 3
ENDMDL
MODEL      131
REMARK 921   NORMALIZED FREE ENERGY PREDICTED BY IDOCK:   -3.49 KCAL/MOL
REMARK 922        TOTAL FREE ENERGY PREDICTED BY IDOCK:   -4.58 KCAL/MOL
REMARK 923 INTER-LIGAND FREE ENERGY PREDICTED BY IDOCK:   -4.28 KCAL/MOL
REMARK 924 INTRA-LIGAND FREE ENERGY PREDICTED BY IDOCK:   -0.30 KCAL/MOL
REMARK 927      BINDING AFFINITY PREDICTED BY RF-SCORE:    0.00 PKD
ROOT
HETATM    1  C   UNL     1     -10.182  11.229  68.671  1.00  0.00    -0.203 C  
HETATM    2  N   UNL     1     -10.371   9.795  68.770  1.00  0.00    -0.200 N  
HETATM    3  C   UNL     1     -10.833   9.205  69.922  1.00  0.00    -0.228 A  
HETATM    4  C   UNL     1     -11.027   7.857  70.006  1.00  0.00    -0.207 A  
HETATM    5  C   UNL     1     -10.779   6.966  68.924  1.00  0.00    -0.222 C  
HETATM    6  N   UNL     1     -11.494   7.646  71.275  1.00  0.00    -0.264 NA 
HETATM    7  O   UNL     1     -10.980   5.755  69.002  1.00  0.00    -0.304 OA 
HETATM    8  N   UNL     1     -10.288   7.614  67.788  1.00  0.00    -0.207 N  
HETATM    9  O   UNL     1      -9.663   9.496  66.608  1.00  0.00    -0.181 OA 
HETATM   10  C   UNL     1     -11.540   8.869  71.894  1.00  0.00    -0.371 A  
HETATM   11  N   UNL     1     -11.145   9.835  71.088  1.00  0.00    -0.360 NA 
HETATM   12  C   UNL     1      -9.974   6.815  66.620  1.00  0.00    -0.142 C  
HETATM   13  C   UNL     1     -10.082   9.003  67.661  1.00  0.00    -0.216 C  
ENDROOT
BRANCH   6  14
HETATM   14  C   UNL     1     -11.834   6.377  71.886  1.00  0.00    -0.329 C  
BRANCH  14  15
HETATM   15  C   UNL     1     -10.878   5.981  73.016  1.00  0.00    -0.260 C  
HETATM   16  H   UNL     1     -10.638   4.476  74.296  1.00  0.00     0.000 HD 
HETATM   17  O   UNL     1     -11.230   4.721  73.595  1.00  0.00    -0.319 OA 
BRANCH  15  18
HETATM   18  C   UNL     1      -9.436   5.909  72.491  1.00  0.00    -0.147 C  
HETATM   19  O   UNL     1      -8.514   6.568  73.356  1.00  0.00    -0.119 OA 
HETATM   20  H   UNL     1      -7.622   6.523  73.031  1.00  0.00     0.000 HD 
ENDBRANCH  15  18
ENDBRANCH  14  15
ENDBRANCH   6  14
TORSDOF 3
ENDMDL
MODEL      132
REMARK 921   NORMALIZED FREE ENERGY PREDICTED BY IDOCK:   -3.48 KCAL/MOL
REMARK 922        TOTAL FREE ENERGY PREDICTED BY IDOCK:   -4.57 KCAL/MOL
REMARK 923 INTER-LIGAND FREE ENERGY PREDICTED BY IDOCK:   -4.23 KCAL/MOL
REMARK 924 INTRA-LIGAND FREE ENERGY PREDICTED BY IDOCK:   -0.34 KCAL/MOL
REMARK 927      BINDING AFFINITY PREDICTED BY RF-SCORE:    0.00 PKD
ROOT
HETATM    1  C   UNL     1      -8.947  18.503  66.333  1.00  0.00    -0.266 C  
HETATM    2  N   UNL     1      -8.606  17.238  66.956  1.00  0.00    -0.219 N  
HETATM    3  C   UNL     1      -9.509  16.204  67.033  1.00  0.00    -0.222 A  
HETATM    4  C   UNL     1      -9.179  15.009  67.602  1.00  0.00    -0.182 A  
HETATM    5  C   UNL     1      -7.893  14.736  68.150  1.00  0.00    -0.125 C  
HETATM    6  N   UNL     1     -10.304  14.240  67.487  1.00  0.00    -0.247 NA 
HETATM    7  O   UNL     1      -7.598  13.647  68.639  1.00  0.00    -0.125 OA 
HETATM    8  N   UNL     1      -7.025  15.828  68.069  1.00  0.00    -0.117 N  
HETATM    9  O   UNL     1      -6.488  17.980  67.433  1.00  0.00    -0.165 OA 
HETATM   10  C   UNL     1     -11.256  15.013  66.873  1.00  0.00    -0.323 A  
HETATM   11  N   UNL     1     -10.794  16.213  66.583  1.00  0.00    -0.217 NA 
HETATM   12  C   UNL     1      -5.688  15.687  68.610  1.00  0.00    -0.098 C  
HETATM   13  C   UNL     1      -7.327  17.073  67.481  1.00  0.00    -0.154 C  
ENDROOT
BRANCH   6  14
HETATM   14  C   UNL     1     -10.494  12.884  67.960  1.00  0.00    -0.230 C  
BRANCH  14  15
HETATM   15  C   UNL     1     -10.467  11.846  66.833  1.00  0.00    -0.222 C  
HETATM   16  H   UNL     1      -9.132  11.014  65.614  1.00  0.00     0.000 HD 
HETATM   17  O   UNL     1      -9.148  11.658  66.313  1.00  0.00    -0.210 OA 
BRANCH  15  18
HETATM   18  C   UNL     1     -11.007  10.500  67.340  1.00  0.00    -0.288 C  
HETATM   19  O   UNL     1     -12.038  10.663  68.310  1.00  0.00    -0.817 OA 
HETATM   20  H   UNL     1     -12.371   9.830  68.624  1.00  0.00     0.000 HD 
ENDBRANCH  15  18
ENDBRANCH  14  15
ENDBRANCH   6  14
TORSDOF 3
ENDMDL
MODEL      133
REMARK 921   NORMALIZED FREE ENERGY PREDICTED BY IDOCK:   -3.48 KCAL/MOL
REMARK 922        TOTAL FREE ENERGY PREDICTED BY IDOCK:   -4.56 KCAL/MOL
REMARK 923 INTER-LIGAND FREE ENERGY PREDICTED BY IDOCK:   -4.20 KCAL/MOL
REMARK 924 INTRA-LIGAND FREE ENERGY PREDICTED BY IDOCK:   -0.36 KCAL/MOL
REMARK 927      BINDING AFFINITY PREDICTED BY RF-SCORE:    0.00 PKD
ROOT
HETATM    1  C   UNL     1     -10.031  11.083  68.927  1.00  0.00    -0.188 C  
HETATM    2  N   UNL     1     -10.654  10.026  69.699  1.00  0.00    -0.234 N  
HETATM    3  C   UNL     1     -10.213   8.726  69.631  1.00  0.00    -0.210 A  
HETATM    4  C   UNL     1     -10.788   7.737  70.375  1.00  0.00    -0.244 A  
HETATM    5  C   UNL     1     -11.870   7.965  71.271  1.00  0.00    -0.296 C  
HETATM    6  N   UNL     1     -10.089   6.604  70.057  1.00  0.00    -0.175 NA 
HETATM    7  O   UNL     1     -12.367   7.071  71.953  1.00  0.00    -0.324 OA 
HETATM    8  N   UNL     1     -12.295   9.296  71.281  1.00  0.00    -0.320 N  
HETATM    9  O   UNL     1     -12.148  11.503  70.622  1.00  0.00    -0.363 OA 
HETATM   10  C   UNL     1      -9.144   6.964  69.130  1.00  0.00    -0.136 A  
HETATM   11  N   UNL     1      -9.198   8.252  68.858  1.00  0.00    -0.147 NA 
HETATM   12  C   UNL     1     -13.407   9.658  72.139  1.00  0.00    -0.454 C  
HETATM   13  C   UNL     1     -11.721  10.346  70.535  1.00  0.00    -0.344 C  
ENDROOT
BRANCH   6  14
HETATM   14  C   UNL     1     -10.317   5.263  70.554  1.00  0.00    -0.266 C  
BRANCH  14  15
HETATM   15  C   UNL     1      -9.706   5.024  71.938  1.00  0.00    -0.160 C  
HETATM   16  H   UNL     1     -10.255   4.251  73.689  1.00  0.00     0.000 HD 
HETATM   17  O   UNL     1     -10.634   4.399  72.830  1.00  0.00    -0.182 OA 
BRANCH  15  18
HETATM   18  C   UNL     1      -8.452   4.144  71.819  1.00  0.00    -0.103 C  
HETATM   19  O   UNL     1      -7.577   4.591  70.786  1.00  0.00    -0.051 OA 
HETATM   20  H   UNL     1      -6.801   4.047  70.713  1.00  0.00     0.000 HD 
ENDBRANCH  15  18
ENDBRANCH  14  15
ENDBRANCH   6  14
TORSDOF 3
ENDMDL
MODEL      134
REMARK 921   NORMALIZED FREE ENERGY PREDICTED BY IDOCK:   -3.47 KCAL/MOL
REMARK 922        TOTAL FREE ENERGY PREDICTED BY IDOCK:   -4.56 KCAL/MOL
REMARK 923 INTER-LIGAND FREE ENERGY PREDICTED BY IDOCK:   -4.32 KCAL/MOL
REMARK 924 INTRA-LIGAND FREE ENERGY PREDICTED BY IDOCK:   -0.23 KCAL/MOL
REMARK 927      BINDING AFFINITY PREDICTED BY RF-SCORE:    0.00 PKD
ROOT
HETATM    1  C   UNL     1      -7.227   7.076  63.731  1.00  0.00    -0.067 C  
HETATM    2  N   UNL     1      -8.055   7.556  64.821  1.00  0.00    -0.132 N  
HETATM    3  C   UNL     1      -8.679   8.779  64.770  1.00  0.00    -0.097 A  
HETATM    4  C   UNL     1      -9.472   9.219  65.789  1.00  0.00    -0.262 A  
HETATM    5  C   UNL     1      -9.721   8.459  66.966  1.00  0.00    -0.206 C  
HETATM    6  N   UNL     1      -9.919  10.447  65.383  1.00  0.00    -0.280 NA 
HETATM    7  O   UNL     1     -10.457   8.855  67.869  1.00  0.00    -0.228 OA 
HETATM    8  N   UNL     1      -9.043   7.237  66.978  1.00  0.00    -0.130 N  
HETATM    9  O   UNL     1      -7.677   5.640  66.026  1.00  0.00    -0.092 OA 
HETATM   10  C   UNL     1      -9.360  10.691  64.155  1.00  0.00    -0.258 A  
HETATM   11  N   UNL     1      -8.604   9.687  63.759  1.00  0.00    -0.192 NA 
HETATM   12  C   UNL     1      -9.196   6.375  68.133  1.00  0.00    -0.111 C  
HETATM   13  C   UNL     1      -8.223   6.746  65.942  1.00  0.00    -0.132 C  
ENDROOT
BRANCH   6  14
HETATM   14  C   UNL     1     -10.778  11.356  66.116  1.00  0.00    -0.267 C  
BRANCH  14  15
HETATM   15  C   UNL     1     -11.369  12.463  65.237  1.00  0.00    -0.332 C  
HETATM   16  H   UNL     1     -13.150  13.269  64.865  1.00  0.00     0.000 HD 
HETATM   17  O   UNL     1     -12.783  12.583  65.410  1.00  0.00    -0.624 OA 
BRANCH  15  18
HETATM   18  C   UNL     1     -10.705  13.810  65.563  1.00  0.00    -0.302 C  
HETATM   19  O   UNL     1     -10.085  14.395  64.421  1.00  0.00    -0.610 OA 
HETATM   20  H   UNL     1      -9.674  15.228  64.622  1.00  0.00     0.000 HD 
ENDBRANCH  15  18
ENDBRANCH  14  15
ENDBRANCH   6  14
TORSDOF 3
ENDMDL
MODEL      135
REMARK 921   NORMALIZED FREE ENERGY PREDICTED BY IDOCK:   -3.47 KCAL/MOL
REMARK 922        TOTAL FREE ENERGY PREDICTED BY IDOCK:   -4.55 KCAL/MOL
REMARK 923 INTER-LIGAND FREE ENERGY PREDICTED BY IDOCK:   -4.01 KCAL/MOL
REMARK 924 INTRA-LIGAND FREE ENERGY PREDICTED BY IDOCK:   -0.55 KCAL/MOL
REMARK 927      BINDING AFFINITY PREDICTED BY RF-SCORE:    0.00 PKD
ROOT
HETATM    1  C   UNL     1     -11.600  10.000  71.031  1.00  0.00    -0.393 C  
HETATM    2  N   UNL     1     -11.154   8.629  70.877  1.00  0.00    -0.255 N  
HETATM    3  C   UNL     1     -10.360   8.241  69.824  1.00  0.00    -0.216 A  
HETATM    4  C   UNL     1      -9.925   6.954  69.694  1.00  0.00    -0.171 A  
HETATM    5  C   UNL     1     -10.248   5.925  70.624  1.00  0.00    -0.209 C  
HETATM    6  N   UNL     1      -9.166   6.952  68.556  1.00  0.00    -0.130 NA 
HETATM    7  O   UNL     1      -9.832   4.774  70.509  1.00  0.00    -0.195 OA 
HETATM    8  N   UNL     1     -11.076   6.367  71.658  1.00  0.00    -0.256 N  
HETATM    9  O   UNL     1     -12.253   7.998  72.790  1.00  0.00    -0.251 OA 
HETATM   10  C   UNL     1      -9.195   8.227  68.052  1.00  0.00    -0.136 A  
HETATM   11  N   UNL     1      -9.913   9.031  68.810  1.00  0.00    -0.176 NA 
HETATM   12  C   UNL     1     -11.496   5.410  72.662  1.00  0.00    -0.241 C  
HETATM   13  C   UNL     1     -11.538   7.689  71.831  1.00  0.00    -0.280 C  
ENDROOT
BRANCH   6  14
HETATM   14  C   UNL     1      -8.491   5.821  67.953  1.00  0.00    -0.103 C  
BRANCH  14  15
HETATM   15  C   UNL     1      -8.625   5.786  66.427  1.00  0.00    -0.125 C  
HETATM   16  H   UNL     1      -7.557   5.188  64.857  1.00  0.00     0.000 HD 
HETATM   17  O   UNL     1      -7.474   5.209  65.803  1.00  0.00    -0.079 OA 
BRANCH  15  18
HETATM   18  C   UNL     1      -9.872   4.986  66.022  1.00  0.00    -0.188 C  
HETATM   19  O   UNL     1     -11.069   5.548  66.555  1.00  0.00    -0.603 OA 
HETATM   20  H   UNL     1     -11.841   5.053  66.304  1.00  0.00     0.000 HD 
ENDBRANCH  15  18
ENDBRANCH  14  15
ENDBRANCH   6  14
TORSDOF 3
ENDMDL
MODEL      136
REMARK 921   NORMALIZED FREE ENERGY PREDICTED BY IDOCK:   -3.45 KCAL/MOL
REMARK 922        TOTAL FREE ENERGY PREDICTED BY IDOCK:   -4.53 KCAL/MOL
REMARK 923 INTER-LIGAND FREE ENERGY PREDICTED BY IDOCK:   -4.33 KCAL/MOL
REMARK 924 INTRA-LIGAND FREE ENERGY PREDICTED BY IDOCK:   -0.19 KCAL/MOL
REMARK 927      BINDING AFFINITY PREDICTED BY RF-SCORE:    0.00 PKD
ROOT
HETATM    1  C   UNL     1      -9.636   8.088  73.244  1.00  0.00    -0.252 C  
HETATM    2  N   UNL     1      -9.697   6.928  72.376  1.00  0.00    -0.154 N  
HETATM    3  C   UNL     1      -9.462   7.023  71.025  1.00  0.00    -0.159 A  
HETATM    4  C   UNL     1      -9.501   5.926  70.215  1.00  0.00    -0.162 A  
HETATM    5  C   UNL     1      -9.778   4.614  70.693  1.00  0.00    -0.207 C  
HETATM    6  N   UNL     1      -9.212   6.401  68.965  1.00  0.00    -0.130 NA 
HETATM    7  O   UNL     1      -9.787   3.629  69.958  1.00  0.00    -0.161 OA 
HETATM    8  N   UNL     1     -10.033   4.579  72.066  1.00  0.00    -0.184 N  
HETATM    9  O   UNL     1     -10.213   5.562  74.146  1.00  0.00    -0.218 OA 
HETATM   10  C   UNL     1      -9.032   7.755  69.082  1.00  0.00    -0.145 A  
HETATM   11  N   UNL     1      -9.175   8.157  70.329  1.00  0.00    -0.151 NA 
HETATM   12  C   UNL     1     -10.349   3.302  72.676  1.00  0.00    -0.139 C  
HETATM   13  C   UNL     1      -9.994   5.688  72.936  1.00  0.00    -0.176 C  
ENDROOT
BRANCH   6  14
HETATM   14  C   UNL     1      -9.152   5.644  67.730  1.00  0.00    -0.106 C  
BRANCH  14  15
HETATM   15  C   UNL     1     -10.533   5.369  67.127  1.00  0.00    -0.235 C  
HETATM   16  H   UNL     1     -12.125   6.405  66.532  1.00  0.00     0.000 HD 
HETATM   17  O   UNL     1     -11.268   6.576  66.906  1.00  0.00    -0.387 OA 
BRANCH  15  18
HETATM   18  C   UNL     1     -10.389   4.615  65.796  1.00  0.00    -0.264 C  
HETATM   19  O   UNL     1     -11.618   4.553  65.076  1.00  0.00    -1.101 OA 
HETATM   20  H   UNL     1     -11.529   4.087  64.253  1.00  0.00     0.000 HD 
ENDBRANCH  15  18
ENDBRANCH  14  15
ENDBRANCH   6  14
TORSDOF 3
ENDMDL
MODEL      137
REMARK 921   NORMALIZED FREE ENERGY PREDICTED BY IDOCK:   -3.42 KCAL/MOL
REMARK 922        TOTAL FREE ENERGY PREDICTED BY IDOCK:   -4.50 KCAL/MOL
REMARK 923 INTER-LIGAND FREE ENERGY PREDICTED BY IDOCK:   -4.16 KCAL/MOL
REMARK 924 INTRA-LIGAND FREE ENERGY PREDICTED BY IDOCK:   -0.33 KCAL/MOL
REMARK 927      BINDING AFFINITY PREDICTED BY RF-SCORE:    0.00 PKD
ROOT
HETATM    1  C   UNL     1      -9.242   6.396  67.283  1.00  0.00    -0.119 C  
HETATM    2  N   UNL     1      -9.097   7.514  66.371  1.00  0.00    -0.168 N  
HETATM    3  C   UNL     1      -9.663   8.739  66.634  1.00  0.00    -0.242 A  
HETATM    4  C   UNL     1      -9.508   9.794  65.783  1.00  0.00    -0.240 A  
HETATM    5  C   UNL     1      -8.756   9.718  64.577  1.00  0.00    -0.198 C  
HETATM    6  N   UNL     1     -10.189  10.825  66.371  1.00  0.00    -0.233 NA 
HETATM    7  O   UNL     1      -8.604  10.682  63.828  1.00  0.00    -0.166 OA 
HETATM    8  N   UNL     1      -8.226   8.447  64.346  1.00  0.00    -0.159 N  
HETATM    9  O   UNL     1      -7.834   6.249  64.933  1.00  0.00    -0.099 OA 
HETATM   10  C   UNL     1     -10.732  10.336  67.532  1.00  0.00    -0.294 A  
HETATM   11  N   UNL     1     -10.421   9.068  67.715  1.00  0.00    -0.248 NA 
HETATM   12  C   UNL     1      -7.454   8.230  63.138  1.00  0.00    -0.116 C  
HETATM   13  C   UNL     1      -8.357   7.336  65.205  1.00  0.00    -0.104 C  
ENDROOT
BRANCH   6  14
HETATM   14  C   UNL     1     -10.361  12.170  65.860  1.00  0.00    -0.255 C  
BRANCH  14  15
HETATM   15  C   UNL     1     -11.512  12.288  64.856  1.00  0.00    -0.332 C  
HETATM   16  H   UNL     1     -13.383  12.967  64.818  1.00  0.00     0.000 HD 
HETATM   17  O   UNL     1     -12.669  12.894  65.440  1.00  0.00    -0.583 OA 
BRANCH  15  18
HETATM   18  C   UNL     1     -11.071  13.114  63.638  1.00  0.00    -0.132 C  
HETATM   19  O   UNL     1     -10.075  14.078  63.974  1.00  0.00    -0.476 OA 
HETATM   20  H   UNL     1      -9.802  14.589  63.220  1.00  0.00     0.000 HD 
ENDBRANCH  15  18
ENDBRANCH  14  15
ENDBRANCH   6  14
TORSDOF 3
ENDMDL
MODEL      138
REMARK 921   NORMALIZED FREE ENERGY PREDICTED BY IDOCK:   -3.42 KCAL/MOL
REMARK 922        TOTAL FREE ENERGY PREDICTED BY IDOCK:   -4.49 KCAL/MOL
REMARK 923 INTER-LIGAND FREE ENERGY PREDICTED BY IDOCK:   -3.83 KCAL/MOL
REMARK 924 INTRA-LIGAND FREE ENERGY PREDICTED BY IDOCK:   -0.66 KCAL/MOL
REMARK 927      BINDING AFFINITY PREDICTED BY RF-SCORE:    0.00 PKD
ROOT
HETATM    1  C   UNL     1      -5.775  10.774  69.723  1.00  0.00    -0.053 C  
HETATM    2  N   UNL     1      -7.210  10.575  69.649  1.00  0.00    -0.137 N  
HETATM    3  C   UNL     1      -7.867   9.726  70.509  1.00  0.00    -0.043 A  
HETATM    4  C   UNL     1      -9.219   9.556  70.450  1.00  0.00    -0.253 A  
HETATM    5  C   UNL     1     -10.049  10.236  69.514  1.00  0.00    -0.235 C  
HETATM    6  N   UNL     1      -9.507   8.664  71.446  1.00  0.00    -0.212 NA 
HETATM    7  O   UNL     1     -11.270  10.094  69.484  1.00  0.00    -0.238 OA 
HETATM    8  N   UNL     1      -9.329  11.065  68.650  1.00  0.00    -0.190 N  
HETATM    9  O   UNL     1      -7.380  12.043  67.895  1.00  0.00    -0.089 OA 
HETATM   10  C   UNL     1      -8.317   8.330  72.041  1.00  0.00    -0.165 A  
HETATM   11  N   UNL     1      -7.304   8.968  71.489  1.00  0.00    -0.293 NA 
HETATM   12  C   UNL     1     -10.056  11.800  67.634  1.00  0.00    -0.193 C  
HETATM   13  C   UNL     1      -7.934  11.272  68.686  1.00  0.00    -0.145 C  
ENDROOT
BRANCH   6  14
HETATM   14  C   UNL     1     -10.805   8.124  71.793  1.00  0.00    -0.256 C  
BRANCH  14  15
HETATM   15  C   UNL     1     -10.951   6.640  71.440  1.00  0.00    -0.250 C  
HETATM   16  H   UNL     1     -11.692   4.985  72.261  1.00  0.00     0.000 HD 
HETATM   17  O   UNL     1     -11.601   5.905  72.480  1.00  0.00    -0.302 OA 
BRANCH  15  18
HETATM   18  C   UNL     1     -11.750   6.482  70.136  1.00  0.00    -0.353 C  
HETATM   19  O   UNL     1     -11.096   7.093  69.026  1.00  0.00    -0.426 OA 
HETATM   20  H   UNL     1     -11.590   6.995  68.221  1.00  0.00     0.000 HD 
ENDBRANCH  15  18
ENDBRANCH  14  15
ENDBRANCH   6  14
TORSDOF 3
ENDMDL
MODEL      139
REMARK 921   NORMALIZED FREE ENERGY PREDICTED BY IDOCK:   -3.40 KCAL/MOL
REMARK 922        TOTAL FREE ENERGY PREDICTED BY IDOCK:   -4.47 KCAL/MOL
REMARK 923 INTER-LIGAND FREE ENERGY PREDICTED BY IDOCK:   -4.14 KCAL/MOL
REMARK 924 INTRA-LIGAND FREE ENERGY PREDICTED BY IDOCK:   -0.33 KCAL/MOL
REMARK 927      BINDING AFFINITY PREDICTED BY RF-SCORE:    0.00 PKD
ROOT
HETATM    1  C   UNL     1     -10.858   5.772  66.778  1.00  0.00    -0.248 C  
HETATM    2  N   UNL     1     -10.734   6.752  67.839  1.00  0.00    -0.242 N  
HETATM    3  C   UNL     1     -10.530   8.085  67.570  1.00  0.00    -0.260 A  
HETATM    4  C   UNL     1     -10.433   9.008  68.570  1.00  0.00    -0.196 A  
HETATM    5  C   UNL     1     -10.539   8.675  69.950  1.00  0.00    -0.224 C  
HETATM    6  N   UNL     1     -10.247  10.203  67.931  1.00  0.00    -0.170 NA 
HETATM    7  O   UNL     1     -10.473   9.518  70.843  1.00  0.00    -0.285 OA 
HETATM    8  N   UNL     1     -10.719   7.307  70.167  1.00  0.00    -0.239 N  
HETATM    9  O   UNL     1     -11.014   5.136  69.442  1.00  0.00     0.074 OA 
HETATM   10  C   UNL     1     -10.224   9.938  66.585  1.00  0.00    -0.226 A  
HETATM   11  N   UNL     1     -10.399   8.655  66.341  1.00  0.00    -0.190 NA 
HETATM   12  C   UNL     1     -10.821   6.832  71.533  1.00  0.00    -0.234 C  
HETATM   13  C   UNL     1     -10.833   6.326  69.160  1.00  0.00    -0.340 C  
ENDROOT
BRANCH   6  14
HETATM   14  C   UNL     1     -10.058  11.505  68.539  1.00  0.00    -0.207 C  
BRANCH  14  15
HETATM   15  C   UNL     1     -11.287  12.411  68.411  1.00  0.00    -0.285 C  
HETATM   16  H   UNL     1     -12.528  13.406  69.609  1.00  0.00     0.000 HD 
HETATM   17  O   UNL     1     -11.765  12.844  69.688  1.00  0.00    -0.300 OA 
BRANCH  15  18
HETATM   18  C   UNL     1     -10.952  13.641  67.554  1.00  0.00    -0.268 C  
HETATM   19  O   UNL     1     -11.368  13.484  66.200  1.00  0.00    -0.300 OA 
HETATM   20  H   UNL     1     -11.161  14.245  65.670  1.00  0.00     0.000 HD 
ENDBRANCH  15  18
ENDBRANCH  14  15
ENDBRANCH   6  14
TORSDOF 3
ENDMDL
MODEL      140
REMARK 921   NORMALIZED FREE ENERGY PREDICTED BY IDOCK:   -3.38 KCAL/MOL
REMARK 922        TOTAL FREE ENERGY PREDICTED BY IDOCK:   -4.44 KCAL/MOL
REMARK 923 INTER-LIGAND FREE ENERGY PREDICTED BY IDOCK:   -3.94 KCAL/MOL
REMARK 924 INTRA-LIGAND FREE ENERGY PREDICTED BY IDOCK:   -0.50 KCAL/MOL
REMARK 927      BINDING AFFINITY PREDICTED BY RF-SCORE:    0.00 PKD
ROOT
HETATM    1  C   UNL     1      -6.490   4.509  69.390  1.00  0.00    -0.036 C  
HETATM    2  N   UNL     1      -7.875   4.938  69.363  1.00  0.00    -0.070 N  
HETATM    3  C   UNL     1      -8.551   5.270  70.513  1.00  0.00    -0.120 A  
HETATM    4  C   UNL     1      -9.848   5.692  70.482  1.00  0.00    -0.191 A  
HETATM    5  C   UNL     1     -10.594   5.828  69.277  1.00  0.00    -0.306 C  
HETATM    6  N   UNL     1     -10.171   5.935  71.789  1.00  0.00    -0.198 NA 
HETATM    7  O   UNL     1     -11.755   6.232  69.258  1.00  0.00    -0.262 OA 
HETATM    8  N   UNL     1      -9.868   5.454  68.144  1.00  0.00    -0.138 N  
HETATM    9  O   UNL     1      -7.953   4.731  67.080  1.00  0.00    -0.101 OA 
HETATM   10  C   UNL     1      -9.064   5.631  72.539  1.00  0.00    -0.136 A  
HETATM   11  N   UNL     1      -8.062   5.227  71.783  1.00  0.00    -0.115 NA 
HETATM   12  C   UNL     1     -10.522   5.528  66.852  1.00  0.00    -0.287 C  
HETATM   13  C   UNL     1      -8.526   5.022  68.135  1.00  0.00    -0.099 C  
ENDROOT
BRANCH   6  14
HETATM   14  C   UNL     1     -11.448   6.380  72.310  1.00  0.00    -0.298 C  
BRANCH  14  15
HETATM   15  C   UNL     1     -11.569   7.906  72.378  1.00  0.00    -0.380 C  
HETATM   16  H   UNL     1     -10.618   9.502  71.664  1.00  0.00     0.000 HD 
HETATM   17  O   UNL     1     -10.543   8.556  71.622  1.00  0.00    -0.238 OA 
BRANCH  15  18
HETATM   18  C   UNL     1     -12.942   8.352  71.853  1.00  0.00    -0.355 C  
HETATM   19  O   UNL     1     -13.569   7.346  71.061  1.00  0.00    -0.613 OA 
HETATM   20  H   UNL     1     -14.418   7.622  70.736  1.00  0.00     0.000 HD 
ENDBRANCH  15  18
ENDBRANCH  14  15
ENDBRANCH   6  14
TORSDOF 3
ENDMDL
MODEL      141
REMARK 921   NORMALIZED FREE ENERGY PREDICTED BY IDOCK:   -3.37 KCAL/MOL
REMARK 922        TOTAL FREE ENERGY PREDICTED BY IDOCK:   -4.44 KCAL/MOL
REMARK 923 INTER-LIGAND FREE ENERGY PREDICTED BY IDOCK:   -4.10 KCAL/MOL
REMARK 924 INTRA-LIGAND FREE ENERGY PREDICTED BY IDOCK:   -0.33 KCAL/MOL
REMARK 927      BINDING AFFINITY PREDICTED BY RF-SCORE:    0.00 PKD
ROOT
HETATM    1  C   UNL     1      -7.635   7.558  64.794  1.00  0.00    -0.102 C  
HETATM    2  N   UNL     1      -7.899   8.706  65.640  1.00  0.00    -0.098 N  
HETATM    3  C   UNL     1      -8.744   9.716  65.243  1.00  0.00    -0.160 A  
HETATM    4  C   UNL     1      -9.006  10.785  66.050  1.00  0.00    -0.181 A  
HETATM    5  C   UNL     1      -8.442  10.938  67.348  1.00  0.00    -0.120 C  
HETATM    6  N   UNL     1      -9.880  11.559  65.336  1.00  0.00    -0.229 NA 
HETATM    7  O   UNL     1      -8.703  11.893  68.076  1.00  0.00    -0.158 OA 
HETATM    8  N   UNL     1      -7.573   9.898  67.689  1.00  0.00    -0.091 N  
HETATM    9  O   UNL     1      -6.518   7.888  67.278  1.00  0.00    -0.053 OA 
HETATM   10  C   UNL     1     -10.084  10.929  64.135  1.00  0.00    -0.355 A  
HETATM   11  N   UNL     1      -9.406   9.802  64.057  1.00  0.00    -0.228 NA 
HETATM   12  C   UNL     1      -6.916   9.945  68.980  1.00  0.00    -0.059 C  
HETATM   13  C   UNL     1      -7.285   8.774  66.887  1.00  0.00    -0.079 C  
ENDROOT
BRANCH   6  14
HETATM   14  C   UNL     1     -10.453  12.829  65.732  1.00  0.00    -0.276 C  
BRANCH  14  15
HETATM   15  C   UNL     1     -11.905  12.711  66.205  1.00  0.00    -0.418 C  
HETATM   16  H   UNL     1     -12.908  11.928  67.736  1.00  0.00     0.000 HD 
HETATM   17  O   UNL     1     -12.008  12.002  67.443  1.00  0.00    -0.583 OA 
BRANCH  15  18
HETATM   18  C   UNL     1     -12.524  14.108  66.371  1.00  0.00    -0.318 C  
HETATM   19  O   UNL     1     -12.397  14.598  67.704  1.00  0.00    -0.597 OA 
HETATM   20  H   UNL     1     -12.779  15.462  67.806  1.00  0.00     0.000 HD 
ENDBRANCH  15  18
ENDBRANCH  14  15
ENDBRANCH   6  14
TORSDOF 3
ENDMDL
MODEL      142
REMARK 921   NORMALIZED FREE ENERGY PREDICTED BY IDOCK:   -3.34 KCAL/MOL
REMARK 922        TOTAL FREE ENERGY PREDICTED BY IDOCK:   -4.40 KCAL/MOL
REMARK 923 INTER-LIGAND FREE ENERGY PREDICTED BY IDOCK:   -4.27 KCAL/MOL
REMARK 924 INTRA-LIGAND FREE ENERGY PREDICTED BY IDOCK:   -0.12 KCAL/MOL
REMARK 927      BINDING AFFINITY PREDICTED BY RF-SCORE:    0.00 PKD
ROOT
HETATM    1  C   UNL     1     -13.278  11.703  71.851  1.00  0.00    -0.369 C  
HETATM    2  N   UNL     1     -12.579  10.567  71.282  1.00  0.00    -0.388 N  
HETATM    3  C   UNL     1     -11.679  10.714  70.253  1.00  0.00    -0.344 A  
HETATM    4  C   UNL     1     -11.008   9.645  69.734  1.00  0.00    -0.240 A  
HETATM    5  C   UNL     1     -11.177   8.314  70.210  1.00  0.00    -0.176 C  
HETATM    6  N   UNL     1     -10.209  10.171  68.756  1.00  0.00    -0.177 NA 
HETATM    7  O   UNL     1     -10.550   7.361  69.751  1.00  0.00    -0.227 OA 
HETATM    8  N   UNL     1     -12.120   8.219  71.236  1.00  0.00    -0.288 N  
HETATM    9  O   UNL     1     -13.629   9.127  72.727  1.00  0.00    -0.430 OA 
HETATM   10  C   UNL     1     -10.451  11.521  68.724  1.00  0.00    -0.204 A  
HETATM   11  N   UNL     1     -11.340  11.875  69.630  1.00  0.00    -0.231 NA 
HETATM   12  C   UNL     1     -12.400   6.911  71.796  1.00  0.00    -0.361 C  
HETATM   13  C   UNL     1     -12.825   9.300  71.804  1.00  0.00    -0.382 C  
ENDROOT
BRANCH   6  14
HETATM   14  C   UNL     1      -9.310   9.453  67.876  1.00  0.00    -0.129 C  
BRANCH  14  15
HETATM   15  C   UNL     1      -8.009   9.027  68.566  1.00  0.00    -0.103 C  
HETATM   16  H   UNL     1      -6.381   7.965  68.136  1.00  0.00     0.000 HD 
HETATM   17  O   UNL     1      -7.188   8.229  67.709  1.00  0.00    -0.084 OA 
BRANCH  15  18
HETATM   18  C   UNL     1      -7.217  10.265  69.013  1.00  0.00    -0.080 C  
HETATM   19  O   UNL     1      -6.580  10.922  67.920  1.00  0.00    -0.062 OA 
HETATM   20  H   UNL     1      -6.091  11.688  68.197  1.00  0.00     0.000 HD 
ENDBRANCH  15  18
ENDBRANCH  14  15
ENDBRANCH   6  14
TORSDOF 3
ENDMDL
MODEL      143
REMARK 921   NORMALIZED FREE ENERGY PREDICTED BY IDOCK:   -3.32 KCAL/MOL
REMARK 922        TOTAL FREE ENERGY PREDICTED BY IDOCK:   -4.37 KCAL/MOL
REMARK 923 INTER-LIGAND FREE ENERGY PREDICTED BY IDOCK:   -4.11 KCAL/MOL
REMARK 924 INTRA-LIGAND FREE ENERGY PREDICTED BY IDOCK:   -0.26 KCAL/MOL
REMARK 927      BINDING AFFINITY PREDICTED BY RF-SCORE:    0.00 PKD
ROOT
HETATM    1  C   UNL     1      -8.834   9.186  66.228  1.00  0.00    -0.148 C  
HETATM    2  N   UNL     1      -9.031   8.354  67.399  1.00  0.00    -0.133 N  
HETATM    3  C   UNL     1      -9.853   8.741  68.431  1.00  0.00    -0.171 A  
HETATM    4  C   UNL     1     -10.051   7.947  69.523  1.00  0.00    -0.195 A  
HETATM    5  C   UNL     1      -9.438   6.672  69.679  1.00  0.00    -0.142 C  
HETATM    6  N   UNL     1     -10.921   8.646  70.314  1.00  0.00    -0.242 NA 
HETATM    7  O   UNL     1      -9.641   5.954  70.657  1.00  0.00    -0.168 OA 
HETATM    8  N   UNL     1      -8.594   6.340  68.616  1.00  0.00    -0.121 N  
HETATM    9  O   UNL     1      -7.623   6.747  66.563  1.00  0.00    -0.086 OA 
HETATM   10  C   UNL     1     -11.188   9.827  69.670  1.00  0.00    -0.178 A  
HETATM   11  N   UNL     1     -10.552   9.906  68.519  1.00  0.00    -0.208 NA 
HETATM   12  C   UNL     1      -7.892   5.073  68.664  1.00  0.00    -0.078 C  
HETATM   13  C   UNL     1      -8.372   7.129  67.469  1.00  0.00    -0.116 C  
ENDROOT
BRANCH   6  14
HETATM   14  C   UNL     1     -11.436   8.255  71.611  1.00  0.00    -0.278 C  
BRANCH  14  15
HETATM   15  C   UNL     1     -12.625   7.294  71.519  1.00  0.00    -0.379 C  
HETATM   16  H   UNL     1     -13.135   5.496  72.204  1.00  0.00     0.000 HD 
HETATM   17  O   UNL     1     -12.398   6.092  72.261  1.00  0.00    -0.271 OA 
BRANCH  15  18
HETATM   18  C   UNL     1     -13.900   7.975  72.041  1.00  0.00    -0.280 C  
HETATM   19  O   UNL     1     -13.615   8.974  73.018  1.00  0.00    -0.915 OA 
HETATM   20  H   UNL     1     -14.403   9.395  73.340  1.00  0.00     0.000 HD 
ENDBRANCH  15  18
ENDBRANCH  14  15
ENDBRANCH   6  14
TORSDOF 3
ENDMDL
MODEL      144
REMARK 921   NORMALIZED FREE ENERGY PREDICTED BY IDOCK:   -3.30 KCAL/MOL
REMARK 922        TOTAL FREE ENERGY PREDICTED BY IDOCK:   -4.36 KCAL/MOL
REMARK 923 INTER-LIGAND FREE ENERGY PREDICTED BY IDOCK:   -4.35 KCAL/MOL
REMARK 924 INTRA-LIGAND FREE ENERGY PREDICTED BY IDOCK:   -0.01 KCAL/MOL
REMARK 927      BINDING AFFINITY PREDICTED BY RF-SCORE:    0.00 PKD
ROOT
HETATM    1  C   UNL     1      -8.167   9.662  66.670  1.00  0.00    -0.120 C  
HETATM    2  N   UNL     1      -9.157  10.041  67.659  1.00  0.00    -0.134 N  
HETATM    3  C   UNL     1      -9.289   9.361  68.846  1.00  0.00    -0.154 A  
HETATM    4  C   UNL     1     -10.209   9.733  69.783  1.00  0.00    -0.242 A  
HETATM    5  C   UNL     1     -11.088  10.840  69.615  1.00  0.00    -0.279 C  
HETATM    6  N   UNL     1     -10.042   8.847  70.813  1.00  0.00    -0.209 NA 
HETATM    7  O   UNL     1     -11.898  11.181  70.476  1.00  0.00    -0.337 OA 
HETATM    8  N   UNL     1     -10.929  11.478  68.383  1.00  0.00    -0.204 N  
HETATM    9  O   UNL     1      -9.898  11.764  66.338  1.00  0.00    -0.204 OA 
HETATM   10  C   UNL     1      -9.047   7.981  70.438  1.00  0.00    -0.150 A  
HETATM   11  N   UNL     1      -8.570   8.276  69.245  1.00  0.00    -0.136 NA 
HETATM   12  C   UNL     1     -11.781  12.611  68.078  1.00  0.00    -0.350 C  
HETATM   13  C   UNL     1      -9.985  11.129  67.395  1.00  0.00    -0.179 C  
ENDROOT
BRANCH   6  14
HETATM   14  C   UNL     1     -10.793   8.786  72.050  1.00  0.00    -0.358 C  
BRANCH  14  15
HETATM   15  C   UNL     1     -11.668   7.533  72.158  1.00  0.00    -0.303 C  
HETATM   16  H   UNL     1     -12.836   6.433  70.981  1.00  0.00     0.000 HD 
HETATM   17  O   UNL     1     -12.293   7.209  70.913  1.00  0.00    -0.344 OA 
BRANCH  15  18
HETATM   18  C   UNL     1     -10.825   6.336  72.625  1.00  0.00    -0.242 C  
HETATM   19  O   UNL     1     -10.752   6.250  74.046  1.00  0.00    -0.405 OA 
HETATM   20  H   UNL     1     -10.231   5.510  74.334  1.00  0.00     0.000 HD 
ENDBRANCH  15  18
ENDBRANCH  14  15
ENDBRANCH   6  14
TORSDOF 3
ENDMDL
MODEL      145
REMARK 921   NORMALIZED FREE ENERGY PREDICTED BY IDOCK:   -3.30 KCAL/MOL
REMARK 922        TOTAL FREE ENERGY PREDICTED BY IDOCK:   -4.35 KCAL/MOL
REMARK 923 INTER-LIGAND FREE ENERGY PREDICTED BY IDOCK:   -3.77 KCAL/MOL
REMARK 924 INTRA-LIGAND FREE ENERGY PREDICTED BY IDOCK:   -0.58 KCAL/MOL
REMARK 927      BINDING AFFINITY PREDICTED BY RF-SCORE:    0.00 PKD
ROOT
HETATM    1  C   UNL     1      -9.535   3.629  72.868  1.00  0.00    -0.115 C  
HETATM    2  N   UNL     1     -10.064   4.750  72.116  1.00  0.00    -0.186 N  
HETATM    3  C   UNL     1     -10.060   4.763  70.741  1.00  0.00    -0.216 A  
HETATM    4  C   UNL     1     -10.576   5.811  70.036  1.00  0.00    -0.310 A  
HETATM    5  C   UNL     1     -11.157   6.955  70.654  1.00  0.00    -0.278 C  
HETATM    6  N   UNL     1     -10.409   5.469  68.722  1.00  0.00    -0.205 NA 
HETATM    7  O   UNL     1     -11.641   7.883  70.009  1.00  0.00    -0.046 OA 
HETATM    8  N   UNL     1     -11.112   6.901  72.049  1.00  0.00    -0.238 N  
HETATM    9  O   UNL     1     -10.614   5.859  74.047  1.00  0.00    -0.270 OA 
HETATM   10  C   UNL     1      -9.787   4.247  68.702  1.00  0.00    -0.048 A  
HETATM   11  N   UNL     1      -9.568   3.795  69.921  1.00  0.00    -0.196 NA 
HETATM   12  C   UNL     1     -11.654   8.016  72.800  1.00  0.00    -0.327 C  
HETATM   13  C   UNL     1     -10.595   5.833  72.812  1.00  0.00    -0.226 C  
ENDROOT
BRANCH   6  14
HETATM   14  C   UNL     1     -10.766   6.254  67.558  1.00  0.00    -0.319 C  
BRANCH  14  15
HETATM   15  C   UNL     1      -9.670   7.238  67.139  1.00  0.00    -0.168 C  
HETATM   16  H   UNL     1      -8.269   7.388  65.732  1.00  0.00     0.000 HD 
HETATM   17  O   UNL     1      -8.949   6.778  65.992  1.00  0.00    -0.153 OA 
BRANCH  15  18
HETATM   18  C   UNL     1     -10.282   8.613  66.829  1.00  0.00    -0.291 C  
HETATM   19  O   UNL     1     -10.172   9.512  67.930  1.00  0.00    -0.181 OA 
HETATM   20  H   UNL     1     -10.551  10.362  67.738  1.00  0.00     0.000 HD 
ENDBRANCH  15  18
ENDBRANCH  14  15
ENDBRANCH   6  14
TORSDOF 3
ENDMDL
MODEL      146
REMARK 921   NORMALIZED FREE ENERGY PREDICTED BY IDOCK:   -3.26 KCAL/MOL
REMARK 922        TOTAL FREE ENERGY PREDICTED BY IDOCK:   -4.30 KCAL/MOL
REMARK 923 INTER-LIGAND FREE ENERGY PREDICTED BY IDOCK:   -3.71 KCAL/MOL
REMARK 924 INTRA-LIGAND FREE ENERGY PREDICTED BY IDOCK:   -0.60 KCAL/MOL
REMARK 927      BINDING AFFINITY PREDICTED BY RF-SCORE:    0.00 PKD
ROOT
HETATM    1  C   UNL     1      -9.922   9.075  66.999  1.00  0.00    -0.230 C  
HETATM    2  N   UNL     1      -9.990   7.845  67.765  1.00  0.00    -0.163 N  
HETATM    3  C   UNL     1     -10.530   7.809  69.029  1.00  0.00    -0.205 A  
HETATM    4  C   UNL     1     -10.610   6.647  69.738  1.00  0.00    -0.228 A  
HETATM    5  C   UNL     1     -10.155   5.395  69.236  1.00  0.00    -0.231 C  
HETATM    6  N   UNL     1     -11.202   6.995  70.921  1.00  0.00    -0.268 NA 
HETATM    7  O   UNL     1     -10.253   4.349  69.874  1.00  0.00    -0.163 OA 
HETATM    8  N   UNL     1      -9.593   5.493  67.960  1.00  0.00    -0.120 N  
HETATM    9  O   UNL     1      -9.006   6.665  66.061  1.00  0.00    -0.154 OA 
HETATM   10  C   UNL     1     -11.432   8.347  70.871  1.00  0.00    -0.267 A  
HETATM   11  N   UNL     1     -11.034   8.864  69.726  1.00  0.00    -0.202 NA 
HETATM   12  C   UNL     1      -9.072   4.290  67.342  1.00  0.00    -0.138 C  
HETATM   13  C   UNL     1      -9.501   6.673  67.194  1.00  0.00    -0.136 C  
ENDROOT
BRANCH   6  14
HETATM   14  C   UNL     1     -11.495   6.130  72.045  1.00  0.00    -0.313 C  
BRANCH  14  15
HETATM   15  C   UNL     1     -10.335   6.026  73.041  1.00  0.00    -0.204 C  
HETATM   16  H   UNL     1      -9.769   6.872  74.752  1.00  0.00     0.000 HD 
HETATM   17  O   UNL     1     -10.488   6.935  74.135  1.00  0.00    -0.357 OA 
BRANCH  15  18
HETATM   18  C   UNL     1     -10.232   4.594  73.587  1.00  0.00    -0.179 C  
HETATM   19  O   UNL     1     -10.544   3.616  72.598  1.00  0.00    -0.146 OA 
HETATM   20  H   UNL     1     -10.480   2.731  72.936  1.00  0.00     0.000 HD 
ENDBRANCH  15  18
ENDBRANCH  14  15
ENDBRANCH   6  14
TORSDOF 3
ENDMDL
MODEL      147
REMARK 921   NORMALIZED FREE ENERGY PREDICTED BY IDOCK:   -3.22 KCAL/MOL
REMARK 922        TOTAL FREE ENERGY PREDICTED BY IDOCK:   -4.25 KCAL/MOL
REMARK 923 INTER-LIGAND FREE ENERGY PREDICTED BY IDOCK:   -3.92 KCAL/MOL
REMARK 924 INTRA-LIGAND FREE ENERGY PREDICTED BY IDOCK:   -0.33 KCAL/MOL
REMARK 927      BINDING AFFINITY PREDICTED BY RF-SCORE:    0.00 PKD
ROOT
HETATM    1  C   UNL     1     -10.844  13.124  67.550  1.00  0.00    -0.255 C  
HETATM    2  N   UNL     1     -10.871  11.765  68.056  1.00  0.00    -0.203 N  
HETATM    3  C   UNL     1     -10.456  10.702  67.291  1.00  0.00    -0.246 A  
HETATM    4  C   UNL     1     -10.464   9.427  67.777  1.00  0.00    -0.254 A  
HETATM    5  C   UNL     1     -10.890   9.098  69.095  1.00  0.00    -0.110 C  
HETATM    6  N   UNL     1      -9.981   8.656  66.755  1.00  0.00    -0.248 NA 
HETATM    7  O   UNL     1     -10.871   7.949  69.531  1.00  0.00    -0.221 OA 
HETATM    8  N   UNL     1     -11.325  10.211  69.819  1.00  0.00    -0.257 N  
HETATM    9  O   UNL     1     -11.707  12.473  70.072  1.00  0.00    -0.297 OA 
HETATM   10  C   UNL     1      -9.725   9.500  65.704  1.00  0.00    -0.290 A  
HETATM   11  N   UNL     1     -10.003  10.751  66.008  1.00  0.00    -0.233 NA 
HETATM   12  C   UNL     1     -11.805  10.010  71.172  1.00  0.00    -0.393 C  
HETATM   13  C   UNL     1     -11.323  11.543  69.354  1.00  0.00    -0.289 C  
ENDROOT
BRANCH   6  14
HETATM   14  C   UNL     1      -9.812   7.217  66.743  1.00  0.00    -0.212 C  
BRANCH  14  15
HETATM   15  C   UNL     1      -8.358   6.783  66.954  1.00  0.00    -0.114 C  
HETATM   16  H   UNL     1      -7.024   6.731  68.431  1.00  0.00     0.000 HD 
HETATM   17  O   UNL     1      -7.926   7.000  68.300  1.00  0.00    -0.119 OA 
BRANCH  15  18
HETATM   18  C   UNL     1      -8.194   5.295  66.605  1.00  0.00    -0.108 C  
HETATM   19  O   UNL     1      -7.561   4.563  67.652  1.00  0.00    -0.076 OA 
HETATM   20  H   UNL     1      -7.459   3.644  67.437  1.00  0.00     0.000 HD 
ENDBRANCH  15  18
ENDBRANCH  14  15
ENDBRANCH   6  14
TORSDOF 3
ENDMDL
MODEL      148
REMARK 921   NORMALIZED FREE ENERGY PREDICTED BY IDOCK:   -3.20 KCAL/MOL
REMARK 922        TOTAL FREE ENERGY PREDICTED BY IDOCK:   -4.23 KCAL/MOL
REMARK 923 INTER-LIGAND FREE ENERGY PREDICTED BY IDOCK:   -4.09 KCAL/MOL
REMARK 924 INTRA-LIGAND FREE ENERGY PREDICTED BY IDOCK:   -0.14 KCAL/MOL
REMARK 927      BINDING AFFINITY PREDICTED BY RF-SCORE:    0.00 PKD
ROOT
HETATM    1  C   UNL     1      -8.800  19.445  66.622  1.00  0.00    -0.339 C  
HETATM    2  N   UNL     1      -8.249  18.325  67.360  1.00  0.00    -0.235 N  
HETATM    3  C   UNL     1      -8.548  17.025  67.029  1.00  0.00    -0.210 A  
HETATM    4  C   UNL     1      -8.013  15.973  67.713  1.00  0.00    -0.139 A  
HETATM    5  C   UNL     1      -7.110  16.130  68.803  1.00  0.00    -0.155 C  
HETATM    6  N   UNL     1      -8.521  14.859  67.102  1.00  0.00    -0.207 NA 
HETATM    7  O   UNL     1      -6.615  15.175  69.397  1.00  0.00    -0.127 OA 
HETATM    8  N   UNL     1      -6.862  17.470  69.112  1.00  0.00    -0.248 N  
HETATM    9  O   UNL     1      -7.098  19.737  68.754  1.00  0.00    -0.325 OA 
HETATM   10  C   UNL     1      -9.347  15.295  66.097  1.00  0.00    -0.325 A  
HETATM   11  N   UNL     1      -9.377  16.611  66.031  1.00  0.00    -0.452 NA 
HETATM   12  C   UNL     1      -5.973  17.768  70.219  1.00  0.00    -0.036 C  
HETATM   13  C   UNL     1      -7.389  18.582  68.424  1.00  0.00    -0.283 C  
ENDROOT
BRANCH   6  14
HETATM   14  C   UNL     1      -8.286  13.475  67.461  1.00  0.00    -0.183 C  
BRANCH  14  15
HETATM   15  C   UNL     1      -9.432  12.863  68.273  1.00  0.00    -0.206 C  
HETATM   16  H   UNL     1     -11.331  12.333  67.992  1.00  0.00     0.000 HD 
HETATM   17  O   UNL     1     -10.619  12.713  67.489  1.00  0.00    -0.218 OA 
BRANCH  15  18
HETATM   18  C   UNL     1      -9.016  11.491  68.826  1.00  0.00    -0.047 C  
HETATM   19  O   UNL     1      -7.709  11.514  69.394  1.00  0.00    -0.359 OA 
HETATM   20  H   UNL     1      -7.452  10.665  69.737  1.00  0.00     0.000 HD 
ENDBRANCH  15  18
ENDBRANCH  14  15
ENDBRANCH   6  14
TORSDOF 3
ENDMDL
MODEL      149
REMARK 921   NORMALIZED FREE ENERGY PREDICTED BY IDOCK:   -3.19 KCAL/MOL
REMARK 922        TOTAL FREE ENERGY PREDICTED BY IDOCK:   -4.22 KCAL/MOL
REMARK 923 INTER-LIGAND FREE ENERGY PREDICTED BY IDOCK:   -3.96 KCAL/MOL
REMARK 924 INTRA-LIGAND FREE ENERGY PREDICTED BY IDOCK:   -0.26 KCAL/MOL
REMARK 927      BINDING AFFINITY PREDICTED BY RF-SCORE:    0.00 PKD
ROOT
HETATM    1  C   UNL     1      -8.113   7.293  67.929  1.00  0.00    -0.119 C  
HETATM    2  N   UNL     1      -8.746   8.289  67.084  1.00  0.00    -0.122 N  
HETATM    3  C   UNL     1      -9.600   9.235  67.599  1.00  0.00    -0.142 A  
HETATM    4  C   UNL     1     -10.178  10.182  66.805  1.00  0.00    -0.228 A  
HETATM    5  C   UNL     1      -9.944  10.272  65.403  1.00  0.00    -0.302 C  
HETATM    6  N   UNL     1     -10.939  10.938  67.654  1.00  0.00    -0.272 NA 
HETATM    7  O   UNL     1     -10.451  11.144  64.700  1.00  0.00    -0.309 OA 
HETATM    8  N   UNL     1      -9.089   9.273  64.930  1.00  0.00    -0.203 N  
HETATM    9  O   UNL     1      -7.706   7.448  65.220  1.00  0.00    -0.098 OA 
HETATM   10  C   UNL     1     -10.796  10.399  68.907  1.00  0.00    -0.236 A  
HETATM   11  N   UNL     1      -9.982   9.363  68.899  1.00  0.00    -0.174 NA 
HETATM   12  C   UNL     1      -8.785   9.240  63.513  1.00  0.00    -0.169 C  
HETATM   13  C   UNL     1      -8.467   8.284  65.720  1.00  0.00    -0.151 C  
ENDROOT
BRANCH   6  14
HETATM   14  C   UNL     1     -11.783  12.065  67.310  1.00  0.00    -0.269 C  
BRANCH  14  15
HETATM   15  C   UNL     1     -11.096  13.417  67.529  1.00  0.00    -0.274 C  
HETATM   16  H   UNL     1      -9.530  14.418  66.816  1.00  0.00     0.000 HD 
HETATM   17  O   UNL     1      -9.956  13.580  66.681  1.00  0.00    -0.267 OA 
BRANCH  15  18
HETATM   18  C   UNL     1     -12.086  14.562  67.268  1.00  0.00    -0.264 C  
HETATM   19  O   UNL     1     -12.611  15.107  68.477  1.00  0.00    -0.363 OA 
HETATM   20  H   UNL     1     -13.223  15.815  68.315  1.00  0.00     0.000 HD 
ENDBRANCH  15  18
ENDBRANCH  14  15
ENDBRANCH   6  14
TORSDOF 3
ENDMDL
MODEL      150
REMARK 921   NORMALIZED FREE ENERGY PREDICTED BY IDOCK:   -3.18 KCAL/MOL
REMARK 922        TOTAL FREE ENERGY PREDICTED BY IDOCK:   -4.21 KCAL/MOL
REMARK 923 INTER-LIGAND FREE ENERGY PREDICTED BY IDOCK:   -3.79 KCAL/MOL
REMARK 924 INTRA-LIGAND FREE ENERGY PREDICTED BY IDOCK:   -0.43 KCAL/MOL
REMARK 927      BINDING AFFINITY PREDICTED BY RF-SCORE:    0.00 PKD
ROOT
HETATM    1  C   UNL     1      -8.700   6.201  65.576  1.00  0.00    -0.098 C  
HETATM    2  N   UNL     1      -9.354   7.086  66.521  1.00  0.00    -0.165 N  
HETATM    3  C   UNL     1      -9.875   6.621  67.705  1.00  0.00    -0.126 A  
HETATM    4  C   UNL     1     -10.472   7.460  68.600  1.00  0.00    -0.189 A  
HETATM    5  C   UNL     1     -10.597   8.862  68.390  1.00  0.00    -0.143 C  
HETATM    6  N   UNL     1     -10.849   6.655  69.640  1.00  0.00    -0.261 NA 
HETATM    7  O   UNL     1     -11.116   9.613  69.214  1.00  0.00    -0.208 OA 
HETATM    8  N   UNL     1     -10.075   9.276  67.162  1.00  0.00    -0.218 N  
HETATM    9  O   UNL     1      -8.989   8.897  65.161  1.00  0.00    -0.197 OA 
HETATM   10  C   UNL     1     -10.478   5.376  69.312  1.00  0.00    -0.239 A  
HETATM   11  N   UNL     1      -9.879   5.331  68.139  1.00  0.00    -0.143 NA 
HETATM   12  C   UNL     1     -10.158  10.681  66.816  1.00  0.00    -0.224 C  
HETATM   13  C   UNL     1      -9.444   8.442  66.216  1.00  0.00    -0.224 C  
ENDROOT
BRANCH   6  14
HETATM   14  C   UNL     1     -11.552   7.048  70.845  1.00  0.00    -0.328 C  
BRANCH  14  15
HETATM   15  C   UNL     1     -10.610   7.398  72.002  1.00  0.00    -0.208 C  
HETATM   16  H   UNL     1     -10.273   8.929  73.229  1.00  0.00     0.000 HD 
HETATM   17  O   UNL     1     -10.857   8.711  72.512  1.00  0.00    -0.306 OA 
BRANCH  15  18
HETATM   18  C   UNL     1     -10.766   6.377  73.140  1.00  0.00    -0.268 C  
HETATM   19  O   UNL     1     -11.310   5.141  72.684  1.00  0.00    -0.243 OA 
HETATM   20  H   UNL     1     -11.406   4.510  73.387  1.00  0.00     0.000 HD 
ENDBRANCH  15  18
ENDBRANCH  14  15
ENDBRANCH   6  14
TORSDOF 3
ENDMDL
MODEL      151
REMARK 921   NORMALIZED FREE ENERGY PREDICTED BY IDOCK:   -3.18 KCAL/MOL
REMARK 922        TOTAL FREE ENERGY PREDICTED BY IDOCK:   -4.21 KCAL/MOL
REMARK 923 INTER-LIGAND FREE ENERGY PREDICTED BY IDOCK:   -3.89 KCAL/MOL
REMARK 924 INTRA-LIGAND FREE ENERGY PREDICTED BY IDOCK:   -0.32 KCAL/MOL
REMARK 927      BINDING AFFINITY PREDICTED BY RF-SCORE:    0.00 PKD
ROOT
HETATM    1  C   UNL     1     -12.269  11.641  70.427  1.00  0.00    -0.347 C  
HETATM    2  N   UNL     1     -11.780  10.313  70.109  1.00  0.00    -0.278 N  
HETATM    3  C   UNL     1     -11.271  10.009  68.869  1.00  0.00    -0.131 A  
HETATM    4  C   UNL     1     -10.794   8.764  68.580  1.00  0.00     0.034 A  
HETATM    5  C   UNL     1     -10.778   7.697  69.523  1.00  0.00    -0.209 C  
HETATM    6  N   UNL     1     -10.369   8.842  67.282  1.00  0.00    -0.270 NA 
HETATM    7  O   UNL     1     -10.323   6.585  69.259  1.00  0.00    -0.179 OA 
HETATM    8  N   UNL     1     -11.329   8.054  70.756  1.00  0.00    -0.274 N  
HETATM    9  O   UNL     1     -12.276   9.565  72.220  1.00  0.00    -0.278 OA 
HETATM   10  C   UNL     1     -10.627  10.118  66.852  1.00  0.00    -0.200 A  
HETATM   11  N   UNL     1     -11.173  10.849  67.803  1.00  0.00    -0.327 NA 
HETATM   12  C   UNL     1     -11.391   7.049  71.799  1.00  0.00    -0.258 C  
HETATM   13  C   UNL     1     -11.823   9.330  71.094  1.00  0.00    -0.325 C  
ENDROOT
BRANCH   6  14
HETATM   14  C   UNL     1      -9.799   7.779  66.479  1.00  0.00    -0.185 C  
BRANCH  14  15
HETATM   15  C   UNL     1      -8.291   7.936  66.259  1.00  0.00    -0.126 C  
HETATM   16  H   UNL     1      -6.636   8.054  67.359  1.00  0.00     0.000 HD 
HETATM   17  O   UNL     1      -7.571   7.956  67.495  1.00  0.00    -0.100 OA 
BRANCH  15  18
HETATM   18  C   UNL     1      -7.760   6.789  65.385  1.00  0.00    -0.100 C  
HETATM   19  O   UNL     1      -8.498   6.648  64.174  1.00  0.00    -0.334 OA 
HETATM   20  H   UNL     1      -8.170   5.939  63.634  1.00  0.00     0.000 HD 
ENDBRANCH  15  18
ENDBRANCH  14  15
ENDBRANCH   6  14
TORSDOF 3
ENDMDL
MODEL      152
REMARK 921   NORMALIZED FREE ENERGY PREDICTED BY IDOCK:   -3.17 KCAL/MOL
REMARK 922        TOTAL FREE ENERGY PREDICTED BY IDOCK:   -4.20 KCAL/MOL
REMARK 923 INTER-LIGAND FREE ENERGY PREDICTED BY IDOCK:   -4.05 KCAL/MOL
REMARK 924 INTRA-LIGAND FREE ENERGY PREDICTED BY IDOCK:   -0.16 KCAL/MOL
REMARK 927      BINDING AFFINITY PREDICTED BY RF-SCORE:    0.00 PKD
ROOT
HETATM    1  C   UNL     1     -13.628   9.198  72.439  1.00  0.00    -0.483 C  
HETATM    2  N   UNL     1     -12.491   9.168  71.538  1.00  0.00    -0.329 N  
HETATM    3  C   UNL     1     -11.772   8.017  71.321  1.00  0.00    -0.282 A  
HETATM    4  C   UNL     1     -10.715   7.987  70.459  1.00  0.00    -0.229 A  
HETATM    5  C   UNL     1     -10.281   9.124  69.720  1.00  0.00    -0.207 C  
HETATM    6  N   UNL     1     -10.266   6.695  70.495  1.00  0.00    -0.187 NA 
HETATM    7  O   UNL     1      -9.342   9.081  68.927  1.00  0.00    -0.142 OA 
HETATM    8  N   UNL     1     -11.029  10.270  69.998  1.00  0.00    -0.292 N  
HETATM    9  O   UNL     1     -12.752  11.393  71.045  1.00  0.00    -0.374 OA 
HETATM   10  C   UNL     1     -11.060   6.020  71.387  1.00  0.00    -0.274 A  
HETATM   11  N   UNL     1     -11.987   6.804  71.900  1.00  0.00    -0.321 NA 
HETATM   12  C   UNL     1     -10.675  11.505  69.324  1.00  0.00    -0.125 C  
HETATM   13  C   UNL     1     -12.132  10.338  70.874  1.00  0.00    -0.368 C  
ENDROOT
BRANCH   6  14
HETATM   14  C   UNL     1      -9.139   6.137  69.777  1.00  0.00    -0.141 C  
BRANCH  14  15
HETATM   15  C   UNL     1      -7.809   6.312  70.517  1.00  0.00    -0.106 C  
HETATM   16  H   UNL     1      -7.058   5.949  72.325  1.00  0.00     0.000 HD 
HETATM   17  O   UNL     1      -7.883   5.840  71.866  1.00  0.00    -0.103 OA 
BRANCH  15  18
HETATM   18  C   UNL     1      -6.689   5.561  69.781  1.00  0.00    -0.051 C  
HETATM   19  O   UNL     1      -6.489   4.249  70.301  1.00  0.00    -0.029 OA 
HETATM   20  H   UNL     1      -5.796   3.784  69.845  1.00  0.00     0.000 HD 
ENDBRANCH  15  18
ENDBRANCH  14  15
ENDBRANCH   6  14
TORSDOF 3
ENDMDL
MODEL      153
REMARK 921   NORMALIZED FREE ENERGY PREDICTED BY IDOCK:   -3.17 KCAL/MOL
REMARK 922        TOTAL FREE ENERGY PREDICTED BY IDOCK:   -4.20 KCAL/MOL
REMARK 923 INTER-LIGAND FREE ENERGY PREDICTED BY IDOCK:   -4.16 KCAL/MOL
REMARK 924 INTRA-LIGAND FREE ENERGY PREDICTED BY IDOCK:   -0.04 KCAL/MOL
REMARK 927      BINDING AFFINITY PREDICTED BY RF-SCORE:    0.00 PKD
ROOT
HETATM    1  C   UNL     1     -13.403  10.577  71.697  1.00  0.00    -0.324 C  
HETATM    2  N   UNL     1     -12.132  10.153  71.142  1.00  0.00    -0.358 N  
HETATM    3  C   UNL     1     -11.398   9.140  71.711  1.00  0.00    -0.381 A  
HETATM    4  C   UNL     1     -10.212   8.730  71.176  1.00  0.00    -0.246 A  
HETATM    5  C   UNL     1      -9.648   9.304  70.001  1.00  0.00    -0.209 C  
HETATM    6  N   UNL     1      -9.788   7.716  71.991  1.00  0.00    -0.163 NA 
HETATM    7  O   UNL     1      -8.590   8.911  69.513  1.00  0.00    -0.127 OA 
HETATM    8  N   UNL     1     -10.421  10.344  69.480  1.00  0.00    -0.236 N  
HETATM    9  O   UNL     1     -12.284  11.706  69.460  1.00  0.00    -0.271 OA 
HETATM   10  C   UNL     1     -10.727   7.579  72.981  1.00  0.00    -0.384 A  
HETATM   11  N   UNL     1     -11.719   8.433  72.829  1.00  0.00    -0.301 NA 
HETATM   12  C   UNL     1      -9.947  11.028  68.293  1.00  0.00    -0.179 C  
HETATM   13  C   UNL     1     -11.654  10.789  69.999  1.00  0.00    -0.334 C  
ENDROOT
BRANCH   6  14
HETATM   14  C   UNL     1      -8.561   6.953  71.878  1.00  0.00    -0.118 C  
BRANCH  14  15
HETATM   15  C   UNL     1      -7.786   6.866  73.197  1.00  0.00    -0.094 C  
HETATM   16  H   UNL     1      -6.011   6.229  73.835  1.00  0.00     0.000 HD 
HETATM   17  O   UNL     1      -6.492   6.284  73.017  1.00  0.00    -0.065 OA 
BRANCH  15  18
HETATM   18  C   UNL     1      -7.628   8.265  73.812  1.00  0.00    -0.149 C  
HETATM   19  O   UNL     1      -6.330   8.809  73.587  1.00  0.00    -0.221 OA 
HETATM   20  H   UNL     1      -6.233   9.675  73.968  1.00  0.00     0.000 HD 
ENDBRANCH  15  18
ENDBRANCH  14  15
ENDBRANCH   6  14
TORSDOF 3
ENDMDL
MODEL      154
REMARK 921   NORMALIZED FREE ENERGY PREDICTED BY IDOCK:   -3.15 KCAL/MOL
REMARK 922        TOTAL FREE ENERGY PREDICTED BY IDOCK:   -4.17 KCAL/MOL
REMARK 923 INTER-LIGAND FREE ENERGY PREDICTED BY IDOCK:   -4.04 KCAL/MOL
REMARK 924 INTRA-LIGAND FREE ENERGY PREDICTED BY IDOCK:   -0.13 KCAL/MOL
REMARK 927      BINDING AFFINITY PREDICTED BY RF-SCORE:    0.00 PKD
ROOT
HETATM    1  C   UNL     1      -7.338   6.056  69.212  1.00  0.00    -0.083 C  
HETATM    2  N   UNL     1      -8.337   7.067  68.925  1.00  0.00    -0.125 N  
HETATM    3  C   UNL     1      -9.050   7.683  69.925  1.00  0.00    -0.147 A  
HETATM    4  C   UNL     1      -9.975   8.648  69.653  1.00  0.00    -0.191 A  
HETATM    5  C   UNL     1     -10.269   9.095  68.333  1.00  0.00    -0.200 C  
HETATM    6  N   UNL     1     -10.461   9.027  70.874  1.00  0.00    -0.232 NA 
HETATM    7  O   UNL     1     -11.088   9.982  68.100  1.00  0.00    -0.253 OA 
HETATM    8  N   UNL     1      -9.536   8.419  67.355  1.00  0.00    -0.143 N  
HETATM    9  O   UNL     1      -7.947   6.892  66.671  1.00  0.00    -0.104 OA 
HETATM   10  C   UNL     1      -9.820   8.262  71.815  1.00  0.00    -0.218 A  
HETATM   11  N   UNL     1      -8.953   7.438  71.261  1.00  0.00    -0.138 NA 
HETATM   12  C   UNL     1      -9.757   8.766  65.965  1.00  0.00    -0.206 C  
HETATM   13  C   UNL     1      -8.566   7.424  67.598  1.00  0.00    -0.119 C  
ENDROOT
BRANCH   6  14
HETATM   14  C   UNL     1     -11.492  10.009  71.144  1.00  0.00    -0.354 C  
BRANCH  14  15
HETATM   15  C   UNL     1     -12.601   9.479  72.059  1.00  0.00    -0.376 C  
HETATM   16  H   UNL     1     -14.326  10.117  72.821  1.00  0.00     0.000 HD 
HETATM   17  O   UNL     1     -13.638  10.445  72.254  1.00  0.00    -0.299 OA 
BRANCH  15  18
HETATM   18  C   UNL     1     -13.210   8.199  71.466  1.00  0.00    -0.284 C  
HETATM   19  O   UNL     1     -14.164   7.601  72.340  1.00  0.00    -0.563 OA 
HETATM   20  H   UNL     1     -14.540   6.810  71.974  1.00  0.00     0.000 HD 
ENDBRANCH  15  18
ENDBRANCH  14  15
ENDBRANCH   6  14
TORSDOF 3
ENDMDL
MODEL      155
REMARK 921   NORMALIZED FREE ENERGY PREDICTED BY IDOCK:   -3.11 KCAL/MOL
REMARK 922        TOTAL FREE ENERGY PREDICTED BY IDOCK:   -4.13 KCAL/MOL
REMARK 923 INTER-LIGAND FREE ENERGY PREDICTED BY IDOCK:   -3.60 KCAL/MOL
REMARK 924 INTRA-LIGAND FREE ENERGY PREDICTED BY IDOCK:   -0.53 KCAL/MOL
REMARK 927      BINDING AFFINITY PREDICTED BY RF-SCORE:    0.00 PKD
ROOT
HETATM    1  C   UNL     1      -7.387   7.768  64.348  1.00  0.00    -0.088 C  
HETATM    2  N   UNL     1      -8.377   7.556  65.386  1.00  0.00    -0.137 N  
HETATM    3  C   UNL     1      -9.036   8.605  65.981  1.00  0.00    -0.204 A  
HETATM    4  C   UNL     1      -9.982   8.401  66.943  1.00  0.00    -0.271 A  
HETATM    5  C   UNL     1     -10.363   7.107  67.398  1.00  0.00    -0.254 C  
HETATM    6  N   UNL     1     -10.416   9.653  67.284  1.00  0.00    -0.255 NA 
HETATM    7  O   UNL     1     -11.234   6.932  68.249  1.00  0.00    -0.115 OA 
HETATM    8  N   UNL     1      -9.645   6.080  66.780  1.00  0.00    -0.144 N  
HETATM    9  O   UNL     1      -8.096   5.282  65.267  1.00  0.00    -0.112 OA 
HETATM   10  C   UNL     1      -9.700  10.544  66.526  1.00  0.00    -0.192 A  
HETATM   11  N   UNL     1      -8.856   9.929  65.722  1.00  0.00    -0.141 NA 
HETATM   12  C   UNL     1      -9.924   4.712  67.170  1.00  0.00    -0.177 C  
HETATM   13  C   UNL     1      -8.669   6.251  65.777  1.00  0.00    -0.139 C  
ENDROOT
BRANCH   6  14
HETATM   14  C   UNL     1     -11.404   9.998  68.285  1.00  0.00    -0.049 C  
BRANCH  14  15
HETATM   15  C   UNL     1     -10.797  10.676  69.518  1.00  0.00    -0.259 C  
HETATM   16  H   UNL     1     -11.039  12.357  70.556  1.00  0.00     0.000 HD 
HETATM   17  O   UNL     1     -11.415  11.937  69.792  1.00  0.00    -0.278 OA 
BRANCH  15  18
HETATM   18  C   UNL     1     -10.942   9.766  70.748  1.00  0.00    -0.336 C  
HETATM   19  O   UNL     1     -12.028   8.852  70.617  1.00  0.00    -0.448 OA 
HETATM   20  H   UNL     1     -12.117   8.289  71.377  1.00  0.00     0.000 HD 
ENDBRANCH  15  18
ENDBRANCH  14  15
ENDBRANCH   6  14
TORSDOF 3
ENDMDL
MODEL      156
REMARK 921   NORMALIZED FREE ENERGY PREDICTED BY IDOCK:   -3.09 KCAL/MOL
REMARK 922        TOTAL FREE ENERGY PREDICTED BY IDOCK:   -4.10 KCAL/MOL
REMARK 923 INTER-LIGAND FREE ENERGY PREDICTED BY IDOCK:   -3.71 KCAL/MOL
REMARK 924 INTRA-LIGAND FREE ENERGY PREDICTED BY IDOCK:   -0.39 KCAL/MOL
REMARK 927      BINDING AFFINITY PREDICTED BY RF-SCORE:    0.00 PKD
ROOT
HETATM    1  C   UNL     1     -11.731  12.284  68.044  1.00  0.00    -0.356 C  
HETATM    2  N   UNL     1     -10.908  11.103  67.875  1.00  0.00    -0.217 N  
HETATM    3  C   UNL     1     -10.385  10.756  66.652  1.00  0.00    -0.241 A  
HETATM    4  C   UNL     1      -9.594   9.654  66.500  1.00  0.00    -0.196 A  
HETATM    5  C   UNL     1      -9.245   8.792  67.578  1.00  0.00    -0.136 C  
HETATM    6  N   UNL     1      -9.260   9.639  65.174  1.00  0.00    -0.230 NA 
HETATM    7  O   UNL     1      -8.512   7.815  67.435  1.00  0.00    -0.118 OA 
HETATM    8  N   UNL     1      -9.823   9.176  68.790  1.00  0.00    -0.163 N  
HETATM    9  O   UNL     1     -11.091  10.588  70.103  1.00  0.00    -0.285 OA 
HETATM   10  C   UNL     1      -9.879  10.717  64.593  1.00  0.00    -0.321 A  
HETATM   11  N   UNL     1     -10.566  11.414  65.475  1.00  0.00    -0.274 NA 
HETATM   12  C   UNL     1      -9.563   8.367  69.965  1.00  0.00    -0.168 C  
HETATM   13  C   UNL     1     -10.637  10.310  68.988  1.00  0.00    -0.224 C  
ENDROOT
BRANCH   6  14
HETATM   14  C   UNL     1      -8.452   8.656  64.482  1.00  0.00    -0.110 C  
BRANCH  14  15
HETATM   15  C   UNL     1      -7.057   9.175  64.118  1.00  0.00    -0.095 C  
HETATM   16  H   UNL     1      -6.248  10.530  62.905  1.00  0.00     0.000 HD 
HETATM   17  O   UNL     1      -7.113  10.208  63.131  1.00  0.00    -0.130 OA 
BRANCH  15  18
HETATM   18  C   UNL     1      -6.348   9.713  65.371  1.00  0.00    -0.076 C  
HETATM   19  O   UNL     1      -6.563  11.111  65.553  1.00  0.00    -0.369 OA 
HETATM   20  H   UNL     1      -6.125  11.443  66.328  1.00  0.00     0.000 HD 
ENDBRANCH  15  18
ENDBRANCH  14  15
ENDBRANCH   6  14
TORSDOF 3
ENDMDL
MODEL      157
REMARK 921   NORMALIZED FREE ENERGY PREDICTED BY IDOCK:   -3.05 KCAL/MOL
REMARK 922        TOTAL FREE ENERGY PREDICTED BY IDOCK:   -4.06 KCAL/MOL
REMARK 923 INTER-LIGAND FREE ENERGY PREDICTED BY IDOCK:   -3.99 KCAL/MOL
REMARK 924 INTRA-LIGAND FREE ENERGY PREDICTED BY IDOCK:   -0.07 KCAL/MOL
REMARK 927      BINDING AFFINITY PREDICTED BY RF-SCORE:    0.00 PKD
ROOT
HETATM    1  C   UNL     1      -7.526   9.938  70.033  1.00  0.00    -0.168 C  
HETATM    2  N   UNL     1      -8.575   8.938  69.985  1.00  0.00    -0.132 N  
HETATM    3  C   UNL     1      -8.988   8.381  68.798  1.00  0.00    -0.140 A  
HETATM    4  C   UNL     1      -9.962   7.425  68.758  1.00  0.00    -0.169 A  
HETATM    5  C   UNL     1     -10.615   6.931  69.922  1.00  0.00    -0.228 C  
HETATM    6  N   UNL     1     -10.092   7.109  67.434  1.00  0.00    -0.182 NA 
HETATM    7  O   UNL     1     -11.475   6.053  69.878  1.00  0.00    -0.388 OA 
HETATM    8  N   UNL     1     -10.176   7.548  71.096  1.00  0.00    -0.193 N  
HETATM    9  O   UNL     1      -8.826   9.010  72.264  1.00  0.00    -0.363 OA 
HETATM   10  C   UNL     1      -9.208   7.899  66.744  1.00  0.00    -0.166 A  
HETATM   11  N   UNL     1      -8.521   8.679  67.555  1.00  0.00    -0.123 NA 
HETATM   12  C   UNL     1     -10.779   7.148  72.352  1.00  0.00    -0.241 C  
HETATM   13  C   UNL     1      -9.168   8.531  71.178  1.00  0.00    -0.197 C  
ENDROOT
BRANCH   6  14
HETATM   14  C   UNL     1     -11.016   6.162  66.843  1.00  0.00    -0.305 C  
BRANCH  14  15
HETATM   15  C   UNL     1     -10.327   4.894  66.329  1.00  0.00    -0.298 C  
HETATM   16  H   UNL     1      -8.932   4.399  64.999  1.00  0.00     0.000 HD 
HETATM   17  O   UNL     1      -9.359   5.185  65.318  1.00  0.00    -0.135 OA 
BRANCH  15  18
HETATM   18  C   UNL     1      -9.639   4.157  67.489  1.00  0.00    -0.171 C  
HETATM   19  O   UNL     1      -9.607   2.747  67.288  1.00  0.00    -0.395 OA 
HETATM   20  H   UNL     1      -9.181   2.292  68.006  1.00  0.00     0.000 HD 
ENDBRANCH  15  18
ENDBRANCH  14  15
ENDBRANCH   6  14
TORSDOF 3
ENDMDL
MODEL      158
REMARK 921   NORMALIZED FREE ENERGY PREDICTED BY IDOCK:   -3.03 KCAL/MOL
REMARK 922        TOTAL FREE ENERGY PREDICTED BY IDOCK:   -4.03 KCAL/MOL
REMARK 923 INTER-LIGAND FREE ENERGY PREDICTED BY IDOCK:   -3.73 KCAL/MOL
REMARK 924 INTRA-LIGAND FREE ENERGY PREDICTED BY IDOCK:   -0.30 KCAL/MOL
REMARK 927      BINDING AFFINITY PREDICTED BY RF-SCORE:    0.00 PKD
ROOT
HETATM    1  C   UNL     1      -8.856   5.652  70.477  1.00  0.00    -0.138 C  
HETATM    2  N   UNL     1      -9.488   6.870  70.007  1.00  0.00    -0.158 N  
HETATM    3  C   UNL     1      -9.410   7.263  68.692  1.00  0.00    -0.138 A  
HETATM    4  C   UNL     1     -10.023   8.399  68.249  1.00  0.00    -0.187 A  
HETATM    5  C   UNL     1     -10.785   9.253  69.095  1.00  0.00    -0.183 C  
HETATM    6  N   UNL     1      -9.738   8.455  66.912  1.00  0.00    -0.205 NA 
HETATM    7  O   UNL     1     -11.353  10.262  68.681  1.00  0.00    -0.234 OA 
HETATM    8  N   UNL     1     -10.810   8.821  70.423  1.00  0.00    -0.224 N  
HETATM    9  O   UNL     1     -10.289   7.332  72.107  1.00  0.00    -0.189 OA 
HETATM   10  C   UNL     1      -8.958   7.364  66.622  1.00  0.00    -0.146 A  
HETATM   11  N   UNL     1      -8.748   6.621  67.691  1.00  0.00    -0.119 NA 
HETATM   12  C   UNL     1     -11.537   9.616  71.393  1.00  0.00    -0.400 C  
HETATM   13  C   UNL     1     -10.198   7.650  70.916  1.00  0.00    -0.199 C  
ENDROOT
BRANCH   6  14
HETATM   14  C   UNL     1     -10.132   9.484  65.972  1.00  0.00    -0.249 C  
BRANCH  14  15
HETATM   15  C   UNL     1      -8.972  10.396  65.559  1.00  0.00    -0.176 C  
HETATM   16  H   UNL     1      -8.586  11.770  64.172  1.00  0.00     0.000 HD 
HETATM   17  O   UNL     1      -9.305  11.205  64.428  1.00  0.00    -0.208 OA 
BRANCH  15  18
HETATM   18  C   UNL     1      -8.572  11.307  66.730  1.00  0.00    -0.159 C  
HETATM   19  O   UNL     1      -8.543  12.683  66.357  1.00  0.00    -0.417 OA 
HETATM   20  H   UNL     1      -8.296  13.246  67.081  1.00  0.00     0.000 HD 
ENDBRANCH  15  18
ENDBRANCH  14  15
ENDBRANCH   6  14
TORSDOF 3
ENDMDL
MODEL      159
REMARK 921   NORMALIZED FREE ENERGY PREDICTED BY IDOCK:   -2.97 KCAL/MOL
REMARK 922        TOTAL FREE ENERGY PREDICTED BY IDOCK:   -3.96 KCAL/MOL
REMARK 923 INTER-LIGAND FREE ENERGY PREDICTED BY IDOCK:   -4.00 KCAL/MOL
REMARK 924 INTRA-LIGAND FREE ENERGY PREDICTED BY IDOCK:    0.03 KCAL/MOL
REMARK 927      BINDING AFFINITY PREDICTED BY RF-SCORE:    0.00 PKD
ROOT
HETATM    1  C   UNL     1      -9.782   2.717  72.949  1.00  0.00    -0.113 C  
HETATM    2  N   UNL     1      -9.988   3.799  72.006  1.00  0.00    -0.175 N  
HETATM    3  C   UNL     1      -9.371   3.814  70.778  1.00  0.00    -0.148 A  
HETATM    4  C   UNL     1      -9.582   4.824  69.885  1.00  0.00    -0.181 A  
HETATM    5  C   UNL     1     -10.449   5.924  70.144  1.00  0.00    -0.262 C  
HETATM    6  N   UNL     1      -8.825   4.495  68.794  1.00  0.00    -0.097 NA 
HETATM    7  O   UNL     1     -10.650   6.817  69.323  1.00  0.00    -0.205 OA 
HETATM    8  N   UNL     1     -11.028   5.872  71.414  1.00  0.00    -0.272 N  
HETATM    9  O   UNL     1     -11.412   4.866  73.455  1.00  0.00    -0.336 OA 
HETATM   10  C   UNL     1      -8.185   3.319  69.091  1.00  0.00    -0.059 A  
HETATM   11  N   UNL     1      -8.505   2.883  70.293  1.00  0.00    -0.051 NA 
HETATM   12  C   UNL     1     -11.917   6.946  71.810  1.00  0.00    -0.333 C  
HETATM   13  C   UNL     1     -10.841   4.842  72.359  1.00  0.00    -0.137 C  
ENDROOT
BRANCH   6  14
HETATM   14  C   UNL     1      -8.672   5.254  67.570  1.00  0.00    -0.106 C  
BRANCH  14  15
HETATM   15  C   UNL     1      -9.422   4.637  66.384  1.00  0.00    -0.166 C  
HETATM   16  H   UNL     1     -10.051   2.841  65.800  1.00  0.00     0.000 HD 
HETATM   17  O   UNL     1      -9.586   3.224  66.534  1.00  0.00    -0.134 OA 
BRANCH  15  18
HETATM   18  C   UNL     1     -10.804   5.291  66.233  1.00  0.00    -0.112 C  
HETATM   19  O   UNL     1     -11.563   4.708  65.177  1.00  0.00    -1.107 OA 
HETATM   20  H   UNL     1     -12.418   5.113  65.084  1.00  0.00     0.000 HD 
ENDBRANCH  15  18
ENDBRANCH  14  15
ENDBRANCH   6  14
TORSDOF 3
ENDMDL
MODEL      160
REMARK 921   NORMALIZED FREE ENERGY PREDICTED BY IDOCK:   -2.97 KCAL/MOL
REMARK 922        TOTAL FREE ENERGY PREDICTED BY IDOCK:   -3.96 KCAL/MOL
REMARK 923 INTER-LIGAND FREE ENERGY PREDICTED BY IDOCK:   -3.70 KCAL/MOL
REMARK 924 INTRA-LIGAND FREE ENERGY PREDICTED BY IDOCK:   -0.26 KCAL/MOL
REMARK 927      BINDING AFFINITY PREDICTED BY RF-SCORE:    0.00 PKD
ROOT
HETATM    1  C   UNL     1      -9.909   4.604  69.237  1.00  0.00    -0.190 C  
HETATM    2  N   UNL     1      -9.487   5.899  69.735  1.00  0.00    -0.146 N  
HETATM    3  C   UNL     1      -9.873   7.069  69.123  1.00  0.00    -0.158 A  
HETATM    4  C   UNL     1      -9.491   8.286  69.605  1.00  0.00    -0.163 A  
HETATM    5  C   UNL     1      -8.680   8.445  70.765  1.00  0.00    -0.150 C  
HETATM    6  N   UNL     1     -10.064   9.197  68.760  1.00  0.00    -0.191 NA 
HETATM    7  O   UNL     1      -8.360   9.548  71.205  1.00  0.00    -0.285 OA 
HETATM    8  N   UNL     1      -8.296   7.227  71.330  1.00  0.00    -0.110 N  
HETATM    9  O   UNL     1      -8.308   4.922  71.443  1.00  0.00    -0.111 OA 
HETATM   10  C   UNL     1     -10.745   8.484  67.806  1.00  0.00    -0.101 A  
HETATM   11  N   UNL     1     -10.646   7.186  68.009  1.00  0.00    -0.204 NA 
HETATM   12  C   UNL     1      -7.450   7.249  72.507  1.00  0.00    -0.083 C  
HETATM   13  C   UNL     1      -8.678   5.951  70.866  1.00  0.00    -0.131 C  
ENDROOT
BRANCH   6  14
HETATM   14  C   UNL     1      -9.947  10.640  68.813  1.00  0.00    -0.193 C  
BRANCH  14  15
HETATM   15  C   UNL     1     -11.304  11.352  68.806  1.00  0.00    -0.271 C  
HETATM   16  H   UNL     1     -12.863  11.560  67.586  1.00  0.00     0.000 HD 
HETATM   17  O   UNL     1     -12.022  11.118  67.591  1.00  0.00    -0.613 OA 
BRANCH  15  18
HETATM   18  C   UNL     1     -12.157  10.881  69.994  1.00  0.00    -0.355 C  
HETATM   19  O   UNL     1     -11.383  10.714  71.179  1.00  0.00    -0.246 OA 
HETATM   20  H   UNL     1     -11.910  10.423  71.914  1.00  0.00     0.000 HD 
ENDBRANCH  15  18
ENDBRANCH  14  15
ENDBRANCH   6  14
TORSDOF 3
ENDMDL
MODEL      161
REMARK 921   NORMALIZED FREE ENERGY PREDICTED BY IDOCK:   -2.96 KCAL/MOL
REMARK 922        TOTAL FREE ENERGY PREDICTED BY IDOCK:   -3.95 KCAL/MOL
REMARK 923 INTER-LIGAND FREE ENERGY PREDICTED BY IDOCK:   -3.64 KCAL/MOL
REMARK 924 INTRA-LIGAND FREE ENERGY PREDICTED BY IDOCK:   -0.32 KCAL/MOL
REMARK 927      BINDING AFFINITY PREDICTED BY RF-SCORE:    0.00 PKD
ROOT
HETATM    1  C   UNL     1     -10.873  11.288  68.128  1.00  0.00    -0.217 C  
HETATM    2  N   UNL     1     -10.939  10.001  68.793  1.00  0.00    -0.220 N  
HETATM    3  C   UNL     1     -10.574   8.839  68.156  1.00  0.00    -0.147 A  
HETATM    4  C   UNL     1     -10.619   7.632  68.791  1.00  0.00    -0.145 A  
HETATM    5  C   UNL     1     -11.035   7.479  70.143  1.00  0.00    -0.254 C  
HETATM    6  N   UNL     1     -10.181   6.728  67.862  1.00  0.00    -0.159 NA 
HETATM    7  O   UNL     1     -11.050   6.389  70.714  1.00  0.00    -0.269 OA 
HETATM    8  N   UNL     1     -11.419   8.685  70.734  1.00  0.00    -0.271 N  
HETATM    9  O   UNL     1     -11.717  10.974  70.720  1.00  0.00    -0.313 OA 
HETATM   10  C   UNL     1      -9.912   7.431  66.715  1.00  0.00    -0.230 A  
HETATM   11  N   UNL     1     -10.140   8.719  66.871  1.00  0.00    -0.252 NA 
HETATM   12  C   UNL     1     -11.884   8.664  72.107  1.00  0.00    -0.377 C  
HETATM   13  C   UNL     1     -11.378   9.951  70.114  1.00  0.00    -0.275 C  
ENDROOT
BRANCH   6  14
HETATM   14  C   UNL     1     -10.062   5.293  68.020  1.00  0.00    -0.152 C  
BRANCH  14  15
HETATM   15  C   UNL     1      -8.672   4.854  68.491  1.00  0.00    -0.097 C  
HETATM   16  H   UNL     1      -7.878   3.743  69.940  1.00  0.00     0.000 HD 
HETATM   17  O   UNL     1      -8.740   4.015  69.647  1.00  0.00    -0.073 OA 
BRANCH  15  18
HETATM   18  C   UNL     1      -7.944   4.102  67.365  1.00  0.00    -0.092 C  
HETATM   19  O   UNL     1      -8.609   2.893  67.008  1.00  0.00    -0.093 OA 
HETATM   20  H   UNL     1      -8.160   2.428  66.312  1.00  0.00     0.000 HD 
ENDBRANCH  15  18
ENDBRANCH  14  15
ENDBRANCH   6  14
TORSDOF 3
ENDMDL
MODEL      162
REMARK 921   NORMALIZED FREE ENERGY PREDICTED BY IDOCK:   -2.95 KCAL/MOL
REMARK 922        TOTAL FREE ENERGY PREDICTED BY IDOCK:   -3.94 KCAL/MOL
REMARK 923 INTER-LIGAND FREE ENERGY PREDICTED BY IDOCK:   -3.29 KCAL/MOL
REMARK 924 INTRA-LIGAND FREE ENERGY PREDICTED BY IDOCK:   -0.65 KCAL/MOL
REMARK 927      BINDING AFFINITY PREDICTED BY RF-SCORE:    0.00 PKD
ROOT
HETATM    1  C   UNL     1      -6.992   9.633  69.376  1.00  0.00    -0.056 C  
HETATM    2  N   UNL     1      -8.195  10.417  69.175  1.00  0.00    -0.146 N  
HETATM    3  C   UNL     1      -8.218  11.500  68.328  1.00  0.00    -0.152 A  
HETATM    4  C   UNL     1      -9.357  12.225  68.127  1.00  0.00    -0.205 A  
HETATM    5  C   UNL     1     -10.596  11.921  68.759  1.00  0.00    -0.206 C  
HETATM    6  N   UNL     1      -9.003  13.196  67.231  1.00  0.00    -0.207 NA 
HETATM    7  O   UNL     1     -11.622  12.566  68.552  1.00  0.00    -0.276 OA 
HETATM    8  N   UNL     1     -10.509  10.829  69.626  1.00  0.00    -0.188 N  
HETATM    9  O   UNL     1      -9.373   9.086  70.624  1.00  0.00    -0.193 OA 
HETATM   10  C   UNL     1      -7.671  13.020  66.954  1.00  0.00     0.213 A  
HETATM   11  N   UNL     1      -7.172  11.990  67.608  1.00  0.00    -0.107 NA 
HETATM   12  C   UNL     1     -11.700  10.428  70.350  1.00  0.00    -0.331 C  
HETATM   13  C   UNL     1      -9.355  10.052  69.854  1.00  0.00    -0.169 C  
ENDROOT
BRANCH   6  14
HETATM   14  C   UNL     1      -9.843  14.251  66.701  1.00  0.00    -0.281 C  
BRANCH  14  15
HETATM   15  C   UNL     1      -9.444  15.644  67.199  1.00  0.00    -0.217 C  
HETATM   16  H   UNL     1      -9.261  17.485  66.466  1.00  0.00     0.000 HD 
HETATM   17  O   UNL     1      -9.509  16.622  66.157  1.00  0.00    -0.284 OA 
BRANCH  15  18
HETATM   18  C   UNL     1     -10.360  16.077  68.354  1.00  0.00    -0.251 C  
HETATM   19  O   UNL     1     -10.321  15.160  69.445  1.00  0.00    -0.236 OA 
HETATM   20  H   UNL     1     -10.887  15.428  70.160  1.00  0.00     0.000 HD 
ENDBRANCH  15  18
ENDBRANCH  14  15
ENDBRANCH   6  14
TORSDOF 3
ENDMDL
MODEL      163
REMARK 921   NORMALIZED FREE ENERGY PREDICTED BY IDOCK:   -2.90 KCAL/MOL
REMARK 922        TOTAL FREE ENERGY PREDICTED BY IDOCK:   -3.88 KCAL/MOL
REMARK 923 INTER-LIGAND FREE ENERGY PREDICTED BY IDOCK:   -3.31 KCAL/MOL
REMARK 924 INTRA-LIGAND FREE ENERGY PREDICTED BY IDOCK:   -0.57 KCAL/MOL
REMARK 927      BINDING AFFINITY PREDICTED BY RF-SCORE:    0.00 PKD
ROOT
HETATM    1  C   UNL     1      -5.687  12.264  67.413  1.00  0.00    -0.139 C  
HETATM    2  N   UNL     1      -7.063  11.952  67.749  1.00  0.00    -0.094 N  
HETATM    3  C   UNL     1      -7.441  10.692  68.148  1.00  0.00    -0.090 A  
HETATM    4  C   UNL     1      -8.733  10.407  68.483  1.00  0.00    -0.135 A  
HETATM    5  C   UNL     1      -9.777  11.375  68.454  1.00  0.00    -0.203 C  
HETATM    6  N   UNL     1      -8.724   9.084  68.831  1.00  0.00    -0.134 NA 
HETATM    7  O   UNL     1     -10.933  11.114  68.781  1.00  0.00    -0.187 OA 
HETATM    8  N   UNL     1      -9.343  12.629  68.019  1.00  0.00    -0.204 N  
HETATM    9  O   UNL     1      -7.716  14.108  67.316  1.00  0.00    -0.181 OA 
HETATM   10  C   UNL     1      -7.437   8.637  68.672  1.00  0.00    -0.096 A  
HETATM   11  N   UNL     1      -6.637   9.600  68.260  1.00  0.00    -0.057 NA 
HETATM   12  C   UNL     1     -10.315  13.701  67.924  1.00  0.00    -0.249 C  
HETATM   13  C   UNL     1      -8.017  12.964  67.673  1.00  0.00    -0.167 C  
ENDROOT
BRANCH   6  14
HETATM   14  C   UNL     1      -9.853   8.276  69.244  1.00  0.00    -0.186 C  
BRANCH  14  15
HETATM   15  C   UNL     1     -10.089   7.066  68.335  1.00  0.00    -0.164 C  
HETATM   16  H   UNL     1     -11.152   5.383  68.351  1.00  0.00     0.000 HD 
HETATM   17  O   UNL     1     -11.006   6.134  68.915  1.00  0.00    -0.310 OA 
BRANCH  15  18
HETATM   18  C   UNL     1     -10.632   7.525  66.972  1.00  0.00    -0.339 C  
HETATM   19  O   UNL     1      -9.600   8.004  66.114  1.00  0.00    -0.372 OA 
HETATM   20  H   UNL     1      -9.936   8.287  65.272  1.00  0.00     0.000 HD 
ENDBRANCH  15  18
ENDBRANCH  14  15
ENDBRANCH   6  14
TORSDOF 3
ENDMDL
MODEL      164
REMARK 921   NORMALIZED FREE ENERGY PREDICTED BY IDOCK:   -2.87 KCAL/MOL
REMARK 922        TOTAL FREE ENERGY PREDICTED BY IDOCK:   -3.85 KCAL/MOL
REMARK 923 INTER-LIGAND FREE ENERGY PREDICTED BY IDOCK:   -3.64 KCAL/MOL
REMARK 924 INTRA-LIGAND FREE ENERGY PREDICTED BY IDOCK:   -0.21 KCAL/MOL
REMARK 927      BINDING AFFINITY PREDICTED BY RF-SCORE:    0.00 PKD
ROOT
HETATM    1  C   UNL     1      -5.481  18.068  66.012  1.00  0.00    -0.198 C  
HETATM    2  N   UNL     1      -6.649  17.315  66.423  1.00  0.00    -0.240 N  
HETATM    3  C   UNL     1      -6.541  16.074  67.006  1.00  0.00    -0.053 A  
HETATM    4  C   UNL     1      -7.641  15.376  67.410  1.00  0.00    -0.203 A  
HETATM    5  C   UNL     1      -8.970  15.868  67.271  1.00  0.00    -0.195 C  
HETATM    6  N   UNL     1      -7.148  14.216  67.942  1.00  0.00    -0.142 NA 
HETATM    7  O   UNL     1      -9.954  15.242  67.660  1.00  0.00    -0.221 OA 
HETATM    8  N   UNL     1      -9.024  17.119  66.650  1.00  0.00    -0.241 N  
HETATM    9  O   UNL     1      -8.049  18.985  65.705  1.00  0.00    -0.459 OA 
HETATM   10  C   UNL     1      -5.783  14.266  67.816  1.00  0.00    -0.057 A  
HETATM   11  N   UNL     1      -5.390  15.391  67.252  1.00  0.00    -0.315 NA 
HETATM   12  C   UNL     1     -10.323  17.723  66.429  1.00  0.00    -0.351 C  
HETATM   13  C   UNL     1      -7.910  17.873  66.228  1.00  0.00    -0.261 C  
ENDROOT
BRANCH   6  14
HETATM   14  C   UNL     1      -7.906  13.111  68.494  1.00  0.00    -0.105 C  
BRANCH  14  15
HETATM   15  C   UNL     1      -8.252  12.043  67.451  1.00  0.00    -0.168 C  
HETATM   16  H   UNL     1      -7.311  10.652  66.383  1.00  0.00     0.000 HD 
HETATM   17  O   UNL     1      -7.096  11.314  67.030  1.00  0.00    -0.112 OA 
BRANCH  15  18
HETATM   18  C   UNL     1      -9.287  11.061  68.023  1.00  0.00    -0.163 C  
HETATM   19  O   UNL     1      -9.494   9.939  67.169  1.00  0.00    -0.153 OA 
HETATM   20  H   UNL     1     -10.133   9.332  67.523  1.00  0.00     0.000 HD 
ENDBRANCH  15  18
ENDBRANCH  14  15
ENDBRANCH   6  14
TORSDOF 3
ENDMDL
MODEL      165
REMARK 921   NORMALIZED FREE ENERGY PREDICTED BY IDOCK:   -2.85 KCAL/MOL
REMARK 922        TOTAL FREE ENERGY PREDICTED BY IDOCK:   -3.83 KCAL/MOL
REMARK 923 INTER-LIGAND FREE ENERGY PREDICTED BY IDOCK:   -3.77 KCAL/MOL
REMARK 924 INTRA-LIGAND FREE ENERGY PREDICTED BY IDOCK:   -0.05 KCAL/MOL
REMARK 927      BINDING AFFINITY PREDICTED BY RF-SCORE:    0.00 PKD
ROOT
HETATM    1  C   UNL     1     -11.072   7.730  72.897  1.00  0.00    -0.398 C  
HETATM    2  N   UNL     1     -10.556   7.340  71.599  1.00  0.00    -0.206 N  
HETATM    3  C   UNL     1     -10.160   8.272  70.669  1.00  0.00    -0.191 A  
HETATM    4  C   UNL     1      -9.656   7.901  69.457  1.00  0.00    -0.160 A  
HETATM    5  C   UNL     1      -9.496   6.542  69.062  1.00  0.00    -0.130 C  
HETATM    6  N   UNL     1      -9.368   9.077  68.820  1.00  0.00    -0.140 NA 
HETATM    7  O   UNL     1      -9.019   6.219  67.976  1.00  0.00    -0.116 OA 
HETATM    8  N   UNL     1      -9.937   5.639  70.033  1.00  0.00    -0.188 N  
HETATM    9  O   UNL     1     -10.802   5.116  72.107  1.00  0.00    -0.212 OA 
HETATM   10  C   UNL     1      -9.727  10.092  69.670  1.00  0.00    -0.229 A  
HETATM   11  N   UNL     1     -10.208   9.625  70.805  1.00  0.00    -0.290 NA 
HETATM   12  C   UNL     1      -9.847   4.221  69.746  1.00  0.00    -0.187 C  
HETATM   13  C   UNL     1     -10.454   5.984  71.298  1.00  0.00    -0.230 C  
ENDROOT
BRANCH   6  14
HETATM   14  C   UNL     1      -8.832   9.244  67.484  1.00  0.00    -0.118 C  
BRANCH  14  15
HETATM   15  C   UNL     1      -9.920   9.390  66.415  1.00  0.00    -0.276 C  
HETATM   16  H   UNL     1     -11.805  10.017  66.293  1.00  0.00     0.000 HD 
HETATM   17  O   UNL     1     -11.130   9.927  66.956  1.00  0.00    -0.122 OA 
BRANCH  15  18
HETATM   18  C   UNL     1      -9.428  10.299  65.279  1.00  0.00    -0.240 C  
HETATM   19  O   UNL     1     -10.505  10.926  64.586  1.00  0.00    -0.337 OA 
HETATM   20  H   UNL     1     -10.200  11.489  63.884  1.00  0.00     0.000 HD 
ENDBRANCH  15  18
ENDBRANCH  14  15
ENDBRANCH   6  14
TORSDOF 3
ENDMDL
MODEL      166
REMARK 921   NORMALIZED FREE ENERGY PREDICTED BY IDOCK:   -2.83 KCAL/MOL
REMARK 922        TOTAL FREE ENERGY PREDICTED BY IDOCK:   -3.80 KCAL/MOL
REMARK 923 INTER-LIGAND FREE ENERGY PREDICTED BY IDOCK:   -3.36 KCAL/MOL
REMARK 924 INTRA-LIGAND FREE ENERGY PREDICTED BY IDOCK:   -0.44 KCAL/MOL
REMARK 927      BINDING AFFINITY PREDICTED BY RF-SCORE:    0.00 PKD
ROOT
HETATM    1  C   UNL     1      -7.160   7.525  66.448  1.00  0.00    -0.071 C  
HETATM    2  N   UNL     1      -8.170   7.002  67.347  1.00  0.00    -0.118 N  
HETATM    3  C   UNL     1      -9.006   7.832  68.055  1.00  0.00    -0.126 A  
HETATM    4  C   UNL     1      -9.969   7.337  68.885  1.00  0.00    -0.166 A  
HETATM    5  C   UNL     1     -10.188   5.943  69.079  1.00  0.00    -0.203 C  
HETATM    6  N   UNL     1     -10.597   8.440  69.397  1.00  0.00    -0.219 NA 
HETATM    7  O   UNL     1     -11.074   5.507  69.811  1.00  0.00    -0.256 OA 
HETATM    8  N   UNL     1      -9.296   5.147  68.357  1.00  0.00    -0.117 N  
HETATM    9  O   UNL     1      -7.561   4.844  66.866  1.00  0.00    -0.086 OA 
HETATM   10  C   UNL     1      -9.971   9.539  68.865  1.00  0.00    -0.179 A  
HETATM   11  N   UNL     1      -9.002   9.194  68.042  1.00  0.00    -0.129 NA 
HETATM   12  C   UNL     1      -9.400   3.707  68.483  1.00  0.00    -0.164 C  
HETATM   13  C   UNL     1      -8.296   5.622  67.484  1.00  0.00    -0.100 C  
ENDROOT
BRANCH   6  14
HETATM   14  C   UNL     1     -11.682   8.467  70.356  1.00  0.00     0.001 C  
BRANCH  14  15
HETATM   15  C   UNL     1     -11.303   9.155  71.671  1.00  0.00    -0.376 C  
HETATM   16  H   UNL     1     -12.205  10.157  73.135  1.00  0.00     0.000 HD 
HETATM   17  O   UNL     1     -12.440   9.731  72.319  1.00  0.00    -0.287 OA 
BRANCH  15  18
HETATM   18  C   UNL     1     -10.638   8.147  72.623  1.00  0.00    -0.344 C  
HETATM   19  O   UNL     1     -11.415   6.963  72.783  1.00  0.00    -0.422 OA 
HETATM   20  H   UNL     1     -11.004   6.341  73.371  1.00  0.00     0.000 HD 
ENDBRANCH  15  18
ENDBRANCH  14  15
ENDBRANCH   6  14
TORSDOF 3
ENDMDL
MODEL      167
REMARK 921   NORMALIZED FREE ENERGY PREDICTED BY IDOCK:   -2.83 KCAL/MOL
REMARK 922        TOTAL FREE ENERGY PREDICTED BY IDOCK:   -3.80 KCAL/MOL
REMARK 923 INTER-LIGAND FREE ENERGY PREDICTED BY IDOCK:   -3.55 KCAL/MOL
REMARK 924 INTRA-LIGAND FREE ENERGY PREDICTED BY IDOCK:   -0.25 KCAL/MOL
REMARK 927      BINDING AFFINITY PREDICTED BY RF-SCORE:    0.00 PKD
ROOT
HETATM    1  C   UNL     1      -7.847   5.822  65.032  1.00  0.00    -0.107 C  
HETATM    2  N   UNL     1      -8.276   7.199  64.886  1.00  0.00    -0.109 N  
HETATM    3  C   UNL     1      -9.030   7.827  65.849  1.00  0.00    -0.113 A  
HETATM    4  C   UNL     1      -9.415   9.129  65.717  1.00  0.00    -0.254 A  
HETATM    5  C   UNL     1      -9.069   9.934  64.595  1.00  0.00    -0.242 C  
HETATM    6  N   UNL     1     -10.127   9.404  66.853  1.00  0.00    -0.228 NA 
HETATM    7  O   UNL     1      -9.401  11.114  64.497  1.00  0.00    -0.212 OA 
HETATM    8  N   UNL     1      -8.325   9.240  63.637  1.00  0.00    -0.174 N  
HETATM    9  O   UNL     1      -7.226   7.369  62.853  1.00  0.00    -0.073 OA 
HETATM   10  C   UNL     1     -10.149   8.253  67.599  1.00  0.00    -0.209 A  
HETATM   11  N   UNL     1      -9.484   7.280  67.009  1.00  0.00    -0.148 NA 
HETATM   12  C   UNL     1      -7.926   9.942  62.433  1.00  0.00    -0.119 C  
HETATM   13  C   UNL     1      -7.902   7.899  63.742  1.00  0.00    -0.141 C  
ENDROOT
BRANCH   6  14
HETATM   14  C   UNL     1     -10.783  10.648  67.199  1.00  0.00    -0.272 C  
BRANCH  14  15
HETATM   15  C   UNL     1     -10.234  11.278  68.484  1.00  0.00    -0.205 C  
HETATM   16  H   UNL     1      -8.812  12.566  69.015  1.00  0.00     0.000 HD 
HETATM   17  O   UNL     1      -9.153  12.175  68.218  1.00  0.00    -0.193 OA 
BRANCH  15  18
HETATM   18  C   UNL     1     -11.350  12.036  69.220  1.00  0.00    -0.268 C  
HETATM   19  O   UNL     1     -11.620  11.483  70.506  1.00  0.00    -0.479 OA 
HETATM   20  H   UNL     1     -12.309  11.952  70.961  1.00  0.00     0.000 HD 
ENDBRANCH  15  18
ENDBRANCH  14  15
ENDBRANCH   6  14
TORSDOF 3
ENDMDL
MODEL      168
REMARK 921   NORMALIZED FREE ENERGY PREDICTED BY IDOCK:   -2.80 KCAL/MOL
REMARK 922        TOTAL FREE ENERGY PREDICTED BY IDOCK:   -3.77 KCAL/MOL
REMARK 923 INTER-LIGAND FREE ENERGY PREDICTED BY IDOCK:   -3.19 KCAL/MOL
REMARK 924 INTRA-LIGAND FREE ENERGY PREDICTED BY IDOCK:   -0.58 KCAL/MOL
REMARK 927      BINDING AFFINITY PREDICTED BY RF-SCORE:    0.00 PKD
ROOT
HETATM    1  C   UNL     1      -6.295  11.136  66.885  1.00  0.00    -0.114 C  
HETATM    2  N   UNL     1      -7.455  10.266  66.883  1.00  0.00    -0.099 N  
HETATM    3  C   UNL     1      -7.331   8.898  66.837  1.00  0.00    -0.083 A  
HETATM    4  C   UNL     1      -8.424   8.081  66.856  1.00  0.00    -0.124 A  
HETATM    5  C   UNL     1      -9.759   8.569  66.929  1.00  0.00    -0.221 C  
HETATM    6  N   UNL     1      -7.916   6.811  66.809  1.00  0.00    -0.107 NA 
HETATM    7  O   UNL     1     -10.736   7.823  66.969  1.00  0.00    -0.347 OA 
HETATM    8  N   UNL     1      -9.828   9.964  66.948  1.00  0.00    -0.189 N  
HETATM    9  O   UNL     1      -8.875  12.065  66.979  1.00  0.00    -0.183 OA 
HETATM   10  C   UNL     1      -6.551   6.927  66.748  1.00  0.00    -0.048 A  
HETATM   11  N   UNL     1      -6.171   8.189  66.767  1.00  0.00    -0.053 NA 
HETATM   12  C   UNL     1     -11.135  10.589  67.001  1.00  0.00    -0.110 C  
HETATM   13  C   UNL     1      -8.722  10.839  66.939  1.00  0.00    -0.141 C  
ENDROOT
BRANCH   6  14
HETATM   14  C   UNL     1      -8.660   5.568  66.779  1.00  0.00    -0.110 C  
BRANCH  14  15
HETATM   15  C   UNL     1      -8.855   5.020  65.362  1.00  0.00    -0.152 C  
HETATM   16  H   UNL     1      -7.987   3.704  64.148  1.00  0.00     0.000 HD 
HETATM   17  O   UNL     1      -7.866   4.044  65.027  1.00  0.00    -0.087 OA 
BRANCH  15  18
HETATM   18  C   UNL     1     -10.251   4.392  65.224  1.00  0.00    -0.210 C  
HETATM   19  O   UNL     1     -11.269   5.211  65.793  1.00  0.00    -0.808 OA 
HETATM   20  H   UNL     1     -12.132   4.823  65.708  1.00  0.00     0.000 HD 
ENDBRANCH  15  18
ENDBRANCH  14  15
ENDBRANCH   6  14
TORSDOF 3
ENDMDL
MODEL      169
REMARK 921   NORMALIZED FREE ENERGY PREDICTED BY IDOCK:   -2.80 KCAL/MOL
REMARK 922        TOTAL FREE ENERGY PREDICTED BY IDOCK:   -3.76 KCAL/MOL
REMARK 923 INTER-LIGAND FREE ENERGY PREDICTED BY IDOCK:   -3.61 KCAL/MOL
REMARK 924 INTRA-LIGAND FREE ENERGY PREDICTED BY IDOCK:   -0.15 KCAL/MOL
REMARK 927      BINDING AFFINITY PREDICTED BY RF-SCORE:    0.00 PKD
ROOT
HETATM    1  C   UNL     1      -6.581  10.680  69.736  1.00  0.00    -0.121 C  
HETATM    2  N   UNL     1      -7.922  10.171  69.951  1.00  0.00    -0.164 N  
HETATM    3  C   UNL     1      -8.227   9.372  71.027  1.00  0.00     0.041 A  
HETATM    4  C   UNL     1      -9.494   8.911  71.238  1.00  0.00    -0.272 A  
HETATM    5  C   UNL     1     -10.587   9.219  70.379  1.00  0.00    -0.248 C  
HETATM    6  N   UNL     1      -9.415   8.174  72.387  1.00  0.00    -0.223 NA 
HETATM    7  O   UNL     1     -11.730   8.818  70.591  1.00  0.00    -0.260 OA 
HETATM    8  N   UNL     1     -10.216  10.011  69.290  1.00  0.00    -0.200 N  
HETATM    9  O   UNL     1      -8.686  11.227  68.064  1.00  0.00    -0.133 OA 
HETATM   10  C   UNL     1      -8.107   8.213  72.799  1.00  0.00    -0.165 A  
HETATM   11  N   UNL     1      -7.365   8.940  71.989  1.00  0.00    -0.325 NA 
HETATM   12  C   UNL     1     -11.235  10.380  68.327  1.00  0.00    -0.267 C  
HETATM   13  C   UNL     1      -8.921  10.513  69.045  1.00  0.00    -0.176 C  
ENDROOT
BRANCH   6  14
HETATM   14  C   UNL     1     -10.483   7.441  73.037  1.00  0.00    -0.323 C  
BRANCH  14  15
HETATM   15  C   UNL     1     -10.140   5.968  73.278  1.00  0.00    -0.193 C  
HETATM   16  H   UNL     1      -9.324   4.849  74.708  1.00  0.00     0.000 HD 
HETATM   17  O   UNL     1      -9.537   5.763  74.559  1.00  0.00    -0.155 OA 
BRANCH  15  18
HETATM   18  C   UNL     1     -11.407   5.105  73.173  1.00  0.00    -0.313 C  
HETATM   19  O   UNL     1     -11.105   3.717  73.055  1.00  0.00    -0.116 OA 
HETATM   20  H   UNL     1     -11.889   3.183  72.991  1.00  0.00     0.000 HD 
ENDBRANCH  15  18
ENDBRANCH  14  15
ENDBRANCH   6  14
TORSDOF 3
ENDMDL
MODEL      170
REMARK 921   NORMALIZED FREE ENERGY PREDICTED BY IDOCK:   -2.78 KCAL/MOL
REMARK 922        TOTAL FREE ENERGY PREDICTED BY IDOCK:   -3.74 KCAL/MOL
REMARK 923 INTER-LIGAND FREE ENERGY PREDICTED BY IDOCK:   -3.13 KCAL/MOL
REMARK 924 INTRA-LIGAND FREE ENERGY PREDICTED BY IDOCK:   -0.61 KCAL/MOL
REMARK 927      BINDING AFFINITY PREDICTED BY RF-SCORE:    0.00 PKD
ROOT
HETATM    1  C   UNL     1      -8.124   6.090  64.894  1.00  0.00    -0.133 C  
HETATM    2  N   UNL     1      -7.974   7.482  65.274  1.00  0.00    -0.120 N  
HETATM    3  C   UNL     1      -8.897   8.117  66.070  1.00  0.00    -0.172 A  
HETATM    4  C   UNL     1      -8.743   9.421  66.442  1.00  0.00    -0.135 A  
HETATM    5  C   UNL     1      -7.629  10.216  66.050  1.00  0.00    -0.118 C  
HETATM    6  N   UNL     1      -9.831   9.696  67.224  1.00  0.00    -0.166 NA 
HETATM    7  O   UNL     1      -7.487  11.383  66.410  1.00  0.00    -0.110 OA 
HETATM    8  N   UNL     1      -6.736   9.530  65.222  1.00  0.00    -0.079 N  
HETATM    9  O   UNL     1      -6.007   7.647  64.106  1.00  0.00    -0.047 OA 
HETATM   10  C   UNL     1     -10.591   8.555  67.269  1.00  0.00    -0.245 A  
HETATM   11  N   UNL     1     -10.040   7.578  66.576  1.00  0.00    -0.179 NA 
HETATM   12  C   UNL     1      -5.567  10.235  64.735  1.00  0.00    -0.129 C  
HETATM   13  C   UNL     1      -6.858   8.182  64.824  1.00  0.00    -0.067 C  
ENDROOT
BRANCH   6  14
HETATM   14  C   UNL     1     -10.164  10.957  67.854  1.00  0.00    -0.179 C  
BRANCH  14  15
HETATM   15  C   UNL     1     -11.389  11.634  67.231  1.00  0.00    -0.305 C  
HETATM   16  H   UNL     1     -12.568  13.196  67.598  1.00  0.00     0.000 HD 
HETATM   17  O   UNL     1     -11.808  12.776  67.984  1.00  0.00    -0.345 OA 
BRANCH  15  18
HETATM   18  C   UNL     1     -11.079  12.067  65.789  1.00  0.00    -0.324 C  
HETATM   19  O   UNL     1      -9.948  12.932  65.718  1.00  0.00    -0.274 OA 
HETATM   20  H   UNL     1      -9.757  13.199  64.826  1.00  0.00     0.000 HD 
ENDBRANCH  15  18
ENDBRANCH  14  15
ENDBRANCH   6  14
TORSDOF 3
ENDMDL
MODEL      171
REMARK 921   NORMALIZED FREE ENERGY PREDICTED BY IDOCK:   -2.76 KCAL/MOL
REMARK 922        TOTAL FREE ENERGY PREDICTED BY IDOCK:   -3.72 KCAL/MOL
REMARK 923 INTER-LIGAND FREE ENERGY PREDICTED BY IDOCK:   -3.43 KCAL/MOL
REMARK 924 INTRA-LIGAND FREE ENERGY PREDICTED BY IDOCK:   -0.29 KCAL/MOL
REMARK 927      BINDING AFFINITY PREDICTED BY RF-SCORE:    0.00 PKD
ROOT
HETATM    1  C   UNL     1      -7.592   9.760  65.410  1.00  0.00    -0.121 C  
HETATM    2  N   UNL     1      -8.466   8.881  66.163  1.00  0.00    -0.120 N  
HETATM    3  C   UNL     1      -9.107   9.303  67.303  1.00  0.00    -0.126 A  
HETATM    4  C   UNL     1      -9.944   8.480  67.999  1.00  0.00    -0.183 A  
HETATM    5  C   UNL     1     -10.223   7.141  67.605  1.00  0.00    -0.198 C  
HETATM    6  N   UNL     1     -10.395   9.237  69.045  1.00  0.00    -0.210 NA 
HETATM    7  O   UNL     1     -10.997   6.414  68.226  1.00  0.00    -0.293 OA 
HETATM    8  N   UNL     1      -9.527   6.756  66.457  1.00  0.00    -0.165 N  
HETATM    9  O   UNL     1      -8.101   7.162  64.688  1.00  0.00    -0.130 OA 
HETATM   10  C   UNL     1      -9.796  10.467  68.937  1.00  0.00    -0.200 A  
HETATM   11  N   UNL     1      -9.010  10.532  67.881  1.00  0.00    -0.135 NA 
HETATM   12  C   UNL     1      -9.707   5.405  65.962  1.00  0.00    -0.112 C  
HETATM   13  C   UNL     1      -8.662   7.580  65.708  1.00  0.00    -0.118 C  
ENDROOT
BRANCH   6  14
HETATM   14  C   UNL     1     -11.294   8.826  70.104  1.00  0.00    -0.090 C  
BRANCH  14  15
HETATM   15  C   UNL     1     -10.581   8.089  71.243  1.00  0.00    -0.209 C  
HETATM   16  H   UNL     1      -9.512   8.540  72.860  1.00  0.00     0.000 HD 
HETATM   17  O   UNL     1      -9.954   8.996  72.154  1.00  0.00    -0.280 OA 
BRANCH  15  18
HETATM   18  C   UNL     1     -11.580   7.212  72.014  1.00  0.00    -0.280 C  
HETATM   19  O   UNL     1     -11.056   6.769  73.263  1.00  0.00    -0.458 OA 
HETATM   20  H   UNL     1     -11.674   6.227  73.740  1.00  0.00     0.000 HD 
ENDBRANCH  15  18
ENDBRANCH  14  15
ENDBRANCH   6  14
TORSDOF 3
ENDMDL
MODEL      172
REMARK 921   NORMALIZED FREE ENERGY PREDICTED BY IDOCK:   -2.70 KCAL/MOL
REMARK 922        TOTAL FREE ENERGY PREDICTED BY IDOCK:   -3.65 KCAL/MOL
REMARK 923 INTER-LIGAND FREE ENERGY PREDICTED BY IDOCK:   -3.41 KCAL/MOL
REMARK 924 INTRA-LIGAND FREE ENERGY PREDICTED BY IDOCK:   -0.24 KCAL/MOL
REMARK 927      BINDING AFFINITY PREDICTED BY RF-SCORE:    0.00 PKD
ROOT
HETATM    1  C   UNL     1     -12.078  10.619  70.809  1.00  0.00    -0.374 C  
HETATM    2  N   UNL     1     -10.917   9.831  70.443  1.00  0.00    -0.287 N  
HETATM    3  C   UNL     1     -10.211  10.078  69.290  1.00  0.00    -0.214 A  
HETATM    4  C   UNL     1      -9.107   9.347  68.958  1.00  0.00    -0.142 A  
HETATM    5  C   UNL     1      -8.600   8.292  69.768  1.00  0.00    -0.129 C  
HETATM    6  N   UNL     1      -8.675   9.878  67.774  1.00  0.00    -0.128 NA 
HETATM    7  O   UNL     1      -7.590   7.655  69.472  1.00  0.00    -0.093 OA 
HETATM    8  N   UNL     1      -9.368   8.068  70.913  1.00  0.00    -0.152 N  
HETATM    9  O   UNL     1     -11.117   8.553  72.338  1.00  0.00    -0.361 OA 
HETATM   10  C   UNL     1      -9.547  10.885  67.444  1.00  0.00    -0.163 A  
HETATM   11  N   UNL     1     -10.489  11.028  68.355  1.00  0.00    -0.171 NA 
HETATM   12  C   UNL     1      -8.969   7.004  71.814  1.00  0.00    -0.133 C  
HETATM   13  C   UNL     1     -10.508   8.806  71.293  1.00  0.00    -0.256 C  
ENDROOT
BRANCH   6  14
HETATM   14  C   UNL     1      -7.546   9.444  66.976  1.00  0.00    -0.091 C  
BRANCH  14  15
HETATM   15  C   UNL     1      -7.943   8.497  65.840  1.00  0.00    -0.105 C  
HETATM   16  H   UNL     1      -9.499   7.365  65.327  1.00  0.00     0.000 HD 
HETATM   17  O   UNL     1      -9.252   7.953  66.032  1.00  0.00    -0.172 OA 
BRANCH  15  18
HETATM   18  C   UNL     1      -7.897   9.235  64.493  1.00  0.00    -0.118 C  
HETATM   19  O   UNL     1      -7.189  10.470  64.580  1.00  0.00    -0.322 OA 
HETATM   20  H   UNL     1      -7.160  10.926  63.747  1.00  0.00     0.000 HD 
ENDBRANCH  15  18
ENDBRANCH  14  15
ENDBRANCH   6  14
TORSDOF 3
ENDMDL
MODEL      173
REMARK 921   NORMALIZED FREE ENERGY PREDICTED BY IDOCK:   -2.69 KCAL/MOL
REMARK 922        TOTAL FREE ENERGY PREDICTED BY IDOCK:   -3.63 KCAL/MOL
REMARK 923 INTER-LIGAND FREE ENERGY PREDICTED BY IDOCK:   -3.32 KCAL/MOL
REMARK 924 INTRA-LIGAND FREE ENERGY PREDICTED BY IDOCK:   -0.31 KCAL/MOL
REMARK 927      BINDING AFFINITY PREDICTED BY RF-SCORE:    0.00 PKD
ROOT
HETATM    1  C   UNL     1      -6.158   4.565  66.398  1.00  0.00    -0.031 C  
HETATM    2  N   UNL     1      -7.293   5.449  66.581  1.00  0.00    -0.085 N  
HETATM    3  C   UNL     1      -8.258   5.200  67.528  1.00  0.00    -0.103 A  
HETATM    4  C   UNL     1      -9.314   6.044  67.710  1.00  0.00    -0.106 A  
HETATM    5  C   UNL     1      -9.499   7.235  66.952  1.00  0.00    -0.164 C  
HETATM    6  N   UNL     1     -10.042   5.485  68.725  1.00  0.00    -0.175 NA 
HETATM    7  O   UNL     1     -10.442   8.001  67.140  1.00  0.00    -0.298 OA 
HETATM    8  N   UNL     1      -8.506   7.426  65.989  1.00  0.00    -0.142 N  
HETATM    9  O   UNL     1      -6.550   6.838  64.913  1.00  0.00    -0.041 OA 
HETATM   10  C   UNL     1      -9.399   4.330  69.089  1.00  0.00    -0.161 A  
HETATM   11  N   UNL     1      -8.307   4.137  68.376  1.00  0.00    -0.090 NA 
HETATM   12  C   UNL     1      -8.589   8.594  65.134  1.00  0.00    -0.173 C  
HETATM   13  C   UNL     1      -7.396   6.582  65.777  1.00  0.00    -0.079 C  
ENDROOT
BRANCH   6  14
HETATM   14  C   UNL     1     -11.282   5.976  69.290  1.00  0.00    -0.297 C  
BRANCH  14  15
HETATM   15  C   UNL     1     -11.136   6.446  70.741  1.00  0.00    -0.307 C  
HETATM   16  H   UNL     1      -9.994   7.696  71.788  1.00  0.00     0.000 HD 
HETATM   17  O   UNL     1     -10.085   7.404  70.888  1.00  0.00    -0.189 OA 
BRANCH  15  18
HETATM   18  C   UNL     1     -12.454   7.065  71.233  1.00  0.00    -0.386 C  
HETATM   19  O   UNL     1     -12.638   8.394  70.751  1.00  0.00    -0.498 OA 
HETATM   20  H   UNL     1     -13.453   8.776  71.055  1.00  0.00     0.000 HD 
ENDBRANCH  15  18
ENDBRANCH  14  15
ENDBRANCH   6  14
TORSDOF 3
ENDMDL
MODEL      174
REMARK 921   NORMALIZED FREE ENERGY PREDICTED BY IDOCK:   -2.68 KCAL/MOL
REMARK 922        TOTAL FREE ENERGY PREDICTED BY IDOCK:   -3.63 KCAL/MOL
REMARK 923 INTER-LIGAND FREE ENERGY PREDICTED BY IDOCK:   -3.50 KCAL/MOL
REMARK 924 INTRA-LIGAND FREE ENERGY PREDICTED BY IDOCK:   -0.12 KCAL/MOL
REMARK 927      BINDING AFFINITY PREDICTED BY RF-SCORE:    0.00 PKD
ROOT
HETATM    1  C   UNL     1      -8.949   5.825  70.496  1.00  0.00    -0.143 C  
HETATM    2  N   UNL     1      -9.577   7.127  70.372  1.00  0.00    -0.169 N  
HETATM    3  C   UNL     1      -8.947   8.176  69.746  1.00  0.00    -0.144 A  
HETATM    4  C   UNL     1      -9.549   9.394  69.614  1.00  0.00    -0.188 A  
HETATM    5  C   UNL     1     -10.858   9.672  70.100  1.00  0.00    -0.280 C  
HETATM    6  N   UNL     1      -8.641  10.165  68.942  1.00  0.00    -0.132 NA 
HETATM    7  O   UNL     1     -11.401  10.766  69.955  1.00  0.00    -0.282 OA 
HETATM    8  N   UNL     1     -11.440   8.580  70.749  1.00  0.00    -0.268 N  
HETATM    9  O   UNL     1     -11.451   6.388  71.469  1.00  0.00    -0.283 OA 
HETATM   10  C   UNL     1      -7.537   9.382  68.719  1.00  0.00    -0.079 A  
HETATM   11  N   UNL     1      -7.702   8.165  69.197  1.00  0.00    -0.097 NA 
HETATM   12  C   UNL     1     -12.768   8.739  71.309  1.00  0.00    -0.230 C  
HETATM   13  C   UNL     1     -10.854   7.306  70.897  1.00  0.00    -0.243 C  
ENDROOT
BRANCH   6  14
HETATM   14  C   UNL     1      -8.778  11.559  68.569  1.00  0.00    -0.138 C  
BRANCH  14  15
HETATM   15  C   UNL     1      -8.799  11.775  67.052  1.00  0.00    -0.182 C  
HETATM   16  H   UNL     1      -8.468  10.717  65.399  1.00  0.00     0.000 HD 
HETATM   17  O   UNL     1      -8.455  10.583  66.339  1.00  0.00    -0.134 OA 
BRANCH  15  18
HETATM   18  C   UNL     1     -10.191  12.246  66.604  1.00  0.00    -0.216 C  
HETATM   19  O   UNL     1     -11.201  11.276  66.871  1.00  0.00    -0.298 OA 
HETATM   20  H   UNL     1     -12.061  11.568  66.594  1.00  0.00     0.000 HD 
ENDBRANCH  15  18
ENDBRANCH  14  15
ENDBRANCH   6  14
TORSDOF 3
ENDMDL
MODEL      175
REMARK 921   NORMALIZED FREE ENERGY PREDICTED BY IDOCK:   -2.67 KCAL/MOL
REMARK 922        TOTAL FREE ENERGY PREDICTED BY IDOCK:   -3.61 KCAL/MOL
REMARK 923 INTER-LIGAND FREE ENERGY PREDICTED BY IDOCK:   -3.23 KCAL/MOL
REMARK 924 INTRA-LIGAND FREE ENERGY PREDICTED BY IDOCK:   -0.39 KCAL/MOL
REMARK 927      BINDING AFFINITY PREDICTED BY RF-SCORE:    0.00 PKD
ROOT
HETATM    1  C   UNL     1      -7.946   7.667  64.431  1.00  0.00    -0.123 C  
HETATM    2  N   UNL     1      -8.455   6.946  65.583  1.00  0.00    -0.146 N  
HETATM    3  C   UNL     1      -8.689   7.574  66.783  1.00  0.00    -0.133 A  
HETATM    4  C   UNL     1      -9.186   6.897  67.858  1.00  0.00    -0.124 A  
HETATM    5  C   UNL     1      -9.504   5.510  67.826  1.00  0.00    -0.116 C  
HETATM    6  N   UNL     1      -9.293   7.836  68.847  1.00  0.00    -0.147 NA 
HETATM    7  O   UNL     1      -9.973   4.914  68.794  1.00  0.00    -0.167 OA 
HETATM    8  N   UNL     1      -9.223   4.917  66.592  1.00  0.00    -0.122 N  
HETATM    9  O   UNL     1      -8.519   4.984  64.396  1.00  0.00    -0.134 OA 
HETATM   10  C   UNL     1      -8.841   9.021  68.326  1.00  0.00    -0.134 A  
HETATM   11  N   UNL     1      -8.471   8.887  67.068  1.00  0.00    -0.112 NA 
HETATM   12  C   UNL     1      -9.483   3.499  66.434  1.00  0.00    -0.147 C  
HETATM   13  C   UNL     1      -8.718   5.584  65.458  1.00  0.00    -0.154 C  
ENDROOT
BRANCH   6  14
HETATM   14  C   UNL     1      -9.747   7.631  70.208  1.00  0.00    -0.179 C  
BRANCH  14  15
HETATM   15  C   UNL     1     -11.241   7.920  70.391  1.00  0.00    -0.234 C  
HETATM   16  H   UNL     1     -12.880   6.948  70.967  1.00  0.00     0.000 HD 
HETATM   17  O   UNL     1     -11.954   6.769  70.853  1.00  0.00    -0.363 OA 
BRANCH  15  18
HETATM   18  C   UNL     1     -11.439   9.070  71.391  1.00  0.00    -0.330 C  
HETATM   19  O   UNL     1     -10.990  10.319  70.872  1.00  0.00    -0.364 OA 
HETATM   20  H   UNL     1     -11.112  11.030  71.490  1.00  0.00     0.000 HD 
ENDBRANCH  15  18
ENDBRANCH  14  15
ENDBRANCH   6  14
TORSDOF 3
ENDMDL
MODEL      176
REMARK 921   NORMALIZED FREE ENERGY PREDICTED BY IDOCK:   -2.63 KCAL/MOL
REMARK 922        TOTAL FREE ENERGY PREDICTED BY IDOCK:   -3.56 KCAL/MOL
REMARK 923 INTER-LIGAND FREE ENERGY PREDICTED BY IDOCK:   -3.23 KCAL/MOL
REMARK 924 INTRA-LIGAND FREE ENERGY PREDICTED BY IDOCK:   -0.33 KCAL/MOL
REMARK 927      BINDING AFFINITY PREDICTED BY RF-SCORE:    0.00 PKD
ROOT
HETATM    1  C   UNL     1     -12.434   6.947  71.532  1.00  0.00    -0.375 C  
HETATM    2  N   UNL     1     -11.656   8.009  70.923  1.00  0.00    -0.282 N  
HETATM    3  C   UNL     1     -10.501   7.749  70.224  1.00  0.00    -0.225 A  
HETATM    4  C   UNL     1      -9.782   8.748  69.637  1.00  0.00    -0.173 A  
HETATM    5  C   UNL     1     -10.164  10.119  69.692  1.00  0.00    -0.242 C  
HETATM    6  N   UNL     1      -8.727   8.118  69.036  1.00  0.00    -0.143 NA 
HETATM    7  O   UNL     1      -9.522  11.009  69.138  1.00  0.00    -0.156 OA 
HETATM    8  N   UNL     1     -11.329  10.328  70.434  1.00  0.00    -0.311 N  
HETATM    9  O   UNL     1     -13.135   9.596  71.670  1.00  0.00    -0.357 OA 
HETATM   10  C   UNL     1      -8.854   6.779  69.306  1.00  0.00    -0.137 A  
HETATM   11  N   UNL     1      -9.930   6.530  70.026  1.00  0.00    -0.168 NA 
HETATM   12  C   UNL     1     -11.815  11.686  70.585  1.00  0.00    -0.138 C  
HETATM   13  C   UNL     1     -12.103   9.322  71.048  1.00  0.00    -0.280 C  
ENDROOT
BRANCH   6  14
HETATM   14  C   UNL     1      -7.644   8.731  68.294  1.00  0.00    -0.096 C  
BRANCH  14  15
HETATM   15  C   UNL     1      -6.499   7.759  67.992  1.00  0.00    -0.055 C  
HETATM   16  H   UNL     1      -5.107   7.496  66.594  1.00  0.00     0.000 HD 
HETATM   17  O   UNL     1      -5.817   8.098  66.781  1.00  0.00    -0.045 OA 
BRANCH  15  18
HETATM   18  C   UNL     1      -5.491   7.751  69.152  1.00  0.00    -0.022 C  
HETATM   19  O   UNL     1      -5.653   8.875  70.014  1.00  0.00    -0.028 OA 
HETATM   20  H   UNL     1      -5.030   8.870  70.732  1.00  0.00     0.000 HD 
ENDBRANCH  15  18
ENDBRANCH  14  15
ENDBRANCH   6  14
TORSDOF 3
ENDMDL
MODEL      177
REMARK 921   NORMALIZED FREE ENERGY PREDICTED BY IDOCK:   -2.63 KCAL/MOL
REMARK 922        TOTAL FREE ENERGY PREDICTED BY IDOCK:   -3.56 KCAL/MOL
REMARK 923 INTER-LIGAND FREE ENERGY PREDICTED BY IDOCK:   -3.32 KCAL/MOL
REMARK 924 INTRA-LIGAND FREE ENERGY PREDICTED BY IDOCK:   -0.24 KCAL/MOL
REMARK 927      BINDING AFFINITY PREDICTED BY RF-SCORE:    0.00 PKD
ROOT
HETATM    1  C   UNL     1      -9.685   2.853  71.525  1.00  0.00    -0.154 C  
HETATM    2  N   UNL     1      -9.754   3.679  70.335  1.00  0.00    -0.179 N  
HETATM    3  C   UNL     1     -10.150   4.994  70.390  1.00  0.00    -0.260 A  
HETATM    4  C   UNL     1     -10.195   5.774  69.272  1.00  0.00    -0.226 A  
HETATM    5  C   UNL     1      -9.836   5.301  67.978  1.00  0.00    -0.149 C  
HETATM    6  N   UNL     1     -10.616   6.999  69.712  1.00  0.00    -0.226 NA 
HETATM    7  O   UNL     1      -9.858   6.018  66.979  1.00  0.00    -0.134 OA 
HETATM    8  N   UNL     1      -9.467   3.954  67.975  1.00  0.00    -0.174 N  
HETATM    9  O   UNL     1      -9.040   1.941  69.020  1.00  0.00    -0.097 OA 
HETATM   10  C   UNL     1     -10.820   6.891  71.064  1.00  0.00    -0.241 A  
HETATM   11  N   UNL     1     -10.538   5.680  71.501  1.00  0.00    -0.238 NA 
HETATM   12  C   UNL     1      -9.097   3.343  66.714  1.00  0.00    -0.167 C  
HETATM   13  C   UNL     1      -9.399   3.120  69.110  1.00  0.00    -0.158 C  
ENDROOT
BRANCH   6  14
HETATM   14  C   UNL     1     -10.857   8.184  68.914  1.00  0.00     0.035 C  
BRANCH  14  15
HETATM   15  C   UNL     1     -10.185   9.438  69.484  1.00  0.00    -0.209 C  
HETATM   16  H   UNL     1      -8.343  10.102  69.842  1.00  0.00     0.000 HD 
HETATM   17  O   UNL     1      -8.760   9.325  69.488  1.00  0.00    -0.130 OA 
BRANCH  15  18
HETATM   18  C   UNL     1     -10.591  10.674  68.667  1.00  0.00    -0.203 C  
HETATM   19  O   UNL     1     -10.057  11.879  69.212  1.00  0.00    -0.414 OA 
HETATM   20  H   UNL     1     -10.308  12.643  68.706  1.00  0.00     0.000 HD 
ENDBRANCH  15  18
ENDBRANCH  14  15
ENDBRANCH   6  14
TORSDOF 3
ENDMDL
MODEL      178
REMARK 921   NORMALIZED FREE ENERGY PREDICTED BY IDOCK:   -2.62 KCAL/MOL
REMARK 922        TOTAL FREE ENERGY PREDICTED BY IDOCK:   -3.55 KCAL/MOL
REMARK 923 INTER-LIGAND FREE ENERGY PREDICTED BY IDOCK:   -4.45 KCAL/MOL
REMARK 924 INTRA-LIGAND FREE ENERGY PREDICTED BY IDOCK:    0.90 KCAL/MOL
REMARK 927      BINDING AFFINITY PREDICTED BY RF-SCORE:    0.00 PKD
ROOT
HETATM    1  C   UNL     1     -10.380   9.649  70.526  1.00  0.00    -0.295 C  
HETATM    2  N   UNL     1      -9.786   9.729  69.206  1.00  0.00    -0.185 N  
HETATM    3  C   UNL     1     -10.403  10.396  68.175  1.00  0.00    -0.172 A  
HETATM    4  C   UNL     1      -9.831  10.486  66.939  1.00  0.00    -0.193 A  
HETATM    5  C   UNL     1      -8.568   9.912  66.622  1.00  0.00    -0.125 C  
HETATM    6  N   UNL     1     -10.715  11.218  66.194  1.00  0.00    -0.266 NA 
HETATM    7  O   UNL     1      -8.050  10.019  65.512  1.00  0.00    -0.126 OA 
HETATM    8  N   UNL     1      -7.998   9.226  67.697  1.00  0.00    -0.103 N  
HETATM    9  O   UNL     1      -7.968   8.508  69.890  1.00  0.00    -0.100 OA 
HETATM   10  C   UNL     1     -11.777  11.515  67.010  1.00  0.00    -0.005 A  
HETATM   11  N   UNL     1     -11.608  11.028  68.223  1.00  0.00    -0.457 NA 
HETATM   12  C   UNL     1      -6.716   8.577  67.499  1.00  0.00    -0.063 C  
HETATM   13  C   UNL     1      -8.553   9.119  68.989  1.00  0.00    -0.133 C  
ENDROOT
BRANCH   6  14
HETATM   14  C   UNL     1     -10.596  11.579  64.796  1.00  0.00    -0.305 C  
BRANCH  14  15
HETATM   15  C   UNL     1     -11.684  12.555  64.335  1.00  0.00    -0.368 C  
HETATM   16  H   UNL     1     -13.608  12.500  63.827  1.00  0.00     0.000 HD 
HETATM   17  O   UNL     1     -12.934  11.895  64.114  1.00  0.00    -0.500 OA 
BRANCH  15  18
HETATM   18  C   UNL     1     -11.878  13.665  65.380  1.00  0.00    -0.353 C  
HETATM   19  O   UNL     1     -13.152  14.295  65.267  1.00  0.00    -0.707 OA 
HETATM   20  H   UNL     1     -13.272  14.980  65.913  1.00  0.00     0.000 HD 
ENDBRANCH  15  18
ENDBRANCH  14  15
ENDBRANCH   6  14
TORSDOF 3
ENDMDL
MODEL      179
REMARK 921   NORMALIZED FREE ENERGY PREDICTED BY IDOCK:   -2.60 KCAL/MOL
REMARK 922        TOTAL FREE ENERGY PREDICTED BY IDOCK:   -3.53 KCAL/MOL
REMARK 923 INTER-LIGAND FREE ENERGY PREDICTED BY IDOCK:   -3.14 KCAL/MOL
REMARK 924 INTRA-LIGAND FREE ENERGY PREDICTED BY IDOCK:   -0.39 KCAL/MOL
REMARK 927      BINDING AFFINITY PREDICTED BY RF-SCORE:    0.00 PKD
ROOT
HETATM    1  C   UNL     1      -6.852   3.570  67.896  1.00  0.00    -0.050 C  
HETATM    2  N   UNL     1      -7.759   4.694  67.758  1.00  0.00    -0.082 N  
HETATM    3  C   UNL     1      -8.802   4.892  68.632  1.00  0.00    -0.098 A  
HETATM    4  C   UNL     1      -9.641   5.960  68.511  1.00  0.00    -0.123 A  
HETATM    5  C   UNL     1      -9.507   6.945  67.491  1.00  0.00    -0.128 C  
HETATM    6  N   UNL     1     -10.528   5.831  69.544  1.00  0.00    -0.264 NA 
HETATM    7  O   UNL     1     -10.255   7.917  67.405  1.00  0.00    -0.203 OA 
HETATM    8  N   UNL     1      -8.450   6.681  66.617  1.00  0.00    -0.116 N  
HETATM    9  O   UNL     1      -6.632   5.449  65.908  1.00  0.00    -0.042 OA 
HETATM   10  C   UNL     1     -10.190   4.688  70.222  1.00  0.00    -0.135 A  
HETATM   11  N   UNL     1      -9.139   4.100  69.686  1.00  0.00    -0.106 NA 
HETATM   12  C   UNL     1      -8.217   7.599  65.519  1.00  0.00    -0.135 C  
HETATM   13  C   UNL     1      -7.557   5.594  66.715  1.00  0.00    -0.092 C  
ENDROOT
BRANCH   6  14
HETATM   14  C   UNL     1     -11.648   6.697  69.854  1.00  0.00    -0.332 C  
BRANCH  14  15
HETATM   15  C   UNL     1     -11.282   7.830  70.818  1.00  0.00    -0.271 C  
HETATM   16  H   UNL     1     -11.427   9.814  70.899  1.00  0.00     0.000 HD 
HETATM   17  O   UNL     1     -11.655   9.111  70.302  1.00  0.00    -0.210 OA 
BRANCH  15  18
HETATM   18  C   UNL     1     -11.969   7.614  72.175  1.00  0.00    -0.302 C  
HETATM   19  O   UNL     1     -11.767   6.296  72.678  1.00  0.00    -0.450 OA 
HETATM   20  H   UNL     1     -12.192   6.163  73.518  1.00  0.00     0.000 HD 
ENDBRANCH  15  18
ENDBRANCH  14  15
ENDBRANCH   6  14
TORSDOF 3
ENDMDL
MODEL      180
REMARK 921   NORMALIZED FREE ENERGY PREDICTED BY IDOCK:   -2.54 KCAL/MOL
REMARK 922        TOTAL FREE ENERGY PREDICTED BY IDOCK:   -3.46 KCAL/MOL
REMARK 923 INTER-LIGAND FREE ENERGY PREDICTED BY IDOCK:   -3.40 KCAL/MOL
REMARK 924 INTRA-LIGAND FREE ENERGY PREDICTED BY IDOCK:   -0.06 KCAL/MOL
REMARK 927      BINDING AFFINITY PREDICTED BY RF-SCORE:    0.00 PKD
ROOT
HETATM    1  C   UNL     1      -8.978   6.626  66.488  1.00  0.00    -0.145 C  
HETATM    2  N   UNL     1      -9.085   7.921  67.131  1.00  0.00    -0.134 N  
HETATM    3  C   UNL     1      -9.787   8.092  68.300  1.00  0.00    -0.170 A  
HETATM    4  C   UNL     1      -9.869   9.308  68.913  1.00  0.00    -0.165 A  
HETATM    5  C   UNL     1      -9.240  10.480  68.405  1.00  0.00    -0.154 C  
HETATM    6  N   UNL     1     -10.624   9.090  70.033  1.00  0.00    -0.221 NA 
HETATM    7  O   UNL     1      -9.301  11.567  68.977  1.00  0.00    -0.057 OA 
HETATM    8  N   UNL     1      -8.563  10.256  67.204  1.00  0.00    -0.126 N  
HETATM    9  O   UNL     1      -7.810   8.901  65.494  1.00  0.00    -0.095 OA 
HETATM   10  C   UNL     1     -10.972   7.763  70.028  1.00  0.00    -0.214 A  
HETATM   11  N   UNL     1     -10.470   7.134  68.985  1.00  0.00    -0.206 NA 
HETATM   12  C   UNL     1      -7.896  11.376  66.569  1.00  0.00    -0.105 C  
HETATM   13  C   UNL     1      -8.449   9.014  66.546  1.00  0.00    -0.119 C  
ENDROOT
BRANCH   6  14
HETATM   14  C   UNL     1     -11.033  10.067  71.021  1.00  0.00    -0.196 C  
BRANCH  14  15
HETATM   15  C   UNL     1     -12.099  11.036  70.501  1.00  0.00    -0.377 C  
HETATM   16  H   UNL     1     -13.594  11.031  69.186  1.00  0.00     0.000 HD 
HETATM   17  O   UNL     1     -12.933  10.430  69.509  1.00  0.00     0.025 OA 
BRANCH  15  18
HETATM   18  C   UNL     1     -12.976  11.532  71.661  1.00  0.00    -0.394 C  
HETATM   19  O   UNL     1     -13.316  10.485  72.566  1.00  0.00    -0.549 OA 
HETATM   20  H   UNL     1     -13.857  10.792  73.284  1.00  0.00     0.000 HD 
ENDBRANCH  15  18
ENDBRANCH  14  15
ENDBRANCH   6  14
TORSDOF 3
ENDMDL
MODEL      181
REMARK 921   NORMALIZED FREE ENERGY PREDICTED BY IDOCK:   -2.50 KCAL/MOL
REMARK 922        TOTAL FREE ENERGY PREDICTED BY IDOCK:   -3.42 KCAL/MOL
REMARK 923 INTER-LIGAND FREE ENERGY PREDICTED BY IDOCK:   -3.09 KCAL/MOL
REMARK 924 INTRA-LIGAND FREE ENERGY PREDICTED BY IDOCK:   -0.33 KCAL/MOL
REMARK 927      BINDING AFFINITY PREDICTED BY RF-SCORE:    0.00 PKD
ROOT
HETATM    1  C   UNL     1      -9.653   4.094  69.316  1.00  0.00    -0.186 C  
HETATM    2  N   UNL     1      -8.973   5.331  68.984  1.00  0.00    -0.105 N  
HETATM    3  C   UNL     1      -9.595   6.328  68.271  1.00  0.00    -0.119 A  
HETATM    4  C   UNL     1      -8.959   7.499  67.978  1.00  0.00    -0.129 A  
HETATM    5  C   UNL     1      -7.625   7.783  68.384  1.00  0.00    -0.109 C  
HETATM    6  N   UNL     1      -9.878   8.235  67.281  1.00  0.00    -0.178 NA 
HETATM    7  O   UNL     1      -7.068   8.852  68.135  1.00  0.00    -0.076 OA 
HETATM    8  N   UNL     1      -7.033   6.728  69.082  1.00  0.00    -0.075 N  
HETATM    9  O   UNL     1      -7.067   4.635  70.053  1.00  0.00    -0.047 OA 
HETATM   10  C   UNL     1     -11.009   7.467  67.175  1.00  0.00    -0.155 A  
HETATM   11  N   UNL     1     -10.862   6.302  67.774  1.00  0.00    -0.310 NA 
HETATM   12  C   UNL     1      -5.664   6.883  69.536  1.00  0.00    -0.015 C  
HETATM   13  C   UNL     1      -7.660   5.509  69.411  1.00  0.00    -0.078 C  
ENDROOT
BRANCH   6  14
HETATM   14  C   UNL     1      -9.697   9.555  66.711  1.00  0.00    -0.197 C  
BRANCH  14  15
HETATM   15  C   UNL     1     -10.285  10.670  67.582  1.00  0.00    -0.194 C  
HETATM   16  H   UNL     1     -12.050  11.537  67.889  1.00  0.00     0.000 HD 
HETATM   17  O   UNL     1     -11.685  10.845  67.349  1.00  0.00    -0.510 OA 
BRANCH  15  18
HETATM   18  C   UNL     1     -10.056  10.358  69.069  1.00  0.00    -0.213 C  
HETATM   19  O   UNL     1      -8.826  10.895  69.549  1.00  0.00    -0.391 OA 
HETATM   20  H   UNL     1      -8.685  10.702  70.469  1.00  0.00     0.000 HD 
ENDBRANCH  15  18
ENDBRANCH  14  15
ENDBRANCH   6  14
TORSDOF 3
ENDMDL
MODEL      182
REMARK 921   NORMALIZED FREE ENERGY PREDICTED BY IDOCK:   -2.44 KCAL/MOL
REMARK 922        TOTAL FREE ENERGY PREDICTED BY IDOCK:   -3.34 KCAL/MOL
REMARK 923 INTER-LIGAND FREE ENERGY PREDICTED BY IDOCK:   -3.04 KCAL/MOL
REMARK 924 INTRA-LIGAND FREE ENERGY PREDICTED BY IDOCK:   -0.29 KCAL/MOL
REMARK 927      BINDING AFFINITY PREDICTED BY RF-SCORE:    0.00 PKD
ROOT
HETATM    1  C   UNL     1      -6.359   4.674  68.436  1.00  0.00    -0.036 C  
HETATM    2  N   UNL     1      -7.678   5.179  68.105  1.00  0.00    -0.083 N  
HETATM    3  C   UNL     1      -8.242   6.230  68.788  1.00  0.00    -0.120 A  
HETATM    4  C   UNL     1      -9.474   6.715  68.461  1.00  0.00    -0.123 A  
HETATM    5  C   UNL     1     -10.263   6.185  67.401  1.00  0.00    -0.184 C  
HETATM    6  N   UNL     1      -9.691   7.746  69.333  1.00  0.00    -0.167 NA 
HETATM    7  O   UNL     1     -11.363   6.645  67.099  1.00  0.00    -0.343 OA 
HETATM    8  N   UNL     1      -9.655   5.104  66.759  1.00  0.00    -0.139 N  
HETATM    9  O   UNL     1      -7.909   3.632  66.426  1.00  0.00    -0.087 OA 
HETATM   10  C   UNL     1      -8.591   7.819  70.149  1.00  0.00    -0.139 A  
HETATM   11  N   UNL     1      -7.692   6.908  69.833  1.00  0.00    -0.106 NA 
HETATM   12  C   UNL     1     -10.365   4.459  65.672  1.00  0.00    -0.225 C  
HETATM   13  C   UNL     1      -8.381   4.581  67.062  1.00  0.00    -0.105 C  
ENDROOT
BRANCH   6  14
HETATM   14  C   UNL     1     -10.870   8.583  69.429  1.00  0.00    -0.091 C  
BRANCH  14  15
HETATM   15  C   UNL     1     -10.647   9.998  68.885  1.00  0.00    -0.218 C  
HETATM   16  H   UNL     1     -11.018  11.021  67.218  1.00  0.00     0.000 HD 
HETATM   17  O   UNL     1     -11.156  10.144  67.556  1.00  0.00    -0.298 OA 
BRANCH  15  18
HETATM   18  C   UNL     1     -11.324  11.030  69.800  1.00  0.00    -0.292 C  
HETATM   19  O   UNL     1     -11.728  12.197  69.089  1.00  0.00    -0.288 OA 
HETATM   20  H   UNL     1     -12.147  12.835  69.655  1.00  0.00     0.000 HD 
ENDBRANCH  15  18
ENDBRANCH  14  15
ENDBRANCH   6  14
TORSDOF 3
ENDMDL
MODEL      183
REMARK 921   NORMALIZED FREE ENERGY PREDICTED BY IDOCK:   -2.38 KCAL/MOL
REMARK 922        TOTAL FREE ENERGY PREDICTED BY IDOCK:   -3.27 KCAL/MOL
REMARK 923 INTER-LIGAND FREE ENERGY PREDICTED BY IDOCK:   -3.66 KCAL/MOL
REMARK 924 INTRA-LIGAND FREE ENERGY PREDICTED BY IDOCK:    0.38 KCAL/MOL
REMARK 927      BINDING AFFINITY PREDICTED BY RF-SCORE:    0.00 PKD
ROOT
HETATM    1  C   UNL     1     -11.263  10.861  67.856  1.00  0.00    -0.321 C  
HETATM    2  N   UNL     1     -10.436   9.701  68.124  1.00  0.00    -0.210 N  
HETATM    3  C   UNL     1     -10.157   9.293  69.407  1.00  0.00    -0.197 A  
HETATM    4  C   UNL     1      -9.394   8.190  69.656  1.00  0.00    -0.159 A  
HETATM    5  C   UNL     1      -8.838   7.379  68.625  1.00  0.00    -0.126 C  
HETATM    6  N   UNL     1      -9.345   8.094  71.019  1.00  0.00    -0.148 NA 
HETATM    7  O   UNL     1      -8.171   6.373  68.860  1.00  0.00    -0.115 OA 
HETATM    8  N   UNL     1      -9.131   7.853  67.344  1.00  0.00    -0.132 N  
HETATM    9  O   UNL     1     -10.148   9.318  65.880  1.00  0.00    -0.293 OA 
HETATM   10  C   UNL     1     -10.063   9.150  71.521  1.00  0.00    -0.311 A  
HETATM   11  N   UNL     1     -10.570   9.893  70.557  1.00  0.00    -0.300 NA 
HETATM   12  C   UNL     1      -8.605   7.127  66.204  1.00  0.00    -0.146 C  
HETATM   13  C   UNL     1      -9.921   8.982  67.048  1.00  0.00    -0.230 C  
ENDROOT
BRANCH   6  14
HETATM   14  C   UNL     1      -8.636   7.106  71.806  1.00  0.00    -0.117 C  
BRANCH  14  15
HETATM   15  C   UNL     1      -9.243   6.899  73.198  1.00  0.00    -0.134 C  
HETATM   16  H   UNL     1      -9.501   7.941  74.874  1.00  0.00     0.000 HD 
HETATM   17  O   UNL     1      -9.125   8.069  74.011  1.00  0.00    -0.217 OA 
BRANCH  15  18
HETATM   18  C   UNL     1     -10.727   6.517  73.077  1.00  0.00    -0.263 C  
HETATM   19  O   UNL     1     -10.933   5.438  72.168  1.00  0.00    -0.238 OA 
HETATM   20  H   UNL     1     -11.851   5.202  72.094  1.00  0.00     0.000 HD 
ENDBRANCH  15  18
ENDBRANCH  14  15
ENDBRANCH   6  14
TORSDOF 3
ENDMDL
MODEL      184
REMARK 921   NORMALIZED FREE ENERGY PREDICTED BY IDOCK:   -2.37 KCAL/MOL
REMARK 922        TOTAL FREE ENERGY PREDICTED BY IDOCK:   -3.26 KCAL/MOL
REMARK 923 INTER-LIGAND FREE ENERGY PREDICTED BY IDOCK:   -2.94 KCAL/MOL
REMARK 924 INTRA-LIGAND FREE ENERGY PREDICTED BY IDOCK:   -0.32 KCAL/MOL
REMARK 927      BINDING AFFINITY PREDICTED BY RF-SCORE:    0.00 PKD
ROOT
HETATM    1  C   UNL     1      -8.966   2.483  65.520  1.00  0.00    -0.133 C  
HETATM    2  N   UNL     1      -8.997   3.703  66.304  1.00  0.00    -0.135 N  
HETATM    3  C   UNL     1      -8.657   4.919  65.761  1.00  0.00    -0.128 A  
HETATM    4  C   UNL     1      -8.706   6.067  66.496  1.00  0.00    -0.128 A  
HETATM    5  C   UNL     1      -9.112   6.103  67.860  1.00  0.00    -0.117 C  
HETATM    6  N   UNL     1      -8.317   7.055  65.633  1.00  0.00    -0.134 NA 
HETATM    7  O   UNL     1      -9.176   7.147  68.506  1.00  0.00    -0.135 OA 
HETATM    8  N   UNL     1      -9.421   4.838  68.367  1.00  0.00    -0.136 N  
HETATM    9  O   UNL     1      -9.702   2.557  68.162  1.00  0.00    -0.135 OA 
HETATM   10  C   UNL     1      -8.037   6.452  64.433  1.00  0.00    -0.076 A  
HETATM   11  N   UNL     1      -8.240   5.151  64.486  1.00  0.00    -0.127 NA 
HETATM   12  C   UNL     1      -9.831   4.734  69.754  1.00  0.00    -0.218 C  
HETATM   13  C   UNL     1      -9.391   3.632  67.638  1.00  0.00    -0.200 C  
ENDROOT
BRANCH   6  14
HETATM   14  C   UNL     1      -8.172   8.468  65.922  1.00  0.00    -0.125 C  
BRANCH  14  15
HETATM   15  C   UNL     1      -9.345   9.308  65.410  1.00  0.00    -0.226 C  
HETATM   16  H   UNL     1     -11.093   9.983  66.083  1.00  0.00     0.000 HD 
HETATM   17  O   UNL     1     -10.365   9.462  66.401  1.00  0.00    -0.242 OA 
BRANCH  15  18
HETATM   18  C   UNL     1      -8.852  10.697  64.975  1.00  0.00    -0.197 C  
HETATM   19  O   UNL     1      -8.093  11.343  65.995  1.00  0.00    -0.348 OA 
HETATM   20  H   UNL     1      -7.788  12.202  65.726  1.00  0.00     0.000 HD 
ENDBRANCH  15  18
ENDBRANCH  14  15
ENDBRANCH   6  14
TORSDOF 3
ENDMDL
MODEL      185
REMARK 921   NORMALIZED FREE ENERGY PREDICTED BY IDOCK:   -2.36 KCAL/MOL
REMARK 922        TOTAL FREE ENERGY PREDICTED BY IDOCK:   -3.24 KCAL/MOL
REMARK 923 INTER-LIGAND FREE ENERGY PREDICTED BY IDOCK:   -3.11 KCAL/MOL
REMARK 924 INTRA-LIGAND FREE ENERGY PREDICTED BY IDOCK:   -0.13 KCAL/MOL
REMARK 927      BINDING AFFINITY PREDICTED BY RF-SCORE:    0.00 PKD
ROOT
HETATM    1  C   UNL     1      -6.223   4.053  73.192  1.00  0.00    -0.020 C  
HETATM    2  N   UNL     1      -7.048   4.731  72.211  1.00  0.00    -0.075 N  
HETATM    3  C   UNL     1      -8.016   5.635  72.582  1.00  0.00    -0.102 A  
HETATM    4  C   UNL     1      -8.777   6.286  71.656  1.00  0.00    -0.134 A  
HETATM    5  C   UNL     1      -8.632   6.092  70.253  1.00  0.00    -0.143 C  
HETATM    6  N   UNL     1      -9.605   7.095  72.385  1.00  0.00    -0.145 NA 
HETATM    7  O   UNL     1      -9.307   6.701  69.425  1.00  0.00    -0.147 OA 
HETATM    8  N   UNL     1      -7.654   5.146  69.933  1.00  0.00    -0.063 N  
HETATM    9  O   UNL     1      -5.984   3.653  70.488  1.00  0.00    -0.017 OA 
HETATM   10  C   UNL     1      -9.313   6.878  73.708  1.00  0.00    -0.194 A  
HETATM   11  N   UNL     1      -8.346   5.995  73.852  1.00  0.00    -0.114 NA 
HETATM   12  C   UNL     1      -7.421   4.841  68.535  1.00  0.00    -0.066 C  
HETATM   13  C   UNL     1      -6.843   4.461  70.861  1.00  0.00    -0.036 C  
ENDROOT
BRANCH   6  14
HETATM   14  C   UNL     1     -10.633   7.982  71.881  1.00  0.00    -0.245 C  
BRANCH  14  15
HETATM   15  C   UNL     1     -11.940   7.256  71.546  1.00  0.00    -0.316 C  
HETATM   16  H   UNL     1     -12.907   5.608  72.106  1.00  0.00     0.000 HD 
HETATM   17  O   UNL     1     -12.097   6.059  72.314  1.00  0.00    -0.301 OA 
BRANCH  15  18
HETATM   18  C   UNL     1     -13.141   8.180  71.803  1.00  0.00    -0.345 C  
HETATM   19  O   UNL     1     -14.327   7.713  71.164  1.00  0.00    -0.649 OA 
HETATM   20  H   UNL     1     -15.069   8.284  71.323  1.00  0.00     0.000 HD 
ENDBRANCH  15  18
ENDBRANCH  14  15
ENDBRANCH   6  14
TORSDOF 3
ENDMDL
MODEL      186
REMARK 921   NORMALIZED FREE ENERGY PREDICTED BY IDOCK:   -2.30 KCAL/MOL
REMARK 922        TOTAL FREE ENERGY PREDICTED BY IDOCK:   -3.17 KCAL/MOL
REMARK 923 INTER-LIGAND FREE ENERGY PREDICTED BY IDOCK:   -4.68 KCAL/MOL
REMARK 924 INTRA-LIGAND FREE ENERGY PREDICTED BY IDOCK:    1.51 KCAL/MOL
REMARK 927      BINDING AFFINITY PREDICTED BY RF-SCORE:    0.00 PKD
ROOT
HETATM    1  C   UNL     1      -8.853  10.231  67.307  1.00  0.00    -0.132 C  
HETATM    2  N   UNL     1      -9.725  10.043  68.450  1.00  0.00    -0.144 N  
HETATM    3  C   UNL     1     -10.467  11.077  68.970  1.00  0.00    -0.216 A  
HETATM    4  C   UNL     1     -11.302  10.893  70.034  1.00  0.00    -0.307 A  
HETATM    5  C   UNL     1     -11.476   9.635  70.678  1.00  0.00    -0.306 C  
HETATM    6  N   UNL     1     -11.867  12.118  70.256  1.00  0.00    -0.304 NA 
HETATM    7  O   UNL     1     -12.248   9.474  71.621  1.00  0.00    -0.351 OA 
HETATM    8  N   UNL     1     -10.680   8.628  70.127  1.00  0.00    -0.232 N  
HETATM    9  O   UNL     1      -9.161   7.824  68.587  1.00  0.00    -0.137 OA 
HETATM   10  C   UNL     1     -11.334  12.979  69.331  1.00  0.00    -0.206 A  
HETATM   11  N   UNL     1     -10.481  12.367  68.534  1.00  0.00    -0.230 NA 
HETATM   12  C   UNL     1     -10.748   7.301  70.707  1.00  0.00    -0.231 C  
HETATM   13  C   UNL     1      -9.814   8.778  69.024  1.00  0.00    -0.181 C  
ENDROOT
BRANCH   6  14
HETATM   14  C   UNL     1     -12.813  12.475  71.294  1.00  0.00    -0.241 C  
BRANCH  14  15
HETATM   15  C   UNL     1     -12.920  13.987  71.514  1.00  0.00    -0.351 C  
HETATM   16  H   UNL     1     -12.112  15.376  72.689  1.00  0.00     0.000 HD 
HETATM   17  O   UNL     1     -12.046  14.439  72.553  1.00  0.00    -0.136 OA 
BRANCH  15  18
HETATM   18  C   UNL     1     -12.588  14.737  70.215  1.00  0.00    -0.315 C  
HETATM   19  O   UNL     1     -13.041  16.088  70.241  1.00  0.00    -0.658 OA 
HETATM   20  H   UNL     1     -12.835  16.551  69.437  1.00  0.00     0.000 HD 
ENDBRANCH  15  18
ENDBRANCH  14  15
ENDBRANCH   6  14
TORSDOF 3
ENDMDL
MODEL      187
REMARK 921   NORMALIZED FREE ENERGY PREDICTED BY IDOCK:   -2.25 KCAL/MOL
REMARK 922        TOTAL FREE ENERGY PREDICTED BY IDOCK:   -3.12 KCAL/MOL
REMARK 923 INTER-LIGAND FREE ENERGY PREDICTED BY IDOCK:   -3.47 KCAL/MOL
REMARK 924 INTRA-LIGAND FREE ENERGY PREDICTED BY IDOCK:    0.35 KCAL/MOL
REMARK 927      BINDING AFFINITY PREDICTED BY RF-SCORE:    0.00 PKD
ROOT
HETATM    1  C   UNL     1      -5.815  10.642  70.365  1.00  0.00    -0.108 C  
HETATM    2  N   UNL     1      -7.198  10.292  70.108  1.00  0.00    -0.157 N  
HETATM    3  C   UNL     1      -7.846  10.698  68.965  1.00  0.00    -0.137 A  
HETATM    4  C   UNL     1      -9.142  10.351  68.717  1.00  0.00    -0.165 A  
HETATM    5  C   UNL     1      -9.916   9.547  69.601  1.00  0.00    -0.205 C  
HETATM    6  N   UNL     1      -9.433  10.916  67.506  1.00  0.00    -0.155 NA 
HETATM    7  O   UNL     1     -11.075   9.220  69.357  1.00  0.00    -0.170 OA 
HETATM    8  N   UNL     1      -9.218   9.184  70.756  1.00  0.00    -0.245 N  
HETATM    9  O   UNL     1      -7.331   9.134  72.083  1.00  0.00    -0.328 OA 
HETATM   10  C   UNL     1      -8.309  11.588  67.096  1.00  0.00    -0.160 A  
HETATM   11  N   UNL     1      -7.328  11.466  67.967  1.00  0.00    -0.086 NA 
HETATM   12  C   UNL     1      -9.902   8.381  71.750  1.00  0.00    -0.243 C  
HETATM   13  C   UNL     1      -7.878   9.516  71.043  1.00  0.00     0.146 C  
ENDROOT
BRANCH   6  14
HETATM   14  C   UNL     1     -10.695  10.871  66.796  1.00  0.00    -0.252 C  
BRANCH  14  15
HETATM   15  C   UNL     1     -10.547  11.123  65.292  1.00  0.00    -0.238 C  
HETATM   16  H   UNL     1      -9.865  12.554  64.088  1.00  0.00     0.000 HD 
HETATM   17  O   UNL     1      -9.957  12.397  65.020  1.00  0.00    -0.265 OA 
BRANCH  15  18
HETATM   18  C   UNL     1      -9.686  10.022  64.653  1.00  0.00    -0.269 C  
HETATM   19  O   UNL     1      -9.693   8.820  65.418  1.00  0.00    -0.436 OA 
HETATM   20  H   UNL     1      -9.161   8.140  65.023  1.00  0.00     0.000 HD 
ENDBRANCH  15  18
ENDBRANCH  14  15
ENDBRANCH   6  14
TORSDOF 3
ENDMDL
MODEL      188
REMARK 921   NORMALIZED FREE ENERGY PREDICTED BY IDOCK:   -2.21 KCAL/MOL
REMARK 922        TOTAL FREE ENERGY PREDICTED BY IDOCK:   -3.07 KCAL/MOL
REMARK 923 INTER-LIGAND FREE ENERGY PREDICTED BY IDOCK:   -3.10 KCAL/MOL
REMARK 924 INTRA-LIGAND FREE ENERGY PREDICTED BY IDOCK:    0.03 KCAL/MOL
REMARK 927      BINDING AFFINITY PREDICTED BY RF-SCORE:    0.00 PKD
ROOT
HETATM    1  C   UNL     1      -5.957  10.028  71.786  1.00  0.00     0.288 C  
HETATM    2  N   UNL     1      -7.125   9.864  70.943  1.00  0.00     0.034 N  
HETATM    3  C   UNL     1      -8.127   8.978  71.261  1.00  0.00    -0.094 A  
HETATM    4  C   UNL     1      -9.234   8.840  70.475  1.00  0.00    -0.188 A  
HETATM    5  C   UNL     1      -9.442   9.592  69.284  1.00  0.00    -0.179 C  
HETATM    6  N   UNL     1      -9.998   7.896  71.104  1.00  0.00    -0.173 NA 
HETATM    7  O   UNL     1     -10.454   9.477  68.595  1.00  0.00    -0.200 OA 
HETATM    8  N   UNL     1      -8.383  10.456  68.995  1.00  0.00    -0.140 N  
HETATM    9  O   UNL     1      -6.348  11.438  69.465  1.00  0.00    -0.087 OA 
HETATM   10  C   UNL     1      -9.308   7.502  72.222  1.00  0.00    -0.145 A  
HETATM   11  N   UNL     1      -8.167   8.151  72.341  1.00  0.00    -0.138 NA 
HETATM   12  C   UNL     1      -8.462  11.267  67.795  1.00  0.00    -0.126 C  
HETATM   13  C   UNL     1      -7.229  10.633  69.786  1.00  0.00    -0.131 C  
ENDROOT
BRANCH   6  14
HETATM   14  C   UNL     1     -11.271   7.362  70.666  1.00  0.00    -0.270 C  
BRANCH  14  15
HETATM   15  C   UNL     1     -12.469   8.156  71.197  1.00  0.00    -0.182 C  
HETATM   16  H   UNL     1     -14.448   7.963  71.303  1.00  0.00     0.000 HD 
HETATM   17  O   UNL     1     -13.705   7.471  70.974  1.00  0.00    -0.210 OA 
BRANCH  15  18
HETATM   18  C   UNL     1     -12.305   8.419  72.702  1.00  0.00    -0.215 C  
HETATM   19  O   UNL     1     -13.480   8.978  73.283  1.00  0.00    -0.945 OA 
HETATM   20  H   UNL     1     -13.379   9.140  74.214  1.00  0.00     0.000 HD 
ENDBRANCH  15  18
ENDBRANCH  14  15
ENDBRANCH   6  14
TORSDOF 3
ENDMDL
MODEL      189
REMARK 921   NORMALIZED FREE ENERGY PREDICTED BY IDOCK:   -2.21 KCAL/MOL
REMARK 922        TOTAL FREE ENERGY PREDICTED BY IDOCK:   -3.07 KCAL/MOL
REMARK 923 INTER-LIGAND FREE ENERGY PREDICTED BY IDOCK:   -2.83 KCAL/MOL
REMARK 924 INTRA-LIGAND FREE ENERGY PREDICTED BY IDOCK:   -0.23 KCAL/MOL
REMARK 927      BINDING AFFINITY PREDICTED BY RF-SCORE:    0.00 PKD
ROOT
HETATM    1  C   UNL     1      -8.607   3.816  67.403  1.00  0.00    -0.103 C  
HETATM    2  N   UNL     1      -9.071   4.989  68.118  1.00  0.00    -0.111 N  
HETATM    3  C   UNL     1      -9.089   6.232  67.532  1.00  0.00    -0.110 A  
HETATM    4  C   UNL     1      -9.544   7.331  68.201  1.00  0.00    -0.140 A  
HETATM    5  C   UNL     1     -10.037   7.281  69.536  1.00  0.00    -0.182 C  
HETATM    6  N   UNL     1      -9.422   8.362  67.311  1.00  0.00    -0.148 NA 
HETATM    7  O   UNL     1     -10.467   8.272  70.122  1.00  0.00    -0.215 OA 
HETATM    8  N   UNL     1      -9.972   6.001  70.091  1.00  0.00    -0.172 N  
HETATM    9  O   UNL     1      -9.514   3.741  69.992  1.00  0.00    -0.165 OA 
HETATM   10  C   UNL     1      -8.885   7.839  66.162  1.00  0.00    -0.162 A  
HETATM   11  N   UNL     1      -8.677   6.542  66.272  1.00  0.00    -0.140 NA 
HETATM   12  C   UNL     1     -10.425   5.818  71.456  1.00  0.00    -0.235 C  
HETATM   13  C   UNL     1      -9.516   4.842  69.429  1.00  0.00    -0.161 C  
ENDROOT
BRANCH   6  14
HETATM   14  C   UNL     1      -9.745   9.757  67.533  1.00  0.00    -0.157 C  
BRANCH  14  15
HETATM   15  C   UNL     1      -8.540  10.687  67.354  1.00  0.00    -0.122 C  
HETATM   16  H   UNL     1      -7.847  11.973  66.002  1.00  0.00     0.000 HD 
HETATM   17  O   UNL     1      -8.594  11.397  66.113  1.00  0.00    -0.177 OA 
BRANCH  15  18
HETATM   18  C   UNL     1      -8.474  11.697  68.510  1.00  0.00    -0.135 C  
HETATM   19  O   UNL     1      -9.107  12.932  68.183  1.00  0.00    -0.199 OA 
HETATM   20  H   UNL     1      -9.066  13.556  68.898  1.00  0.00     0.000 HD 
ENDBRANCH  15  18
ENDBRANCH  14  15
ENDBRANCH   6  14
TORSDOF 3
ENDMDL
MODEL      190
REMARK 921   NORMALIZED FREE ENERGY PREDICTED BY IDOCK:   -2.20 KCAL/MOL
REMARK 922        TOTAL FREE ENERGY PREDICTED BY IDOCK:   -3.06 KCAL/MOL
REMARK 923 INTER-LIGAND FREE ENERGY PREDICTED BY IDOCK:   -2.59 KCAL/MOL
REMARK 924 INTRA-LIGAND FREE ENERGY PREDICTED BY IDOCK:   -0.46 KCAL/MOL
REMARK 927      BINDING AFFINITY PREDICTED BY RF-SCORE:    0.00 PKD
ROOT
HETATM    1  C   UNL     1      -9.335   3.039  65.764  1.00  0.00    -0.084 C  
HETATM    2  N   UNL     1      -9.122   3.809  66.975  1.00  0.00    -0.148 N  
HETATM    3  C   UNL     1      -8.864   5.159  66.936  1.00  0.00    -0.110 A  
HETATM    4  C   UNL     1      -8.684   5.884  68.077  1.00  0.00    -0.111 A  
HETATM    5  C   UNL     1      -8.752   5.315  69.381  1.00  0.00    -0.100 C  
HETATM    6  N   UNL     1      -8.464   7.165  67.651  1.00  0.00    -0.120 NA 
HETATM    7  O   UNL     1      -8.612   5.982  70.404  1.00  0.00    -0.129 OA 
HETATM    8  N   UNL     1      -8.991   3.939  69.361  1.00  0.00    -0.099 N  
HETATM    9  O   UNL     1      -9.419   1.946  68.279  1.00  0.00    -0.188 OA 
HETATM   10  C   UNL     1      -8.506   7.144  66.280  1.00  0.00    -0.138 A  
HETATM   11  N   UNL     1      -8.752   5.933  65.822  1.00  0.00    -0.150 NA 
HETATM   12  C   UNL     1      -9.064   3.233  70.625  1.00  0.00    -0.120 C  
HETATM   13  C   UNL     1      -9.191   3.158  68.204  1.00  0.00    -0.195 C  
ENDROOT
BRANCH   6  14
HETATM   14  C   UNL     1      -8.189   8.329  68.469  1.00  0.00    -0.131 C  
BRANCH  14  15
HETATM   15  C   UNL     1      -9.457   9.072  68.901  1.00  0.00    -0.151 C  
HETATM   16  H   UNL     1     -11.430   8.828  68.792  1.00  0.00     0.000 HD 
HETATM   17  O   UNL     1     -10.643   8.367  68.525  1.00  0.00    -0.191 OA 
BRANCH  15  18
HETATM   18  C   UNL     1      -9.456   9.282  70.423  1.00  0.00    -0.246 C  
HETATM   19  O   UNL     1     -10.140   8.238  71.111  1.00  0.00    -0.183 OA 
HETATM   20  H   UNL     1     -10.139   8.367  72.052  1.00  0.00     0.000 HD 
ENDBRANCH  15  18
ENDBRANCH  14  15
ENDBRANCH   6  14
TORSDOF 3
ENDMDL
MODEL      191
REMARK 921   NORMALIZED FREE ENERGY PREDICTED BY IDOCK:   -2.13 KCAL/MOL
REMARK 922        TOTAL FREE ENERGY PREDICTED BY IDOCK:   -2.98 KCAL/MOL
REMARK 923 INTER-LIGAND FREE ENERGY PREDICTED BY IDOCK:   -2.44 KCAL/MOL
REMARK 924 INTRA-LIGAND FREE ENERGY PREDICTED BY IDOCK:   -0.54 KCAL/MOL
REMARK 927      BINDING AFFINITY PREDICTED BY RF-SCORE:    0.00 PKD
ROOT
HETATM    1  C   UNL     1      -8.316   5.488  70.294  1.00  0.00    -0.110 C  
HETATM    2  N   UNL     1      -8.542   6.567  69.352  1.00  0.00    -0.133 N  
HETATM    3  C   UNL     1      -8.245   6.433  68.016  1.00  0.00    -0.116 A  
HETATM    4  C   UNL     1      -8.477   7.443  67.129  1.00  0.00    -0.118 A  
HETATM    5  C   UNL     1      -9.043   8.695  67.504  1.00  0.00    -0.134 C  
HETATM    6  N   UNL     1      -8.074   6.950  65.918  1.00  0.00    -0.112 NA 
HETATM    7  O   UNL     1      -9.270   9.590  66.692  1.00  0.00    -0.143 OA 
HETATM    8  N   UNL     1      -9.301   8.786  68.874  1.00  0.00    -0.144 N  
HETATM    9  O   UNL     1      -9.362   7.921  71.013  1.00  0.00    -0.150 OA 
HETATM   10  C   UNL     1      -7.605   5.680  66.140  1.00  0.00    -0.091 A  
HETATM   11  N   UNL     1      -7.703   5.342  67.410  1.00  0.00    -0.095 NA 
HETATM   12  C   UNL     1      -9.861  10.020  69.390  1.00  0.00    -0.224 C  
HETATM   13  C   UNL     1      -9.083   7.762  69.819  1.00  0.00    -0.147 C  
ENDROOT
BRANCH   6  14
HETATM   14  C   UNL     1      -8.085   7.635  64.642  1.00  0.00    -0.112 C  
BRANCH  14  15
HETATM   15  C   UNL     1      -6.864   8.538  64.436  1.00  0.00    -0.070 C  
HETATM   16  H   UNL     1      -5.173   8.529  63.385  1.00  0.00     0.000 HD 
HETATM   17  O   UNL     1      -5.931   7.970  63.513  1.00  0.00    -0.061 OA 
BRANCH  15  18
HETATM   18  C   UNL     1      -7.305   9.917  63.923  1.00  0.00    -0.131 C  
HETATM   19  O   UNL     1      -7.239  10.916  64.938  1.00  0.00    -0.349 OA 
HETATM   20  H   UNL     1      -7.512  11.769  64.621  1.00  0.00     0.000 HD 
ENDBRANCH  15  18
ENDBRANCH  14  15
ENDBRANCH   6  14
TORSDOF 3
ENDMDL
MODEL      192
REMARK 921   NORMALIZED FREE ENERGY PREDICTED BY IDOCK:   -2.13 KCAL/MOL
REMARK 922        TOTAL FREE ENERGY PREDICTED BY IDOCK:   -2.98 KCAL/MOL
REMARK 923 INTER-LIGAND FREE ENERGY PREDICTED BY IDOCK:   -2.79 KCAL/MOL
REMARK 924 INTRA-LIGAND FREE ENERGY PREDICTED BY IDOCK:   -0.19 KCAL/MOL
REMARK 927      BINDING AFFINITY PREDICTED BY RF-SCORE:    0.00 PKD
ROOT
HETATM    1  C   UNL     1      -8.689   6.412  66.310  1.00  0.00    -0.143 C  
HETATM    2  N   UNL     1      -8.918   7.115  67.558  1.00  0.00    -0.122 N  
HETATM    3  C   UNL     1      -9.547   6.512  68.621  1.00  0.00    -0.125 A  
HETATM    4  C   UNL     1      -9.744   7.170  69.800  1.00  0.00    -0.165 A  
HETATM    5  C   UNL     1      -9.317   8.510  70.025  1.00  0.00    -0.163 C  
HETATM    6  N   UNL     1     -10.377   6.266  70.608  1.00  0.00    -0.196 NA 
HETATM    7  O   UNL     1      -9.478   9.086  71.100  1.00  0.00    -0.241 OA 
HETATM    8  N   UNL     1      -8.708   9.081  68.906  1.00  0.00    -0.134 N  
HETATM    9  O   UNL     1      -7.912   9.008  66.741  1.00  0.00    -0.105 OA 
HETATM   10  C   UNL     1     -10.544   5.120  69.872  1.00  0.00    -0.126 A  
HETATM   11  N   UNL     1     -10.043   5.245  68.660  1.00  0.00    -0.175 NA 
HETATM   12  C   UNL     1      -8.245  10.452  68.997  1.00  0.00    -0.141 C  
HETATM   13  C   UNL     1      -8.480   8.431  67.675  1.00  0.00    -0.130 C  
ENDROOT
BRANCH   6  14
HETATM   14  C   UNL     1     -10.837   6.472  71.966  1.00  0.00    -0.234 C  
BRANCH  14  15
HETATM   15  C   UNL     1     -10.290   5.431  72.949  1.00  0.00    -0.195 C  
HETATM   16  H   UNL     1     -10.676   3.554  73.490  1.00  0.00     0.000 HD 
HETATM   17  O   UNL     1     -11.015   4.200  72.880  1.00  0.00    -0.167 OA 
BRANCH  15  18
HETATM   18  C   UNL     1      -8.805   5.158  72.660  1.00  0.00    -0.122 C  
HETATM   19  O   UNL     1      -8.039   6.359  72.599  1.00  0.00    -0.105 OA 
HETATM   20  H   UNL     1      -7.121   6.190  72.421  1.00  0.00     0.000 HD 
ENDBRANCH  15  18
ENDBRANCH  14  15
ENDBRANCH   6  14
TORSDOF 3
ENDMDL
MODEL      193
REMARK 921   NORMALIZED FREE ENERGY PREDICTED BY IDOCK:   -2.05 KCAL/MOL
REMARK 922        TOTAL FREE ENERGY PREDICTED BY IDOCK:   -2.89 KCAL/MOL
REMARK 923 INTER-LIGAND FREE ENERGY PREDICTED BY IDOCK:   -2.80 KCAL/MOL
REMARK 924 INTRA-LIGAND FREE ENERGY PREDICTED BY IDOCK:   -0.09 KCAL/MOL
REMARK 927      BINDING AFFINITY PREDICTED BY RF-SCORE:    0.00 PKD
ROOT
HETATM    1  C   UNL     1      -6.868   6.191  63.645  1.00  0.00    -0.041 C  
HETATM    2  N   UNL     1      -7.860   6.221  64.702  1.00  0.00    -0.106 N  
HETATM    3  C   UNL     1      -8.432   7.398  65.123  1.00  0.00    -0.022 A  
HETATM    4  C   UNL     1      -9.379   7.420  66.105  1.00  0.00    -0.054 A  
HETATM    5  C   UNL     1      -9.851   6.247  66.759  1.00  0.00    -0.164 C  
HETATM    6  N   UNL     1      -9.715   8.739  66.243  1.00  0.00    -0.267 NA 
HETATM    7  O   UNL     1     -10.723   6.275  67.626  1.00  0.00    -0.242 OA 
HETATM    8  N   UNL     1      -9.219   5.084  66.311  1.00  0.00    -0.138 N  
HETATM    9  O   UNL     1      -7.751   3.942  64.945  1.00  0.00    -0.079 OA 
HETATM   10  C   UNL     1      -8.943   9.443  65.354  1.00  0.00    -0.206 A  
HETATM   11  N   UNL     1      -8.156   8.647  64.658  1.00  0.00    -0.148 NA 
HETATM   12  C   UNL     1      -9.596   3.820  66.913  1.00  0.00    -0.179 C  
HETATM   13  C   UNL     1      -8.244   5.020  65.295  1.00  0.00    -0.123 C  
ENDROOT
BRANCH   6  14
HETATM   14  C   UNL     1     -10.663   9.312  67.176  1.00  0.00    -0.152 C  
BRANCH  14  15
HETATM   15  C   UNL     1     -10.006   9.818  68.464  1.00  0.00    -0.160 C  
HETATM   16  H   UNL     1      -8.666   9.185  69.793  1.00  0.00     0.000 HD 
HETATM   17  O   UNL     1      -9.073   8.872  68.994  1.00  0.00    -0.136 OA 
BRANCH  15  18
HETATM   18  C   UNL     1      -9.281  11.148  68.202  1.00  0.00    -0.166 C  
HETATM   19  O   UNL     1      -9.895  12.239  68.883  1.00  0.00    -0.414 OA 
HETATM   20  H   UNL     1      -9.446  13.061  68.722  1.00  0.00     0.000 HD 
ENDBRANCH  15  18
ENDBRANCH  14  15
ENDBRANCH   6  14
TORSDOF 3
ENDMDL
MODEL      194
REMARK 921   NORMALIZED FREE ENERGY PREDICTED BY IDOCK:   -1.99 KCAL/MOL
REMARK 922        TOTAL FREE ENERGY PREDICTED BY IDOCK:   -2.81 KCAL/MOL
REMARK 923 INTER-LIGAND FREE ENERGY PREDICTED BY IDOCK:   -2.75 KCAL/MOL
REMARK 924 INTRA-LIGAND FREE ENERGY PREDICTED BY IDOCK:   -0.06 KCAL/MOL
REMARK 927      BINDING AFFINITY PREDICTED BY RF-SCORE:    0.00 PKD
ROOT
HETATM    1  C   UNL     1      -7.268   7.559  64.093  1.00  0.00    -0.080 C  
HETATM    2  N   UNL     1      -7.929   6.535  64.880  1.00  0.00    -0.121 N  
HETATM    3  C   UNL     1      -8.650   6.844  66.009  1.00  0.00    -0.145 A  
HETATM    4  C   UNL     1      -9.286   5.881  66.735  1.00  0.00    -0.136 A  
HETATM    5  C   UNL     1      -9.263   4.500  66.388  1.00  0.00    -0.137 C  
HETATM    6  N   UNL     1      -9.896   6.555  67.758  1.00  0.00    -0.121 NA 
HETATM    7  O   UNL     1      -9.859   3.643  67.037  1.00  0.00    -0.148 OA 
HETATM    8  N   UNL     1      -8.496   4.240  65.250  1.00  0.00    -0.113 N  
HETATM    9  O   UNL     1      -7.191   4.890  63.461  1.00  0.00    -0.047 OA 
HETATM   10  C   UNL     1      -9.582   7.881  67.607  1.00  0.00    -0.150 A  
HETATM   11  N   UNL     1      -8.827   8.083  66.545  1.00  0.00    -0.143 NA 
HETATM   12  C   UNL     1      -8.373   2.866  64.801  1.00  0.00    -0.087 C  
HETATM   13  C   UNL     1      -7.832   5.208  64.469  1.00  0.00    -0.096 C  
ENDROOT
BRANCH   6  14
HETATM   14  C   UNL     1     -10.684   5.991  68.835  1.00  0.00    -0.317 C  
BRANCH  14  15
HETATM   15  C   UNL     1      -9.855   5.678  70.085  1.00  0.00    -0.190 C  
HETATM   16  H   UNL     1      -8.323   6.464  71.084  1.00  0.00     0.000 HD 
HETATM   17  O   UNL     1      -8.837   6.658  70.309  1.00  0.00    -0.149 OA 
BRANCH  15  18
HETATM   18  C   UNL     1     -10.766   5.607  71.321  1.00  0.00    -0.244 C  
HETATM   19  O   UNL     1     -11.946   6.392  71.166  1.00  0.00    -0.328 OA 
HETATM   20  H   UNL     1     -12.509   6.347  71.930  1.00  0.00     0.000 HD 
ENDBRANCH  15  18
ENDBRANCH  14  15
ENDBRANCH   6  14
TORSDOF 3
ENDMDL
MODEL      195
REMARK 921   NORMALIZED FREE ENERGY PREDICTED BY IDOCK:   -1.87 KCAL/MOL
REMARK 922        TOTAL FREE ENERGY PREDICTED BY IDOCK:   -2.67 KCAL/MOL
REMARK 923 INTER-LIGAND FREE ENERGY PREDICTED BY IDOCK:   -2.44 KCAL/MOL
REMARK 924 INTRA-LIGAND FREE ENERGY PREDICTED BY IDOCK:   -0.23 KCAL/MOL
REMARK 927      BINDING AFFINITY PREDICTED BY RF-SCORE:    0.00 PKD
ROOT
HETATM    1  C   UNL     1     -10.041   5.063  70.858  1.00  0.00    -0.232 C  
HETATM    2  N   UNL     1      -9.402   5.882  69.846  1.00  0.00    -0.148 N  
HETATM    3  C   UNL     1      -8.913   5.340  68.681  1.00  0.00    -0.107 A  
HETATM    4  C   UNL     1      -8.329   6.116  67.723  1.00  0.00    -0.116 A  
HETATM    5  C   UNL     1      -8.187   7.527  67.843  1.00  0.00    -0.123 C  
HETATM    6  N   UNL     1      -7.983   5.245  66.726  1.00  0.00    -0.104 NA 
HETATM    7  O   UNL     1      -7.681   8.221  66.963  1.00  0.00    -0.094 OA 
HETATM    8  N   UNL     1      -8.677   8.021  69.055  1.00  0.00    -0.137 N  
HETATM    9  O   UNL     1      -9.719   7.777  71.099  1.00  0.00    -0.159 OA 
HETATM   10  C   UNL     1      -8.358   3.993  67.140  1.00  0.00    -0.099 A  
HETATM   11  N   UNL     1      -8.930   4.026  68.327  1.00  0.00    -0.109 NA 
HETATM   12  C   UNL     1      -8.574   9.444  69.312  1.00  0.00    -0.143 C  
HETATM   13  C   UNL     1      -9.293   7.253  70.064  1.00  0.00    -0.154 C  
ENDROOT
BRANCH   6  14
HETATM   14  C   UNL     1      -7.306   5.556  65.484  1.00  0.00    -0.073 C  
BRANCH  14  15
HETATM   15  C   UNL     1      -8.271   5.863  64.334  1.00  0.00    -0.099 C  
HETATM   16  H   UNL     1      -8.283   6.924  62.650  1.00  0.00     0.000 HD 
HETATM   17  O   UNL     1      -7.684   6.734  63.363  1.00  0.00    -0.097 OA 
BRANCH  15  18
HETATM   18  C   UNL     1      -8.705   4.560  63.645  1.00  0.00    -0.132 C  
HETATM   19  O   UNL     1      -9.545   4.800  62.518  1.00  0.00    -0.316 OA 
HETATM   20  H   UNL     1      -9.813   3.994  62.092  1.00  0.00     0.000 HD 
ENDBRANCH  15  18
ENDBRANCH  14  15
ENDBRANCH   6  14
TORSDOF 3
ENDMDL
MODEL      196
REMARK 921   NORMALIZED FREE ENERGY PREDICTED BY IDOCK:   -1.79 KCAL/MOL
REMARK 922        TOTAL FREE ENERGY PREDICTED BY IDOCK:   -2.58 KCAL/MOL
REMARK 923 INTER-LIGAND FREE ENERGY PREDICTED BY IDOCK:   -1.99 KCAL/MOL
REMARK 924 INTRA-LIGAND FREE ENERGY PREDICTED BY IDOCK:   -0.59 KCAL/MOL
REMARK 927      BINDING AFFINITY PREDICTED BY RF-SCORE:    0.00 PKD
ROOT
HETATM    1  C   UNL     1      -6.830  10.563  70.032  1.00  0.00    -0.153 C  
HETATM    2  N   UNL     1      -7.230   9.218  69.668  1.00  0.00    -0.059 N  
HETATM    3  C   UNL     1      -6.915   8.677  68.444  1.00  0.00    -0.066 A  
HETATM    4  C   UNL     1      -7.276   7.404  68.112  1.00  0.00    -0.090 A  
HETATM    5  C   UNL     1      -7.990   6.542  68.992  1.00  0.00    -0.111 C  
HETATM    6  N   UNL     1      -6.790   7.217  66.847  1.00  0.00    -0.067 NA 
HETATM    7  O   UNL     1      -8.290   5.388  68.692  1.00  0.00    -0.094 OA 
HETATM    8  N   UNL     1      -8.306   7.150  70.210  1.00  0.00    -0.134 N  
HETATM    9  O   UNL     1      -8.246   8.910  71.701  1.00  0.00    -0.286 OA 
HETATM   10  C   UNL     1      -6.180   8.388  66.476  1.00  0.00    -0.054 A  
HETATM   11  N   UNL     1      -6.240   9.291  67.434  1.00  0.00    -0.057 NA 
HETATM   12  C   UNL     1      -9.051   6.384  71.189  1.00  0.00    -0.150 C  
HETATM   13  C   UNL     1      -7.943   8.458  70.591  1.00  0.00    -0.101 C  
ENDROOT
BRANCH   6  14
HETATM   14  C   UNL     1      -6.925   6.036  66.019  1.00  0.00    -0.062 C  
BRANCH  14  15
HETATM   15  C   UNL     1      -8.202   6.041  65.171  1.00  0.00    -0.142 C  
HETATM   16  H   UNL     1      -8.716   6.294  63.265  1.00  0.00     0.000 HD 
HETATM   17  O   UNL     1      -7.925   6.291  63.791  1.00  0.00    -0.110 OA 
BRANCH  15  18
HETATM   18  C   UNL     1      -8.930   4.694  65.303  1.00  0.00    -0.148 C  
HETATM   19  O   UNL     1      -8.443   3.923  66.398  1.00  0.00    -0.107 OA 
HETATM   20  H   UNL     1      -8.893   3.090  66.480  1.00  0.00     0.000 HD 
ENDBRANCH  15  18
ENDBRANCH  14  15
ENDBRANCH   6  14
TORSDOF 3
ENDMDL
MODEL      197
REMARK 921   NORMALIZED FREE ENERGY PREDICTED BY IDOCK:   -1.49 KCAL/MOL
REMARK 922        TOTAL FREE ENERGY PREDICTED BY IDOCK:   -2.22 KCAL/MOL
REMARK 923 INTER-LIGAND FREE ENERGY PREDICTED BY IDOCK:   -2.01 KCAL/MOL
REMARK 924 INTRA-LIGAND FREE ENERGY PREDICTED BY IDOCK:   -0.21 KCAL/MOL
REMARK 927      BINDING AFFINITY PREDICTED BY RF-SCORE:    0.00 PKD
ROOT
HETATM    1  C   UNL     1      -5.491  11.528  70.212  1.00  0.00    -0.121 C  
HETATM    2  N   UNL     1      -5.956  10.157  70.289  1.00  0.00    -0.069 N  
HETATM    3  C   UNL     1      -6.304   9.447  69.164  1.00  0.00    -0.042 A  
HETATM    4  C   UNL     1      -6.722   8.150  69.239  1.00  0.00    -0.040 A  
HETATM    5  C   UNL     1      -6.826   7.435  70.466  1.00  0.00    -0.052 C  
HETATM    6  N   UNL     1      -6.963   7.782  67.944  1.00  0.00    -0.075 NA 
HETATM    7  O   UNL     1      -7.182   6.259  70.520  1.00  0.00    -0.075 OA 
HETATM    8  N   UNL     1      -6.486   8.210  71.577  1.00  0.00    -0.041 N  
HETATM    9  O   UNL     1      -5.740  10.154  72.573  1.00  0.00    -0.286 OA 
HETATM   10  C   UNL     1      -6.696   8.875  67.160  1.00  0.00    -0.066 A  
HETATM   11  N   UNL     1      -6.289   9.901  67.881  1.00  0.00    -0.055 NA 
HETATM   12  C   UNL     1      -6.569   7.604  72.892  1.00  0.00    -0.064 C  
HETATM   13  C   UNL     1      -6.042   9.548  71.539  1.00  0.00    -0.000 C  
ENDROOT
BRANCH   6  14
HETATM   14  C   UNL     1      -7.455   6.504  67.471  1.00  0.00    -0.096 C  
BRANCH  14  15
HETATM   15  C   UNL     1      -8.885   6.575  66.926  1.00  0.00    -0.120 C  
HETATM   16  H   UNL     1     -10.288   5.323  66.272  1.00  0.00     0.000 HD 
HETATM   17  O   UNL     1      -9.401   5.279  66.611  1.00  0.00    -0.128 OA 
BRANCH  15  18
HETATM   18  C   UNL     1      -9.809   7.251  67.950  1.00  0.00    -0.144 C  
HETATM   19  O   UNL     1     -11.183   7.158  67.580  1.00  0.00    -0.540 OA 
HETATM   20  H   UNL     1     -11.754   7.575  68.214  1.00  0.00     0.000 HD 
ENDBRANCH  15  18
ENDBRANCH  14  15
ENDBRANCH   6  14
TORSDOF 3
ENDMDL
MODEL      198
REMARK 921   NORMALIZED FREE ENERGY PREDICTED BY IDOCK:   -0.91 KCAL/MOL
REMARK 922        TOTAL FREE ENERGY PREDICTED BY IDOCK:   -1.54 KCAL/MOL
REMARK 923 INTER-LIGAND FREE ENERGY PREDICTED BY IDOCK:   -2.23 KCAL/MOL
REMARK 924 INTRA-LIGAND FREE ENERGY PREDICTED BY IDOCK:    0.69 KCAL/MOL
REMARK 927      BINDING AFFINITY PREDICTED BY RF-SCORE:    0.00 PKD
ROOT
HETATM    1  C   UNL     1     -10.334   9.266  67.236  1.00  0.00    -0.265 C  
HETATM    2  N   UNL     1      -9.709   8.324  68.144  1.00  0.00    -0.154 N  
HETATM    3  C   UNL     1      -9.458   7.024  67.776  1.00  0.00    -0.124 A  
HETATM    4  C   UNL     1      -8.852   6.145  68.626  1.00  0.00    -0.114 A  
HETATM    5  C   UNL     1      -8.431   6.498  69.940  1.00  0.00    -0.135 C  
HETATM    6  N   UNL     1      -8.762   4.976  67.921  1.00  0.00    -0.103 NA 
HETATM    7  O   UNL     1      -7.864   5.705  70.690  1.00  0.00    -0.095 OA 
HETATM    8  N   UNL     1      -8.732   7.821  70.270  1.00  0.00    -0.142 N  
HETATM    9  O   UNL     1      -9.559   9.920  69.785  1.00  0.00    -0.212 OA 
HETATM   10  C   UNL     1      -9.332   5.204  66.694  1.00  0.00    -0.137 A  
HETATM   11  N   UNL     1      -9.760   6.445  66.581  1.00  0.00    -0.159 NA 
HETATM   12  C   UNL     1      -8.373   8.300  71.590  1.00  0.00    -0.147 C  
HETATM   13  C   UNL     1      -9.349   8.759  69.417  1.00  0.00    -0.157 C  
ENDROOT
BRANCH   6  14
HETATM   14  C   UNL     1      -8.220   3.713  68.379  1.00  0.00    -0.077 C  
BRANCH  14  15
HETATM   15  C   UNL     1      -7.729   2.821  67.234  1.00  0.00    -0.069 C  
HETATM   16  H   UNL     1      -8.080   2.574  65.290  1.00  0.00     0.000 HD 
HETATM   17  O   UNL     1      -8.384   3.128  66.000  1.00  0.00    -0.096 OA 
BRANCH  15  18
HETATM   18  C   UNL     1      -6.211   2.980  67.052  1.00  0.00    -0.028 C  
HETATM   19  O   UNL     1      -5.757   4.279  67.423  1.00  0.00    -0.020 OA 
HETATM   20  H   UNL     1      -4.819   4.377  67.311  1.00  0.00     0.000 HD 
ENDBRANCH  15  18
ENDBRANCH  14  15
ENDBRANCH   6  14
TORSDOF 3
ENDMDL
MODEL      199
REMARK 921   NORMALIZED FREE ENERGY PREDICTED BY IDOCK:   -0.71 KCAL/MOL
REMARK 922        TOTAL FREE ENERGY PREDICTED BY IDOCK:   -1.31 KCAL/MOL
REMARK 923 INTER-LIGAND FREE ENERGY PREDICTED BY IDOCK:   -1.78 KCAL/MOL
REMARK 924 INTRA-LIGAND FREE ENERGY PREDICTED BY IDOCK:    0.47 KCAL/MOL
REMARK 927      BINDING AFFINITY PREDICTED BY RF-SCORE:    0.00 PKD
ROOT
HETATM    1  C   UNL     1     -11.777   6.688  70.572  1.00  0.00    -0.394 C  
HETATM    2  N   UNL     1     -10.558   6.646  71.357  1.00  0.00    -0.221 N  
HETATM    3  C   UNL     1      -9.652   5.619  71.230  1.00  0.00    -0.160 A  
HETATM    4  C   UNL     1      -8.497   5.593  71.956  1.00  0.00    -0.126 A  
HETATM    5  C   UNL     1      -8.136   6.611  72.883  1.00  0.00    -0.107 C  
HETATM    6  N   UNL     1      -7.858   4.449  71.561  1.00  0.00    -0.080 NA 
HETATM    7  O   UNL     1      -7.081   6.590  73.514  1.00  0.00    -0.081 OA 
HETATM    8  N   UNL     1      -9.102   7.615  72.990  1.00  0.00    -0.165 N  
HETATM    9  O   UNL     1     -11.092   8.620  72.396  1.00  0.00    -0.354 OA 
HETATM   10  C   UNL     1      -8.666   3.839  70.635  1.00  0.00    -0.073 A  
HETATM   11  N   UNL     1      -9.763   4.535  70.415  1.00  0.00    -0.200 NA 
HETATM   12  C   UNL     1      -8.864   8.703  73.918  1.00  0.00     0.591 C  
HETATM   13  C   UNL     1     -10.301   7.681  72.253  1.00  0.00    -0.224 C  
ENDROOT
BRANCH   6  14
HETATM   14  C   UNL     1      -6.595   3.935  72.049  1.00  0.00    -0.015 C  
BRANCH  14  15
HETATM   15  C   UNL     1      -6.724   3.197  73.385  1.00  0.00    -0.030 C  
HETATM   16  H   UNL     1      -7.824   3.307  75.041  1.00  0.00     0.000 HD 
HETATM   17  O   UNL     1      -7.744   3.765  74.212  1.00  0.00    -0.068 OA 
BRANCH  15  18
HETATM   18  C   UNL     1      -7.040   1.713  73.142  1.00  0.00    -0.027 C  
HETATM   19  O   UNL     1      -8.175   1.535  72.298  1.00  0.00    -0.044 OA 
HETATM   20  H   UNL     1      -8.371   0.618  72.148  1.00  0.00     0.000 HD 
ENDBRANCH  15  18
ENDBRANCH  14  15
ENDBRANCH   6  14
TORSDOF 3
ENDMDL
