MODEL        1
REMARK 921   NORMALIZED FREE ENERGY PREDICTED BY IDOCK:   -7.27 KCAL/MOL
REMARK 922        TOTAL FREE ENERGY PREDICTED BY IDOCK:  -14.44 KCAL/MOL
REMARK 923 INTER-LIGAND FREE ENERGY PREDICTED BY IDOCK:  -11.52 KCAL/MOL
REMARK 924 INTRA-LIGAND FREE ENERGY PREDICTED BY IDOCK:   -2.93 KCAL/MOL
REMARK 927      BINDING AFFINITY PREDICTED BY RF-SCORE:    0.00 PKD
ROOT
HETATM    1  C   UNL     1     -10.747  17.895  67.709  1.00  0.00    -0.339 C  
HETATM    2  C   UNL     1     -10.564  16.425  68.144  1.00  0.00    -0.318 C  
HETATM    3  C   UNL     1     -11.510  16.176  69.339  1.00  0.00    -0.296 C  
HETATM    4  C   UNL     1      -9.104  16.262  68.617  1.00  0.00    -0.228 C  
ENDROOT
BRANCH   2   5
HETATM    5  C   UNL     1     -10.876  15.422  67.025  1.00  0.00    -0.320 A  
HETATM    6  C   UNL     1     -11.942  14.515  67.093  1.00  0.00    -0.373 A  
HETATM    7  C   UNL     1     -12.187  13.594  66.064  1.00  0.00    -0.492 A  
HETATM    8  C   UNL     1     -11.360  13.556  64.940  1.00  0.00    -0.347 A  
HETATM    9  C   UNL     1     -10.060  15.376  65.878  1.00  0.00    -0.370 A  
HETATM   10  C   UNL     1     -10.297  14.459  64.852  1.00  0.00    -0.419 A  
BRANCH   8  11
HETATM   11  C   UNL     1     -11.635  12.547  63.877  1.00  0.00    -0.442 C  
HETATM   12  O   UNL     1     -12.794  12.343  63.521  1.00  0.00    -0.749 OA 
BRANCH  11  13
HETATM   13  C   UNL     1     -10.453  11.812  63.277  1.00  0.00    -0.439 C  
BRANCH  13  14
HETATM   14  C   UNL     1     -10.114  10.544  64.056  1.00  0.00    -0.321 C  
BRANCH  14  15
HETATM   15  C   UNL     1      -9.162  10.813  65.224  1.00  0.00    -0.204 C  
BRANCH  15  16
HETATM   16  N   UNL     1      -9.797  11.061  66.527  1.00  0.00    -0.197 NA 
HETATM   17  C   UNL     1     -10.907  10.161  66.879  1.00  0.00    -0.106 C  
HETATM   18  C   UNL     1     -10.498   8.753  67.332  1.00  0.00    -0.349 C  
HETATM   19  C   UNL     1      -9.395   8.759  68.398  1.00  0.00    -0.137 C  
HETATM   20  C   UNL     1      -8.254   9.660  67.919  1.00  0.00    -0.106 C  
HETATM   21  C   UNL     1      -8.793  11.063  67.606  1.00  0.00    -0.131 C  
BRANCH  19  22
HETATM   22  O   UNL     1      -9.761   9.293  69.670  1.00  0.00    -0.167 OA 
BRANCH  22  23
HETATM   23  C   UNL     1     -11.013   8.939  70.263  1.00  0.00    -0.241 C  
BRANCH  23  24
HETATM   24  C   UNL     1     -11.711  10.248  70.638  1.00  0.00    -0.438 A  
HETATM   25  C   UNL     1     -12.653  10.308  71.683  1.00  0.00    -0.534 A  
HETATM   26  C   UNL     1     -13.272  11.512  72.027  1.00  0.00    -0.443 A  
HETATM   27  C   UNL     1     -11.423  11.429  69.939  1.00  0.00    -0.353 A  
HETATM   28  C   UNL     1     -12.961  12.676  71.329  1.00  0.00    -0.306 A  
HETATM   29  C   UNL     1     -12.041  12.633  70.283  1.00  0.00    -0.372 A  
ENDBRANCH  23  24
BRANCH  23  30
HETATM   30  C   UNL     1     -10.870   7.994  71.448  1.00  0.00    -0.271 A  
HETATM   31  C   UNL     1     -10.543   6.170  73.565  1.00  0.00    -0.283 A  
HETATM   32  C   UNL     1     -11.430   5.885  72.530  1.00  0.00    -0.347 A  
HETATM   33  C   UNL     1     -10.018   8.288  72.524  1.00  0.00    -0.373 A  
HETATM   34  C   UNL     1      -9.847   7.378  73.570  1.00  0.00    -0.363 A  
HETATM   35  C   UNL     1     -11.595   6.791  71.479  1.00  0.00    -0.344 A  
ENDBRANCH  23  30
ENDBRANCH  22  23
ENDBRANCH  19  22
ENDBRANCH  15  16
ENDBRANCH  14  15
ENDBRANCH  13  14
ENDBRANCH  11  13
ENDBRANCH   8  11
ENDBRANCH   2   5
TORSDOF 10
ENDMDL
MODEL        2
REMARK 921   NORMALIZED FREE ENERGY PREDICTED BY IDOCK:   -7.07 KCAL/MOL
REMARK 922        TOTAL FREE ENERGY PREDICTED BY IDOCK:  -14.14 KCAL/MOL
REMARK 923 INTER-LIGAND FREE ENERGY PREDICTED BY IDOCK:  -11.93 KCAL/MOL
REMARK 924 INTRA-LIGAND FREE ENERGY PREDICTED BY IDOCK:   -2.21 KCAL/MOL
REMARK 927      BINDING AFFINITY PREDICTED BY RF-SCORE:    0.00 PKD
ROOT
HETATM    1  C   UNL     1     -11.145  16.587  69.234  1.00  0.00    -0.260 C  
HETATM    2  C   UNL     1     -10.291  16.626  67.948  1.00  0.00    -0.310 C  
HETATM    3  C   UNL     1      -8.819  16.414  68.365  1.00  0.00    -0.214 C  
HETATM    4  C   UNL     1     -10.441  18.035  67.337  1.00  0.00    -0.399 C  
ENDROOT
BRANCH   2   5
HETATM    5  C   UNL     1     -10.694  15.556  66.924  1.00  0.00    -0.317 A  
HETATM    6  C   UNL     1     -11.886  14.824  67.020  1.00  0.00    -0.290 A  
HETATM    7  C   UNL     1     -12.216  13.836  66.081  1.00  0.00    -0.499 A  
HETATM    8  C   UNL     1     -11.351  13.552  65.023  1.00  0.00    -0.334 A  
HETATM    9  C   UNL     1      -9.841  15.264  65.843  1.00  0.00    -0.385 A  
HETATM   10  C   UNL     1     -10.163  14.279  64.908  1.00  0.00    -0.361 A  
BRANCH   8  11
HETATM   11  C   UNL     1     -11.723  12.478  64.057  1.00  0.00    -0.423 C  
HETATM   12  O   UNL     1     -12.906  12.295  63.781  1.00  0.00    -0.735 OA 
BRANCH  11  13
HETATM   13  C   UNL     1     -10.604  11.653  63.454  1.00  0.00    -0.472 C  
BRANCH  13  14
HETATM   14  C   UNL     1     -10.202  10.489  64.355  1.00  0.00    -0.337 C  
BRANCH  14  15
HETATM   15  C   UNL     1      -8.833  10.698  65.004  1.00  0.00    -0.197 C  
BRANCH  15  16
HETATM   16  N   UNL     1      -8.677  10.159  66.364  1.00  0.00    -0.129 NA 
HETATM   17  C   UNL     1      -8.062  11.068  67.345  1.00  0.00    -0.122 C  
HETATM   18  C   UNL     1      -8.974  12.181  67.876  1.00  0.00    -0.184 C  
HETATM   19  C   UNL     1     -10.345  11.670  68.339  1.00  0.00    -0.204 C  
HETATM   20  C   UNL     1     -10.940  10.794  67.233  1.00  0.00    -0.359 C  
HETATM   21  C   UNL     1      -9.965   9.662  66.880  1.00  0.00    -0.212 C  
BRANCH  19  22
HETATM   22  O   UNL     1     -10.339  10.831  69.494  1.00  0.00    -0.215 OA 
BRANCH  22  23
HETATM   23  C   UNL     1     -11.574  10.396  70.070  1.00  0.00    -0.301 C  
BRANCH  23  24
HETATM   24  C   UNL     1     -12.215  11.623  70.720  1.00  0.00    -0.443 A  
HETATM   25  C   UNL     1     -13.068  11.504  71.835  1.00  0.00    -0.492 A  
HETATM   26  C   UNL     1     -13.635  12.633  72.431  1.00  0.00    -0.435 A  
HETATM   27  C   UNL     1     -11.965  12.906  70.212  1.00  0.00    -0.359 A  
HETATM   28  C   UNL     1     -13.361  13.900  71.919  1.00  0.00    -0.496 A  
HETATM   29  C   UNL     1     -12.531  14.034  70.809  1.00  0.00    -0.442 A  
ENDBRANCH  23  24
BRANCH  23  30
HETATM   30  C   UNL     1     -11.407   9.239  71.044  1.00  0.00    -0.390 A  
HETATM   31  C   UNL     1     -11.090   7.023  72.749  1.00  0.00    -0.320 A  
HETATM   32  C   UNL     1     -12.294   7.219  72.077  1.00  0.00    -0.298 A  
HETATM   33  C   UNL     1     -10.218   9.053  71.767  1.00  0.00    -0.389 A  
HETATM   34  C   UNL     1     -10.057   7.947  72.606  1.00  0.00    -0.343 A  
HETATM   35  C   UNL     1     -12.453   8.320  71.232  1.00  0.00    -0.264 A  
ENDBRANCH  23  30
ENDBRANCH  22  23
ENDBRANCH  19  22
ENDBRANCH  15  16
ENDBRANCH  14  15
ENDBRANCH  13  14
ENDBRANCH  11  13
ENDBRANCH   8  11
ENDBRANCH   2   5
TORSDOF 10
ENDMDL
MODEL        3
REMARK 921   NORMALIZED FREE ENERGY PREDICTED BY IDOCK:   -6.99 KCAL/MOL
REMARK 922        TOTAL FREE ENERGY PREDICTED BY IDOCK:  -14.01 KCAL/MOL
REMARK 923 INTER-LIGAND FREE ENERGY PREDICTED BY IDOCK:  -11.04 KCAL/MOL
REMARK 924 INTRA-LIGAND FREE ENERGY PREDICTED BY IDOCK:   -2.97 KCAL/MOL
REMARK 927      BINDING AFFINITY PREDICTED BY RF-SCORE:    0.00 PKD
ROOT
HETATM    1  C   UNL     1     -10.885   9.720  70.666  1.00  0.00    -0.396 C  
HETATM    2  C   UNL     1      -9.981   8.617  70.075  1.00  0.00    -0.191 C  
HETATM    3  C   UNL     1     -10.767   7.289  70.144  1.00  0.00    -0.260 C  
HETATM    4  C   UNL     1      -8.734   8.509  70.978  1.00  0.00    -0.209 C  
ENDROOT
BRANCH   2   5
HETATM    5  C   UNL     1      -9.564   8.892  68.623  1.00  0.00    -0.158 A  
HETATM    6  C   UNL     1      -8.322   9.445  68.282  1.00  0.00    -0.119 A  
HETATM    7  C   UNL     1      -7.980   9.707  66.947  1.00  0.00    -0.105 A  
HETATM    8  C   UNL     1      -8.882   9.427  65.920  1.00  0.00    -0.193 A  
HETATM    9  C   UNL     1     -10.456   8.605  67.572  1.00  0.00    -0.335 A  
HETATM   10  C   UNL     1     -10.121   8.867  66.242  1.00  0.00    -0.284 A  
BRANCH   8  11
HETATM   11  C   UNL     1      -8.493   9.741  64.515  1.00  0.00    -0.176 C  
HETATM   12  O   UNL     1      -7.326   9.592  64.161  1.00  0.00    -0.111 OA 
BRANCH  11  13
HETATM   13  C   UNL     1      -9.576  10.236  63.576  1.00  0.00    -0.321 C  
BRANCH  13  14
HETATM   14  C   UNL     1      -9.573  11.757  63.452  1.00  0.00    -0.267 C  
BRANCH  14  15
HETATM   15  C   UNL     1     -10.684  12.413  64.275  1.00  0.00    -0.357 C  
BRANCH  15  16
HETATM   16  N   UNL     1     -10.245  13.368  65.304  1.00  0.00    -0.310 NA 
HETATM   17  C   UNL     1     -11.142  14.510  65.541  1.00  0.00    -0.339 C  
HETATM   18  C   UNL     1     -12.407  14.198  66.352  1.00  0.00    -0.431 C  
HETATM   19  C   UNL     1     -12.121  13.408  67.635  1.00  0.00    -0.269 C  
HETATM   20  C   UNL     1     -11.244  12.203  67.285  1.00  0.00    -0.366 C  
HETATM   21  C   UNL     1      -9.968  12.675  66.575  1.00  0.00    -0.251 C  
BRANCH  19  22
HETATM   22  O   UNL     1     -11.388  14.101  68.645  1.00  0.00    -0.247 OA 
BRANCH  22  23
HETATM   23  C   UNL     1     -11.756  15.434  69.011  1.00  0.00    -0.361 C  
BRANCH  23  24
HETATM   24  C   UNL     1     -10.511  16.304  68.826  1.00  0.00    -0.282 A  
HETATM   25  C   UNL     1      -9.213  15.768  68.942  1.00  0.00    -0.227 A  
HETATM   26  C   UNL     1      -8.084  16.568  68.755  1.00  0.00    -0.244 A  
HETATM   27  C   UNL     1     -10.639  17.669  68.534  1.00  0.00    -0.281 A  
HETATM   28  C   UNL     1      -8.234  17.920  68.451  1.00  0.00    -0.303 A  
HETATM   29  C   UNL     1      -9.510  18.470  68.346  1.00  0.00    -0.368 A  
ENDBRANCH  23  24
BRANCH  23  30
HETATM   30  C   UNL     1     -12.333  15.532  70.416  1.00  0.00    -0.451 A  
HETATM   31  C   UNL     1     -13.407  15.837  72.999  1.00  0.00    -0.679 A  
HETATM   32  C   UNL     1     -12.095  16.226  72.739  1.00  0.00    -0.637 A  
HETATM   33  C   UNL     1     -13.636  15.100  70.707  1.00  0.00    -0.299 A  
HETATM   34  C   UNL     1     -14.173  15.261  71.987  1.00  0.00    -0.679 A  
HETATM   35  C   UNL     1     -11.560  16.073  71.458  1.00  0.00    -0.529 A  
ENDBRANCH  23  30
ENDBRANCH  22  23
ENDBRANCH  19  22
ENDBRANCH  15  16
ENDBRANCH  14  15
ENDBRANCH  13  14
ENDBRANCH  11  13
ENDBRANCH   8  11
ENDBRANCH   2   5
TORSDOF 10
ENDMDL
MODEL        4
REMARK 921   NORMALIZED FREE ENERGY PREDICTED BY IDOCK:   -6.93 KCAL/MOL
REMARK 922        TOTAL FREE ENERGY PREDICTED BY IDOCK:  -13.91 KCAL/MOL
REMARK 923 INTER-LIGAND FREE ENERGY PREDICTED BY IDOCK:  -10.80 KCAL/MOL
REMARK 924 INTRA-LIGAND FREE ENERGY PREDICTED BY IDOCK:   -3.10 KCAL/MOL
REMARK 927      BINDING AFFINITY PREDICTED BY RF-SCORE:    0.00 PKD
ROOT
HETATM    1  C   UNL     1      -9.277   9.179  71.167  1.00  0.00    -0.301 C  
HETATM    2  C   UNL     1     -10.369   9.016  70.088  1.00  0.00    -0.237 C  
HETATM    3  C   UNL     1     -11.498  10.017  70.419  1.00  0.00    -0.389 C  
HETATM    4  C   UNL     1     -10.922   7.579  70.205  1.00  0.00    -0.264 C  
ENDROOT
BRANCH   2   5
HETATM    5  C   UNL     1      -9.855   9.274  68.666  1.00  0.00    -0.173 A  
HETATM    6  C   UNL     1     -10.490   8.765  67.524  1.00  0.00    -0.340 A  
HETATM    7  C   UNL     1      -9.982   8.999  66.238  1.00  0.00    -0.352 A  
HETATM    8  C   UNL     1      -8.815   9.745  66.066  1.00  0.00    -0.170 A  
HETATM    9  C   UNL     1      -8.685  10.034  68.471  1.00  0.00    -0.123 A  
HETATM   10  C   UNL     1      -8.173  10.266  67.193  1.00  0.00    -0.121 A  
BRANCH   8  11
HETATM   11  C   UNL     1      -8.290   9.952  64.686  1.00  0.00    -0.163 C  
HETATM   12  O   UNL     1      -7.076   9.996  64.499  1.00  0.00    -0.133 OA 
BRANCH  11  13
HETATM   13  C   UNL     1      -9.296  10.101  63.562  1.00  0.00    -0.333 C  
BRANCH  13  14
HETATM   14  C   UNL     1      -9.481  11.558  63.149  1.00  0.00    -0.332 C  
BRANCH  14  15
HETATM   15  C   UNL     1     -10.748  12.178  63.743  1.00  0.00    -0.437 C  
BRANCH  15  16
HETATM   16  N   UNL     1     -10.580  13.487  64.391  1.00  0.00    -0.419 NA 
HETATM   17  C   UNL     1     -11.800  14.303  64.508  1.00  0.00    -0.442 C  
HETATM   18  C   UNL     1     -12.781  13.871  65.605  1.00  0.00    -0.534 C  
HETATM   19  C   UNL     1     -12.105  13.639  66.963  1.00  0.00    -0.380 C  
HETATM   20  C   UNL     1     -10.894  12.727  66.759  1.00  0.00    -0.289 C  
HETATM   21  C   UNL     1      -9.949  13.338  65.714  1.00  0.00    -0.251 C  
BRANCH  19  22
HETATM   22  O   UNL     1     -11.573  14.801  67.600  1.00  0.00    -0.336 OA 
BRANCH  22  23
HETATM   23  C   UNL     1     -10.660  14.665  68.692  1.00  0.00    -0.252 C  
BRANCH  23  24
HETATM   24  C   UNL     1     -11.486  14.772  69.976  1.00  0.00    -0.321 A  
HETATM   25  C   UNL     1     -11.569  15.978  70.699  1.00  0.00    -0.409 A  
HETATM   26  C   UNL     1     -12.340  16.069  71.861  1.00  0.00    -0.516 A  
HETATM   27  C   UNL     1     -12.184  13.658  70.463  1.00  0.00    -0.438 A  
HETATM   28  C   UNL     1     -13.037  14.953  72.320  1.00  0.00    -0.439 A  
HETATM   29  C   UNL     1     -12.955  13.749  71.625  1.00  0.00    -0.448 A  
ENDBRANCH  23  24
BRANCH  23  30
HETATM   30  C   UNL     1      -9.517  15.669  68.648  1.00  0.00    -0.204 A  
HETATM   31  C   UNL     1      -7.466  17.595  68.648  1.00  0.00    -0.273 A  
HETATM   32  C   UNL     1      -8.676  17.866  68.016  1.00  0.00    -0.256 A  
HETATM   33  C   UNL     1      -8.274  15.394  69.238  1.00  0.00    -0.252 A  
HETATM   34  C   UNL     1      -7.259  16.353  69.248  1.00  0.00    -0.221 A  
HETATM   35  C   UNL     1      -9.695  16.910  68.012  1.00  0.00    -0.256 A  
ENDBRANCH  23  30
ENDBRANCH  22  23
ENDBRANCH  19  22
ENDBRANCH  15  16
ENDBRANCH  14  15
ENDBRANCH  13  14
ENDBRANCH  11  13
ENDBRANCH   8  11
ENDBRANCH   2   5
TORSDOF 10
ENDMDL
MODEL        5
REMARK 921   NORMALIZED FREE ENERGY PREDICTED BY IDOCK:   -6.90 KCAL/MOL
REMARK 922        TOTAL FREE ENERGY PREDICTED BY IDOCK:  -13.86 KCAL/MOL
REMARK 923 INTER-LIGAND FREE ENERGY PREDICTED BY IDOCK:  -11.21 KCAL/MOL
REMARK 924 INTRA-LIGAND FREE ENERGY PREDICTED BY IDOCK:   -2.65 KCAL/MOL
REMARK 927      BINDING AFFINITY PREDICTED BY RF-SCORE:    0.00 PKD
ROOT
HETATM    1  C   UNL     1     -11.513  15.835  69.915  1.00  0.00    -0.347 C  
HETATM    2  C   UNL     1     -10.481  16.021  68.782  1.00  0.00    -0.248 C  
HETATM    3  C   UNL     1      -9.128  15.481  69.296  1.00  0.00    -0.266 C  
HETATM    4  C   UNL     1     -10.349  17.538  68.523  1.00  0.00    -0.380 C  
ENDROOT
BRANCH   2   5
HETATM    5  C   UNL     1     -10.867  15.292  67.489  1.00  0.00    -0.304 A  
HETATM    6  C   UNL     1     -10.161  15.448  66.288  1.00  0.00    -0.303 A  
HETATM    7  C   UNL     1     -10.553  14.786  65.116  1.00  0.00    -0.439 A  
HETATM    8  C   UNL     1     -11.673  13.952  65.118  1.00  0.00    -0.357 A  
HETATM    9  C   UNL     1     -11.987  14.437  67.474  1.00  0.00    -0.389 A  
HETATM   10  C   UNL     1     -12.383  13.778  66.310  1.00  0.00    -0.479 A  
BRANCH   8  11
HETATM   11  C   UNL     1     -12.075  13.283  63.848  1.00  0.00    -0.468 C  
HETATM   12  O   UNL     1     -12.642  13.934  62.973  1.00  0.00    -0.694 OA 
BRANCH  11  13
HETATM   13  C   UNL     1     -11.759  11.808  63.696  1.00  0.00    -0.517 C  
BRANCH  13  14
HETATM   14  C   UNL     1     -10.275  11.518  63.900  1.00  0.00    -0.411 C  
BRANCH  14  15
HETATM   15  C   UNL     1     -10.033  10.188  64.617  1.00  0.00    -0.234 C  
BRANCH  15  16
HETATM   16  N   UNL     1      -9.221  10.256  65.842  1.00  0.00    -0.160 NA 
HETATM   17  C   UNL     1      -9.682  11.213  66.862  1.00  0.00    -0.191 C  
HETATM   18  C   UNL     1     -10.902  10.770  67.679  1.00  0.00    -0.332 C  
HETATM   19  C   UNL     1     -10.771   9.346  68.236  1.00  0.00    -0.171 C  
HETATM   20  C   UNL     1     -10.360   8.410  67.098  1.00  0.00    -0.381 C  
HETATM   21  C   UNL     1      -9.068   8.919  66.443  1.00  0.00    -0.174 C  
BRANCH  19  22
HETATM   22  O   UNL     1      -9.768   9.157  69.234  1.00  0.00    -0.159 OA 
BRANCH  22  23
HETATM   23  C   UNL     1     -10.080   9.365  70.614  1.00  0.00    -0.291 C  
BRANCH  23  24
HETATM   24  C   UNL     1      -9.008   8.635  71.425  1.00  0.00    -0.286 A  
HETATM   25  C   UNL     1      -9.163   8.398  72.805  1.00  0.00    -0.311 A  
HETATM   26  C   UNL     1      -8.184   7.716  73.532  1.00  0.00    -0.206 A  
HETATM   27  C   UNL     1      -7.835   8.183  70.803  1.00  0.00    -0.089 A  
HETATM   28  C   UNL     1      -7.033   7.263  72.891  1.00  0.00    -0.068 A  
HETATM   29  C   UNL     1      -6.857   7.501  71.530  1.00  0.00    -0.050 A  
ENDBRANCH  23  24
BRANCH  23  30
HETATM   30  C   UNL     1     -11.491   8.926  70.982  1.00  0.00    -0.351 A  
HETATM   31  C   UNL     1     -14.052   8.069  71.770  1.00  0.00    -0.517 A  
HETATM   32  C   UNL     1     -13.103   7.138  71.355  1.00  0.00    -0.408 A  
HETATM   33  C   UNL     1     -12.475   9.854  71.356  1.00  0.00    -0.495 A  
HETATM   34  C   UNL     1     -13.744   9.428  71.757  1.00  0.00    -0.418 A  
HETATM   35  C   UNL     1     -11.831   7.563  70.962  1.00  0.00    -0.319 A  
ENDBRANCH  23  30
ENDBRANCH  22  23
ENDBRANCH  19  22
ENDBRANCH  15  16
ENDBRANCH  14  15
ENDBRANCH  13  14
ENDBRANCH  11  13
ENDBRANCH   8  11
ENDBRANCH   2   5
TORSDOF 10
ENDMDL
MODEL        6
REMARK 921   NORMALIZED FREE ENERGY PREDICTED BY IDOCK:   -6.88 KCAL/MOL
REMARK 922        TOTAL FREE ENERGY PREDICTED BY IDOCK:  -13.82 KCAL/MOL
REMARK 923 INTER-LIGAND FREE ENERGY PREDICTED BY IDOCK:  -11.20 KCAL/MOL
REMARK 924 INTRA-LIGAND FREE ENERGY PREDICTED BY IDOCK:   -2.62 KCAL/MOL
REMARK 927      BINDING AFFINITY PREDICTED BY RF-SCORE:    0.00 PKD
ROOT
HETATM    1  C   UNL     1     -12.596   7.252  71.535  1.00  0.00    -0.415 C  
HETATM    2  C   UNL     1     -11.652   8.473  71.587  1.00  0.00    -0.364 C  
HETATM    3  C   UNL     1     -10.609   8.203  72.694  1.00  0.00    -0.414 C  
HETATM    4  C   UNL     1     -12.504   9.697  71.988  1.00  0.00    -0.412 C  
ENDROOT
BRANCH   2   5
HETATM    5  C   UNL     1     -10.934   8.737  70.257  1.00  0.00    -0.255 A  
HETATM    6  C   UNL     1     -10.730   7.740  69.293  1.00  0.00    -0.156 A  
HETATM    7  C   UNL     1     -10.049   8.007  68.096  1.00  0.00    -0.234 A  
HETATM    8  C   UNL     1      -9.547   9.284  67.840  1.00  0.00    -0.163 A  
HETATM    9  C   UNL     1     -10.431  10.022  69.975  1.00  0.00    -0.337 A  
HETATM   10  C   UNL     1      -9.749  10.292  68.788  1.00  0.00    -0.178 A  
BRANCH   8  11
HETATM   11  C   UNL     1      -8.806   9.525  66.569  1.00  0.00    -0.139 C  
HETATM   12  O   UNL     1      -7.614   9.822  66.609  1.00  0.00    -0.097 OA 
BRANCH  11  13
HETATM   13  C   UNL     1      -9.573   9.390  65.268  1.00  0.00    -0.251 C  
BRANCH  13  14
HETATM   14  C   UNL     1      -9.467  10.646  64.409  1.00  0.00    -0.317 C  
BRANCH  14  15
HETATM   15  C   UNL     1     -10.681  11.565  64.566  1.00  0.00    -0.329 C  
BRANCH  15  16
HETATM   16  N   UNL     1     -10.856  12.179  65.892  1.00  0.00    -0.268 NA 
HETATM   17  C   UNL     1      -9.716  12.967  66.387  1.00  0.00    -0.268 C  
HETATM   18  C   UNL     1      -9.548  14.354  65.753  1.00  0.00    -0.216 C  
HETATM   19  C   UNL     1     -10.848  15.167  65.725  1.00  0.00    -0.353 C  
HETATM   20  C   UNL     1     -11.959  14.298  65.132  1.00  0.00    -0.395 C  
HETATM   21  C   UNL     1     -12.084  12.993  65.932  1.00  0.00    -0.444 C  
BRANCH  19  22
HETATM   22  O   UNL     1     -11.354  15.576  66.996  1.00  0.00    -0.244 OA 
BRANCH  22  23
HETATM   23  C   UNL     1     -10.455  15.839  68.076  1.00  0.00    -0.270 C  
BRANCH  23  24
HETATM   24  C   UNL     1     -11.181  15.445  69.363  1.00  0.00    -0.300 A  
HETATM   25  C   UNL     1     -11.227  16.306  70.477  1.00  0.00    -0.327 A  
HETATM   26  C   UNL     1     -11.907  15.942  71.641  1.00  0.00    -0.565 A  
HETATM   27  C   UNL     1     -11.821  14.201  69.462  1.00  0.00    -0.373 A  
HETATM   28  C   UNL     1     -12.549  14.707  71.713  1.00  0.00    -0.407 A  
HETATM   29  C   UNL     1     -12.502  13.837  70.626  1.00  0.00    -0.429 A  
ENDBRANCH  23  24
BRANCH  23  30
HETATM   30  C   UNL     1      -9.956  17.277  68.104  1.00  0.00    -0.303 A  
HETATM   31  C   UNL     1      -8.960  19.908  68.062  1.00  0.00    -0.352 A  
HETATM   32  C   UNL     1      -8.168  18.871  68.548  1.00  0.00    -0.388 A  
HETATM   33  C   UNL     1     -10.759  18.342  67.665  1.00  0.00    -0.390 A  
HETATM   34  C   UNL     1     -10.261  19.647  67.634  1.00  0.00    -0.567 A  
HETATM   35  C   UNL     1      -8.662  17.564  68.571  1.00  0.00    -0.282 A  
ENDBRANCH  23  30
ENDBRANCH  22  23
ENDBRANCH  19  22
ENDBRANCH  15  16
ENDBRANCH  14  15
ENDBRANCH  13  14
ENDBRANCH  11  13
ENDBRANCH   8  11
ENDBRANCH   2   5
TORSDOF 10
ENDMDL
MODEL        7
REMARK 921   NORMALIZED FREE ENERGY PREDICTED BY IDOCK:   -6.87 KCAL/MOL
REMARK 922        TOTAL FREE ENERGY PREDICTED BY IDOCK:  -13.81 KCAL/MOL
REMARK 923 INTER-LIGAND FREE ENERGY PREDICTED BY IDOCK:  -11.01 KCAL/MOL
REMARK 924 INTRA-LIGAND FREE ENERGY PREDICTED BY IDOCK:   -2.80 KCAL/MOL
REMARK 927      BINDING AFFINITY PREDICTED BY RF-SCORE:    0.00 PKD
ROOT
HETATM    1  C   UNL     1     -14.177  15.454  71.416  1.00  0.00    -0.519 C  
HETATM    2  C   UNL     1     -12.995  14.474  71.581  1.00  0.00    -0.408 C  
HETATM    3  C   UNL     1     -13.528  13.228  72.323  1.00  0.00    -0.679 C  
HETATM    4  C   UNL     1     -11.939  15.171  72.465  1.00  0.00    -0.492 C  
ENDROOT
BRANCH   2   5
HETATM    5  C   UNL     1     -12.373  14.049  70.244  1.00  0.00    -0.425 A  
HETATM    6  C   UNL     1     -12.033  14.966  69.239  1.00  0.00    -0.326 A  
HETATM    7  C   UNL     1     -11.487  14.544  68.017  1.00  0.00    -0.345 A  
HETATM    8  C   UNL     1     -11.276  13.187  67.771  1.00  0.00    -0.308 A  
HETATM    9  C   UNL     1     -12.142  12.685  69.981  1.00  0.00    -0.339 A  
HETATM   10  C   UNL     1     -11.602  12.260  68.766  1.00  0.00    -0.380 A  
BRANCH   8  11
HETATM   11  C   UNL     1     -10.718  12.773  66.452  1.00  0.00    -0.262 C  
HETATM   12  O   UNL     1     -10.043  13.569  65.802  1.00  0.00    -0.288 OA 
BRANCH  11  13
HETATM   13  C   UNL     1     -11.013  11.366  65.969  1.00  0.00    -0.286 C  
BRANCH  13  14
HETATM   14  C   UNL     1      -9.757  10.655  65.478  1.00  0.00    -0.291 C  
BRANCH  14  15
HETATM   15  C   UNL     1      -9.505   9.337  66.214  1.00  0.00    -0.224 C  
BRANCH  15  16
HETATM   16  N   UNL     1     -10.310   9.113  67.425  1.00  0.00    -0.247 NA 
HETATM   17  C   UNL     1     -10.870   7.760  67.579  1.00  0.00    -0.112 C  
HETATM   18  C   UNL     1      -9.874   6.681  68.025  1.00  0.00    -0.140 C  
HETATM   19  C   UNL     1      -9.030   7.101  69.235  1.00  0.00    -0.138 C  
HETATM   20  C   UNL     1      -8.431   8.483  68.959  1.00  0.00    -0.126 C  
HETATM   21  C   UNL     1      -9.551   9.482  68.633  1.00  0.00    -0.146 C  
BRANCH  19  22
HETATM   22  O   UNL     1      -9.738   7.258  70.464  1.00  0.00    -0.176 OA 
BRANCH  22  23
HETATM   23  C   UNL     1     -10.887   6.453  70.738  1.00  0.00    -0.267 C  
BRANCH  23  24
HETATM   24  C   UNL     1     -11.999   7.404  71.183  1.00  0.00    -0.351 A  
HETATM   25  C   UNL     1     -13.346   6.994  71.229  1.00  0.00    -0.282 A  
HETATM   26  C   UNL     1     -14.350   7.867  71.652  1.00  0.00    -0.595 A  
HETATM   27  C   UNL     1     -11.695   8.721  71.558  1.00  0.00    -0.377 A  
HETATM   28  C   UNL     1     -14.025   9.167  72.035  1.00  0.00    -0.434 A  
HETATM   29  C   UNL     1     -12.701   9.594  71.983  1.00  0.00    -0.470 A  
ENDBRANCH  23  24
BRANCH  23  30
HETATM   30  C   UNL     1     -10.620   5.352  71.755  1.00  0.00    -0.286 A  
HETATM   31  C   UNL     1     -10.005   3.344  73.628  1.00  0.00    -0.169 A  
HETATM   32  C   UNL     1      -9.697   3.160  72.282  1.00  0.00    -0.224 A  
HETATM   33  C   UNL     1     -10.968   5.499  73.107  1.00  0.00    -0.340 A  
HETATM   34  C   UNL     1     -10.654   4.507  74.039  1.00  0.00    -0.338 A  
HETATM   35  C   UNL     1     -10.004   4.155  71.351  1.00  0.00    -0.223 A  
ENDBRANCH  23  30
ENDBRANCH  22  23
ENDBRANCH  19  22
ENDBRANCH  15  16
ENDBRANCH  14  15
ENDBRANCH  13  14
ENDBRANCH  11  13
ENDBRANCH   8  11
ENDBRANCH   2   5
TORSDOF 10
ENDMDL
MODEL        8
REMARK 921   NORMALIZED FREE ENERGY PREDICTED BY IDOCK:   -6.76 KCAL/MOL
REMARK 922        TOTAL FREE ENERGY PREDICTED BY IDOCK:  -13.64 KCAL/MOL
REMARK 923 INTER-LIGAND FREE ENERGY PREDICTED BY IDOCK:  -11.17 KCAL/MOL
REMARK 924 INTRA-LIGAND FREE ENERGY PREDICTED BY IDOCK:   -2.47 KCAL/MOL
REMARK 927      BINDING AFFINITY PREDICTED BY RF-SCORE:    0.00 PKD
ROOT
HETATM    1  C   UNL     1     -11.213   7.501  70.675  1.00  0.00    -0.286 C  
HETATM    2  C   UNL     1     -10.469   8.836  70.459  1.00  0.00    -0.246 C  
HETATM    3  C   UNL     1      -9.219   8.820  71.367  1.00  0.00    -0.325 C  
HETATM    4  C   UNL     1     -11.411   9.969  70.923  1.00  0.00    -0.439 C  
ENDROOT
BRANCH   2   5
HETATM    5  C   UNL     1     -10.043   9.061  69.002  1.00  0.00    -0.204 A  
HETATM    6  C   UNL     1      -9.232  10.134  68.605  1.00  0.00    -0.157 A  
HETATM    7  C   UNL     1      -8.880  10.326  67.261  1.00  0.00    -0.136 A  
HETATM    8  C   UNL     1      -9.340   9.448  66.278  1.00  0.00    -0.253 A  
HETATM    9  C   UNL     1     -10.488   8.179  67.998  1.00  0.00    -0.242 A  
HETATM   10  C   UNL     1     -10.143   8.368  66.659  1.00  0.00    -0.358 A  
BRANCH   8  11
HETATM   11  C   UNL     1      -8.966   9.697  64.857  1.00  0.00    -0.217 C  
HETATM   12  O   UNL     1      -8.471   8.789  64.192  1.00  0.00    -0.168 OA 
BRANCH  11  13
HETATM   13  C   UNL     1      -9.219  11.081  64.292  1.00  0.00    -0.171 C  
BRANCH  13  14
HETATM   14  C   UNL     1     -10.656  11.247  63.808  1.00  0.00    -0.455 C  
BRANCH  14  15
HETATM   15  C   UNL     1     -11.108  12.709  63.809  1.00  0.00    -0.453 C  
BRANCH  15  16
HETATM   16  N   UNL     1     -12.065  13.086  64.860  1.00  0.00    -0.387 NA 
HETATM   17  C   UNL     1     -11.802  12.526  66.196  1.00  0.00    -0.397 C  
HETATM   18  C   UNL     1     -10.662  13.191  66.977  1.00  0.00    -0.270 C  
HETATM   19  C   UNL     1     -10.756  14.722  66.999  1.00  0.00    -0.300 C  
HETATM   20  C   UNL     1     -10.958  15.221  65.566  1.00  0.00    -0.365 C  
HETATM   21  C   UNL     1     -12.194  14.552  64.948  1.00  0.00    -0.402 C  
BRANCH  19  22
HETATM   22  O   UNL     1     -11.858  15.268  67.724  1.00  0.00    -0.287 OA 
BRANCH  22  23
HETATM   23  C   UNL     1     -11.625  16.045  68.903  1.00  0.00    -0.354 C  
BRANCH  23  24
HETATM   24  C   UNL     1     -10.132  16.373  68.929  1.00  0.00    -0.255 A  
HETATM   25  C   UNL     1      -9.176  15.425  69.342  1.00  0.00    -0.268 A  
HETATM   26  C   UNL     1      -7.813  15.731  69.347  1.00  0.00    -0.210 A  
HETATM   27  C   UNL     1      -9.679  17.642  68.539  1.00  0.00    -0.328 A  
HETATM   28  C   UNL     1      -7.384  16.993  68.941  1.00  0.00    -0.245 A  
HETATM   29  C   UNL     1      -8.316  17.948  68.543  1.00  0.00    -0.305 A  
ENDBRANCH  23  24
BRANCH  23  30
HETATM   30  C   UNL     1     -12.094  15.357  70.177  1.00  0.00    -0.400 A  
HETATM   31  C   UNL     1     -13.066  14.149  72.525  1.00  0.00    -0.554 A  
HETATM   32  C   UNL     1     -12.654  15.479  72.544  1.00  0.00    -0.497 A  
HETATM   33  C   UNL     1     -12.467  14.003  70.187  1.00  0.00    -0.380 A  
HETATM   34  C   UNL     1     -12.959  13.406  71.350  1.00  0.00    -0.412 A  
HETATM   35  C   UNL     1     -12.169  16.079  71.380  1.00  0.00    -0.439 A  
ENDBRANCH  23  30
ENDBRANCH  22  23
ENDBRANCH  19  22
ENDBRANCH  15  16
ENDBRANCH  14  15
ENDBRANCH  13  14
ENDBRANCH  11  13
ENDBRANCH   8  11
ENDBRANCH   2   5
TORSDOF 10
ENDMDL
MODEL        9
REMARK 921   NORMALIZED FREE ENERGY PREDICTED BY IDOCK:   -6.76 KCAL/MOL
REMARK 922        TOTAL FREE ENERGY PREDICTED BY IDOCK:  -13.63 KCAL/MOL
REMARK 923 INTER-LIGAND FREE ENERGY PREDICTED BY IDOCK:  -11.30 KCAL/MOL
REMARK 924 INTRA-LIGAND FREE ENERGY PREDICTED BY IDOCK:   -2.34 KCAL/MOL
REMARK 927      BINDING AFFINITY PREDICTED BY RF-SCORE:    0.00 PKD
ROOT
HETATM    1  C   UNL     1     -10.421  17.926  68.247  1.00  0.00    -0.362 C  
HETATM    2  C   UNL     1     -10.341  16.407  68.514  1.00  0.00    -0.270 C  
HETATM    3  C   UNL     1     -11.313  16.090  69.672  1.00  0.00    -0.332 C  
HETATM    4  C   UNL     1      -8.899  16.096  68.970  1.00  0.00    -0.251 C  
ENDROOT
BRANCH   2   5
HETATM    5  C   UNL     1     -10.706  15.559  67.289  1.00  0.00    -0.308 A  
HETATM    6  C   UNL     1      -9.988  15.614  66.086  1.00  0.00    -0.335 A  
HETATM    7  C   UNL     1     -10.362  14.843  64.975  1.00  0.00    -0.401 A  
HETATM    8  C   UNL     1     -11.473  14.002  65.042  1.00  0.00    -0.344 A  
HETATM    9  C   UNL     1     -11.817  14.696  67.341  1.00  0.00    -0.374 A  
HETATM   10  C   UNL     1     -12.195  13.929  66.237  1.00  0.00    -0.498 A  
BRANCH   8  11
HETATM   11  C   UNL     1     -11.856  13.216  63.834  1.00  0.00    -0.472 C  
HETATM   12  O   UNL     1     -12.560  13.735  62.970  1.00  0.00    -0.721 OA 
BRANCH  11  13
HETATM   13  C   UNL     1     -11.347  11.792  63.728  1.00  0.00    -0.524 C  
BRANCH  13  14
HETATM   14  C   UNL     1      -9.931  11.648  64.274  1.00  0.00    -0.303 C  
BRANCH  14  15
HETATM   15  C   UNL     1      -9.735  10.346  65.056  1.00  0.00    -0.300 C  
BRANCH  15  16
HETATM   16  N   UNL     1      -9.149  10.484  66.398  1.00  0.00    -0.159 NA 
HETATM   17  C   UNL     1      -9.842  11.413  67.306  1.00  0.00    -0.189 C  
HETATM   18  C   UNL     1     -11.149  10.889  67.915  1.00  0.00    -0.362 C  
HETATM   19  C   UNL     1     -11.015   9.484  68.515  1.00  0.00    -0.065 C  
HETATM   20  C   UNL     1     -10.352   8.570  67.481  1.00  0.00    -0.334 C  
HETATM   21  C   UNL     1      -9.007   9.166  67.043  1.00  0.00    -0.123 C  
BRANCH  19  22
HETATM   22  O   UNL     1     -10.184   9.376  69.670  1.00  0.00    -0.191 OA 
BRANCH  22  23
HETATM   23  C   UNL     1     -10.327   8.261  70.555  1.00  0.00    -0.202 C  
BRANCH  23  24
HETATM   24  C   UNL     1     -11.737   8.338  71.141  1.00  0.00    -0.308 A  
HETATM   25  C   UNL     1     -12.224   9.519  71.737  1.00  0.00    -0.465 A  
HETATM   26  C   UNL     1     -13.520   9.582  72.255  1.00  0.00    -0.521 A  
HETATM   27  C   UNL     1     -12.584   7.221  71.098  1.00  0.00    -0.362 A  
HETATM   28  C   UNL     1     -14.350   8.465  72.188  1.00  0.00    -0.520 A  
HETATM   29  C   UNL     1     -13.880   7.286  71.615  1.00  0.00    -0.461 A  
ENDBRANCH  23  24
BRANCH  23  30
HETATM   30  C   UNL     1      -9.250   8.206  71.629  1.00  0.00    -0.220 A  
HETATM   31  C   UNL     1      -7.259   7.980  73.605  1.00  0.00    -0.174 A  
HETATM   32  C   UNL     1      -8.571   7.613  73.892  1.00  0.00    -0.287 A  
HETATM   33  C   UNL     1      -7.933   8.618  71.372  1.00  0.00    -0.174 A  
HETATM   34  C   UNL     1      -6.942   8.497  72.349  1.00  0.00    -0.081 A  
HETATM   35  C   UNL     1      -9.561   7.726  72.913  1.00  0.00    -0.302 A  
ENDBRANCH  23  30
ENDBRANCH  22  23
ENDBRANCH  19  22
ENDBRANCH  15  16
ENDBRANCH  14  15
ENDBRANCH  13  14
ENDBRANCH  11  13
ENDBRANCH   8  11
ENDBRANCH   2   5
TORSDOF 10
ENDMDL
MODEL       10
REMARK 921   NORMALIZED FREE ENERGY PREDICTED BY IDOCK:   -6.73 KCAL/MOL
REMARK 922        TOTAL FREE ENERGY PREDICTED BY IDOCK:  -13.60 KCAL/MOL
REMARK 923 INTER-LIGAND FREE ENERGY PREDICTED BY IDOCK:  -11.04 KCAL/MOL
REMARK 924 INTRA-LIGAND FREE ENERGY PREDICTED BY IDOCK:   -2.56 KCAL/MOL
REMARK 927      BINDING AFFINITY PREDICTED BY RF-SCORE:    0.00 PKD
ROOT
HETATM    1  C   UNL     1     -13.117   7.157  71.632  1.00  0.00    -0.410 C  
HETATM    2  C   UNL     1     -11.584   7.007  71.746  1.00  0.00    -0.315 C  
HETATM    3  C   UNL     1     -11.302   5.648  72.424  1.00  0.00    -0.327 C  
HETATM    4  C   UNL     1     -11.077   8.140  72.664  1.00  0.00    -0.450 C  
ENDROOT
BRANCH   2   5
HETATM    5  C   UNL     1     -10.871   7.063  70.389  1.00  0.00    -0.283 A  
HETATM    6  C   UNL     1      -9.713   7.823  70.170  1.00  0.00    -0.183 A  
HETATM    7  C   UNL     1      -9.097   7.872  68.911  1.00  0.00    -0.141 A  
HETATM    8  C   UNL     1      -9.634   7.163  67.835  1.00  0.00    -0.145 A  
HETATM    9  C   UNL     1     -11.390   6.344  69.294  1.00  0.00    -0.405 A  
HETATM   10  C   UNL     1     -10.783   6.393  68.039  1.00  0.00    -0.362 A  
BRANCH   8  11
HETATM   11  C   UNL     1      -8.966   7.258  66.505  1.00  0.00    -0.152 C  
HETATM   12  O   UNL     1      -8.965   6.283  65.756  1.00  0.00    -0.145 OA 
BRANCH  11  13
HETATM   13  C   UNL     1      -8.311   8.574  66.135  1.00  0.00    -0.121 C  
BRANCH  13  14
HETATM   14  C   UNL     1      -9.209   9.429  65.246  1.00  0.00    -0.299 C  
BRANCH  14  15
HETATM   15  C   UNL     1     -10.227  10.240  66.050  1.00  0.00    -0.228 C  
BRANCH  15  16
HETATM   16  N   UNL     1      -9.719  11.470  66.677  1.00  0.00    -0.195 NA 
HETATM   17  C   UNL     1     -10.398  12.715  66.284  1.00  0.00    -0.252 C  
HETATM   18  C   UNL     1     -11.776  12.945  66.918  1.00  0.00    -0.445 C  
HETATM   19  C   UNL     1     -11.783  12.735  68.438  1.00  0.00    -0.339 C  
HETATM   20  C   UNL     1     -11.125  11.389  68.751  1.00  0.00    -0.290 C  
HETATM   21  C   UNL     1      -9.715  11.344  68.146  1.00  0.00    -0.192 C  
BRANCH  19  22
HETATM   22  O   UNL     1     -11.038  13.682  69.202  1.00  0.00    -0.253 OA 
BRANCH  22  23
HETATM   23  C   UNL     1     -11.542  15.007  69.392  1.00  0.00    -0.315 C  
BRANCH  23  24
HETATM   24  C   UNL     1     -10.392  15.967  69.087  1.00  0.00    -0.247 A  
HETATM   25  C   UNL     1     -10.626  17.318  68.761  1.00  0.00    -0.305 A  
HETATM   26  C   UNL     1      -9.566  18.190  68.501  1.00  0.00    -0.349 A  
HETATM   27  C   UNL     1      -9.064  15.516  69.124  1.00  0.00    -0.248 A  
HETATM   28  C   UNL     1      -8.254  17.724  68.557  1.00  0.00    -0.296 A  
HETATM   29  C   UNL     1      -8.005  16.389  68.864  1.00  0.00    -0.236 A  
ENDBRANCH  23  24
BRANCH  23  30
HETATM   30  C   UNL     1     -12.137  15.230  70.775  1.00  0.00    -0.399 A  
HETATM   31  C   UNL     1     -13.276  15.524  73.331  1.00  0.00    -0.600 A  
HETATM   32  C   UNL     1     -14.094  15.461  72.206  1.00  0.00    -0.660 A  
HETATM   33  C   UNL     1     -11.325  15.345  71.914  1.00  0.00    -0.466 A  
HETATM   34  C   UNL     1     -11.890  15.481  73.185  1.00  0.00    -0.542 A  
HETATM   35  C   UNL     1     -13.530  15.317  70.936  1.00  0.00    -0.441 A  
ENDBRANCH  23  30
ENDBRANCH  22  23
ENDBRANCH  19  22
ENDBRANCH  15  16
ENDBRANCH  14  15
ENDBRANCH  13  14
ENDBRANCH  11  13
ENDBRANCH   8  11
ENDBRANCH   2   5
TORSDOF 10
ENDMDL
MODEL       11
REMARK 921   NORMALIZED FREE ENERGY PREDICTED BY IDOCK:   -6.72 KCAL/MOL
REMARK 922        TOTAL FREE ENERGY PREDICTED BY IDOCK:  -13.57 KCAL/MOL
REMARK 923 INTER-LIGAND FREE ENERGY PREDICTED BY IDOCK:  -10.94 KCAL/MOL
REMARK 924 INTRA-LIGAND FREE ENERGY PREDICTED BY IDOCK:   -2.63 KCAL/MOL
REMARK 927      BINDING AFFINITY PREDICTED BY RF-SCORE:    0.00 PKD
ROOT
HETATM    1  C   UNL     1      -9.430   8.929  71.427  1.00  0.00    -0.344 C  
HETATM    2  C   UNL     1     -10.606   8.746  70.443  1.00  0.00    -0.251 C  
HETATM    3  C   UNL     1     -11.686   9.785  70.816  1.00  0.00    -0.407 C  
HETATM    4  C   UNL     1     -11.176   7.328  70.664  1.00  0.00    -0.300 C  
ENDROOT
BRANCH   2   5
HETATM    5  C   UNL     1     -10.198   8.933  68.975  1.00  0.00    -0.217 A  
HETATM    6  C   UNL     1     -10.688   8.121  67.942  1.00  0.00    -0.138 A  
HETATM    7  C   UNL     1     -10.278   8.302  66.613  1.00  0.00    -0.333 A  
HETATM    8  C   UNL     1      -9.358   9.300  66.288  1.00  0.00    -0.257 A  
HETATM    9  C   UNL     1      -9.280   9.942  68.626  1.00  0.00    -0.139 A  
HETATM   10  C   UNL     1      -8.866  10.123  67.305  1.00  0.00    -0.137 A  
BRANCH   8  11
HETATM   11  C   UNL     1      -8.926   9.447  64.868  1.00  0.00    -0.209 C  
HETATM   12  O   UNL     1      -8.398   8.497  64.294  1.00  0.00    -0.160 OA 
BRANCH  11  13
HETATM   13  C   UNL     1      -9.163  10.784  64.193  1.00  0.00    -0.251 C  
BRANCH  13  14
HETATM   14  C   UNL     1     -10.633  10.993  63.840  1.00  0.00    -0.382 C  
BRANCH  14  15
HETATM   15  C   UNL     1     -11.043  12.466  63.893  1.00  0.00    -0.415 C  
BRANCH  15  16
HETATM   16  N   UNL     1     -12.015  12.827  64.936  1.00  0.00    -0.377 NA 
HETATM   17  C   UNL     1     -11.727  12.311  66.284  1.00  0.00    -0.366 C  
HETATM   18  C   UNL     1     -10.616  13.043  67.048  1.00  0.00    -0.262 C  
HETATM   19  C   UNL     1     -10.778  14.569  67.032  1.00  0.00    -0.291 C  
HETATM   20  C   UNL     1     -11.001  15.024  65.588  1.00  0.00    -0.357 C  
HETATM   21  C   UNL     1     -12.207  14.287  64.989  1.00  0.00    -0.433 C  
BRANCH  19  22
HETATM   22  O   UNL     1     -11.901  15.084  67.747  1.00  0.00    -0.336 OA 
BRANCH  22  23
HETATM   23  C   UNL     1     -11.703  15.897  68.906  1.00  0.00    -0.370 C  
BRANCH  23  24
HETATM   24  C   UNL     1     -10.230  16.311  68.910  1.00  0.00    -0.256 A  
HETATM   25  C   UNL     1      -9.814  17.558  68.402  1.00  0.00    -0.325 A  
HETATM   26  C   UNL     1      -8.468  17.931  68.425  1.00  0.00    -0.300 A  
HETATM   27  C   UNL     1      -9.253  15.446  69.424  1.00  0.00    -0.268 A  
HETATM   28  C   UNL     1      -7.515  17.063  68.954  1.00  0.00    -0.237 A  
HETATM   29  C   UNL     1      -7.907  15.821  69.447  1.00  0.00    -0.210 A  
ENDBRANCH  23  24
BRANCH  23  30
HETATM   30  C   UNL     1     -12.119  15.210  70.199  1.00  0.00    -0.384 A  
HETATM   31  C   UNL     1     -12.995  14.003  72.585  1.00  0.00    -0.481 A  
HETATM   32  C   UNL     1     -12.604  15.339  72.583  1.00  0.00    -0.470 A  
HETATM   33  C   UNL     1     -12.469  13.851  70.230  1.00  0.00    -0.380 A  
HETATM   34  C   UNL     1     -12.914  13.254  71.412  1.00  0.00    -0.398 A  
HETATM   35  C   UNL     1     -12.166  15.940  71.399  1.00  0.00    -0.501 A  
ENDBRANCH  23  30
ENDBRANCH  22  23
ENDBRANCH  19  22
ENDBRANCH  15  16
ENDBRANCH  14  15
ENDBRANCH  13  14
ENDBRANCH  11  13
ENDBRANCH   8  11
ENDBRANCH   2   5
TORSDOF 10
ENDMDL
MODEL       12
REMARK 921   NORMALIZED FREE ENERGY PREDICTED BY IDOCK:   -6.66 KCAL/MOL
REMARK 922        TOTAL FREE ENERGY PREDICTED BY IDOCK:  -13.48 KCAL/MOL
REMARK 923 INTER-LIGAND FREE ENERGY PREDICTED BY IDOCK:  -11.08 KCAL/MOL
REMARK 924 INTRA-LIGAND FREE ENERGY PREDICTED BY IDOCK:   -2.40 KCAL/MOL
REMARK 927      BINDING AFFINITY PREDICTED BY RF-SCORE:    0.00 PKD
ROOT
HETATM    1  C   UNL     1     -14.390  15.403  71.823  1.00  0.00    -0.639 C  
HETATM    2  C   UNL     1     -13.033  14.666  71.815  1.00  0.00    -0.410 C  
HETATM    3  C   UNL     1     -13.278  13.239  72.353  1.00  0.00    -0.539 C  
HETATM    4  C   UNL     1     -12.096  15.415  72.788  1.00  0.00    -0.539 C  
ENDROOT
BRANCH   2   5
HETATM    5  C   UNL     1     -12.397  14.587  70.420  1.00  0.00    -0.400 A  
HETATM    6  C   UNL     1     -11.856  15.703  69.768  1.00  0.00    -0.376 A  
HETATM    7  C   UNL     1     -11.303  15.603  68.482  1.00  0.00    -0.361 A  
HETATM    8  C   UNL     1     -11.287  14.378  67.815  1.00  0.00    -0.331 A  
HETATM    9  C   UNL     1     -12.361  13.357  69.736  1.00  0.00    -0.219 A  
HETATM   10  C   UNL     1     -11.816  13.253  68.455  1.00  0.00    -0.384 A  
BRANCH   8  11
HETATM   11  C   UNL     1     -10.714  14.313  66.440  1.00  0.00    -0.297 C  
HETATM   12  O   UNL     1      -9.793  15.067  66.132  1.00  0.00    -0.264 OA 
BRANCH  11  13
HETATM   13  C   UNL     1     -11.304  13.304  65.475  1.00  0.00    -0.315 C  
BRANCH  13  14
HETATM   14  C   UNL     1     -10.251  12.337  64.944  1.00  0.00    -0.307 C  
BRANCH  14  15
HETATM   15  C   UNL     1      -9.608  11.506  66.056  1.00  0.00    -0.228 C  
BRANCH  15  16
HETATM   16  N   UNL     1     -10.282  10.241  66.386  1.00  0.00    -0.233 NA 
HETATM   17  C   UNL     1      -9.447   9.031  66.306  1.00  0.00    -0.242 C  
HETATM   18  C   UNL     1      -8.467   8.827  67.469  1.00  0.00    -0.120 C  
HETATM   19  C   UNL     1      -9.123   8.990  68.846  1.00  0.00    -0.140 C  
HETATM   20  C   UNL     1      -9.909  10.303  68.864  1.00  0.00    -0.200 C  
HETATM   21  C   UNL     1     -10.923  10.320  67.711  1.00  0.00    -0.300 C  
BRANCH  19  22
HETATM   22  O   UNL     1     -10.083   7.995  69.201  1.00  0.00    -0.190 OA 
BRANCH  22  23
HETATM   23  C   UNL     1     -10.351   7.716  70.577  1.00  0.00    -0.211 C  
BRANCH  23  24
HETATM   24  C   UNL     1      -9.988   6.248  70.811  1.00  0.00    -0.220 A  
HETATM   25  C   UNL     1     -10.037   5.302  69.769  1.00  0.00    -0.334 A  
HETATM   26  C   UNL     1      -9.687   3.968  69.990  1.00  0.00    -0.264 A  
HETATM   27  C   UNL     1      -9.594   5.811  72.084  1.00  0.00    -0.167 A  
HETATM   28  C   UNL     1      -9.284   3.557  71.259  1.00  0.00    -0.195 A  
HETATM   29  C   UNL     1      -9.243   4.477  72.305  1.00  0.00    -0.157 A  
ENDBRANCH  23  24
BRANCH  23  30
HETATM   30  C   UNL     1     -11.783   8.034  70.986  1.00  0.00    -0.295 A  
HETATM   31  C   UNL     1     -14.409   8.561  71.847  1.00  0.00    -0.536 A  
HETATM   32  C   UNL     1     -14.056   7.281  71.429  1.00  0.00    -0.456 A  
HETATM   33  C   UNL     1     -12.168   9.330  71.364  1.00  0.00    -0.426 A  
HETATM   34  C   UNL     1     -13.469   9.590  71.801  1.00  0.00    -0.480 A  
HETATM   35  C   UNL     1     -12.753   7.018  70.999  1.00  0.00    -0.300 A  
ENDBRANCH  23  30
ENDBRANCH  22  23
ENDBRANCH  19  22
ENDBRANCH  15  16
ENDBRANCH  14  15
ENDBRANCH  13  14
ENDBRANCH  11  13
ENDBRANCH   8  11
ENDBRANCH   2   5
TORSDOF 10
ENDMDL
MODEL       13
REMARK 921   NORMALIZED FREE ENERGY PREDICTED BY IDOCK:   -6.61 KCAL/MOL
REMARK 922        TOTAL FREE ENERGY PREDICTED BY IDOCK:  -13.40 KCAL/MOL
REMARK 923 INTER-LIGAND FREE ENERGY PREDICTED BY IDOCK:  -10.50 KCAL/MOL
REMARK 924 INTRA-LIGAND FREE ENERGY PREDICTED BY IDOCK:   -2.90 KCAL/MOL
REMARK 927      BINDING AFFINITY PREDICTED BY RF-SCORE:    0.00 PKD
ROOT
HETATM    1  C   UNL     1     -14.325  15.587  72.102  1.00  0.00    -0.598 C  
HETATM    2  C   UNL     1     -13.098  14.651  72.041  1.00  0.00    -0.418 C  
HETATM    3  C   UNL     1     -13.551  13.261  72.539  1.00  0.00    -0.637 C  
HETATM    4  C   UNL     1     -12.042  15.214  73.017  1.00  0.00    -0.483 C  
ENDROOT
BRANCH   2   5
HETATM    5  C   UNL     1     -12.505  14.524  70.632  1.00  0.00    -0.409 A  
HETATM    6  C   UNL     1     -12.194  15.636  69.835  1.00  0.00    -0.317 A  
HETATM    7  C   UNL     1     -11.676  15.486  68.541  1.00  0.00    -0.351 A  
HETATM    8  C   UNL     1     -11.463  14.214  68.009  1.00  0.00    -0.342 A  
HETATM    9  C   UNL     1     -12.272  13.249  70.082  1.00  0.00    -0.376 A  
HETATM   10  C   UNL     1     -11.760  13.095  68.793  1.00  0.00    -0.363 A  
BRANCH   8  11
HETATM   11  C   UNL     1     -10.933  14.093  66.620  1.00  0.00    -0.303 C  
HETATM   12  O   UNL     1     -10.168  14.952  66.186  1.00  0.00    -0.273 OA 
BRANCH  11  13
HETATM   13  C   UNL     1     -11.370  12.896  65.799  1.00  0.00    -0.349 C  
BRANCH  13  14
HETATM   14  C   UNL     1     -10.235  12.346  64.941  1.00  0.00    -0.301 C  
BRANCH  14  15
HETATM   15  C   UNL     1      -9.628  11.067  65.524  1.00  0.00    -0.222 C  
BRANCH  15  16
HETATM   16  N   UNL     1     -10.179  10.624  66.815  1.00  0.00    -0.224 NA 
HETATM   17  C   UNL     1     -10.736   9.262  66.838  1.00  0.00    -0.094 C  
HETATM   18  C   UNL     1      -9.704   8.128  66.874  1.00  0.00    -0.291 C  
HETATM   19  C   UNL     1      -8.620   8.330  67.941  1.00  0.00    -0.132 C  
HETATM   20  C   UNL     1      -8.049   9.743  67.798  1.00  0.00    -0.113 C  
HETATM   21  C   UNL     1      -9.180  10.776  67.888  1.00  0.00    -0.150 C  
BRANCH  19  22
HETATM   22  O   UNL     1      -9.060   8.259  69.297  1.00  0.00    -0.150 OA 
BRANCH  22  23
HETATM   23  C   UNL     1     -10.064   7.315  69.677  1.00  0.00    -0.194 C  
BRANCH  23  24
HETATM   24  C   UNL     1     -11.115   8.084  70.480  1.00  0.00    -0.251 A  
HETATM   25  C   UNL     1     -11.077   9.488  70.587  1.00  0.00    -0.364 A  
HETATM   26  C   UNL     1     -12.052  10.181  71.310  1.00  0.00    -0.489 A  
HETATM   27  C   UNL     1     -12.148   7.398  71.134  1.00  0.00    -0.357 A  
HETATM   28  C   UNL     1     -13.078   9.481  71.940  1.00  0.00    -0.517 A  
HETATM   29  C   UNL     1     -13.123   8.091  71.856  1.00  0.00    -0.336 A  
ENDBRANCH  23  24
BRANCH  23  30
HETATM   30  C   UNL     1      -9.507   6.120  70.438  1.00  0.00    -0.179 A  
HETATM   31  C   UNL     1      -8.545   3.947  71.944  1.00  0.00    -0.115 A  
HETATM   32  C   UNL     1      -8.096   5.237  72.216  1.00  0.00    -0.110 A  
HETATM   33  C   UNL     1      -9.912   4.808  70.146  1.00  0.00    -0.321 A  
HETATM   34  C   UNL     1      -9.443   3.730  70.900  1.00  0.00    -0.236 A  
HETATM   35  C   UNL     1      -8.571   6.317  71.467  1.00  0.00    -0.131 A  
ENDBRANCH  23  30
ENDBRANCH  22  23
ENDBRANCH  19  22
ENDBRANCH  15  16
ENDBRANCH  14  15
ENDBRANCH  13  14
ENDBRANCH  11  13
ENDBRANCH   8  11
ENDBRANCH   2   5
TORSDOF 10
ENDMDL
MODEL       14
REMARK 921   NORMALIZED FREE ENERGY PREDICTED BY IDOCK:   -6.56 KCAL/MOL
REMARK 922        TOTAL FREE ENERGY PREDICTED BY IDOCK:  -13.32 KCAL/MOL
REMARK 923 INTER-LIGAND FREE ENERGY PREDICTED BY IDOCK:   -9.95 KCAL/MOL
REMARK 924 INTRA-LIGAND FREE ENERGY PREDICTED BY IDOCK:   -3.37 KCAL/MOL
REMARK 927      BINDING AFFINITY PREDICTED BY RF-SCORE:    0.00 PKD
ROOT
HETATM    1  C   UNL     1     -10.212  10.641  65.187  1.00  0.00    -0.368 C  
HETATM    2  C   UNL     1      -8.946   9.776  65.372  1.00  0.00    -0.229 C  
HETATM    3  C   UNL     1      -7.820  10.706  65.874  1.00  0.00    -0.150 C  
HETATM    4  C   UNL     1      -8.559   9.223  63.984  1.00  0.00    -0.204 C  
ENDROOT
BRANCH   2   5
HETATM    5  C   UNL     1      -9.143   8.625  66.368  1.00  0.00    -0.218 A  
HETATM    6  C   UNL     1      -8.113   8.147  67.190  1.00  0.00    -0.116 A  
HETATM    7  C   UNL     1      -8.318   7.077  68.074  1.00  0.00    -0.119 A  
HETATM    8  C   UNL     1      -9.564   6.453  68.148  1.00  0.00    -0.115 A  
HETATM    9  C   UNL     1     -10.396   7.990  66.465  1.00  0.00    -0.144 A  
HETATM   10  C   UNL     1     -10.605   6.922  67.340  1.00  0.00    -0.373 A  
BRANCH   8  11
HETATM   11  C   UNL     1      -9.739   5.302  69.080  1.00  0.00    -0.168 C  
HETATM   12  O   UNL     1      -8.960   4.353  69.025  1.00  0.00    -0.096 OA 
BRANCH  11  13
HETATM   13  C   UNL     1     -10.888   5.362  70.067  1.00  0.00    -0.208 C  
BRANCH  13  14
HETATM   14  C   UNL     1     -10.585   6.285  71.243  1.00  0.00    -0.285 C  
BRANCH  14  15
HETATM   15  C   UNL     1     -11.680   7.331  71.463  1.00  0.00    -0.289 C  
BRANCH  15  16
HETATM   16  N   UNL     1     -11.220   8.674  71.848  1.00  0.00    -0.319 NA 
HETATM   17  C   UNL     1     -10.070   9.197  71.092  1.00  0.00    -0.314 C  
HETATM   18  C   UNL     1     -10.384   9.696  69.676  1.00  0.00    -0.245 C  
HETATM   19  C   UNL     1     -11.592  10.640  69.622  1.00  0.00    -0.296 C  
HETATM   20  C   UNL     1     -12.758   9.988  70.369  1.00  0.00    -0.111 C  
HETATM   21  C   UNL     1     -12.331   9.640  71.802  1.00  0.00    -0.392 C  
BRANCH  19  22
HETATM   22  O   UNL     1     -11.423  11.905  70.260  1.00  0.00    -0.172 OA 
BRANCH  22  23
HETATM   23  C   UNL     1     -12.133  13.050  69.781  1.00  0.00    -0.258 C  
BRANCH  23  24
HETATM   24  C   UNL     1     -11.370  13.564  68.558  1.00  0.00    -0.327 A  
HETATM   25  C   UNL     1      -9.963  13.549  68.507  1.00  0.00    -0.202 A  
HETATM   26  C   UNL     1      -9.278  14.005  67.378  1.00  0.00    -0.216 A  
HETATM   27  C   UNL     1     -12.067  14.068  67.450  1.00  0.00    -0.384 A  
HETATM   28  C   UNL     1      -9.990  14.488  66.282  1.00  0.00    -0.320 A  
HETATM   29  C   UNL     1     -11.382  14.524  66.321  1.00  0.00    -0.352 A  
ENDBRANCH  23  24
BRANCH  23  30
HETATM   30  C   UNL     1     -12.325  14.125  70.842  1.00  0.00    -0.438 A  
HETATM   31  C   UNL     1     -12.623  16.037  72.885  1.00  0.00    -0.577 A  
HETATM   32  C   UNL     1     -13.404  14.884  72.890  1.00  0.00    -0.576 A  
HETATM   33  C   UNL     1     -11.582  15.316  70.825  1.00  0.00    -0.371 A  
HETATM   34  C   UNL     1     -11.722  16.260  71.845  1.00  0.00    -0.518 A  
HETATM   35  C   UNL     1     -13.258  13.934  71.875  1.00  0.00    -0.480 A  
ENDBRANCH  23  30
ENDBRANCH  22  23
ENDBRANCH  19  22
ENDBRANCH  15  16
ENDBRANCH  14  15
ENDBRANCH  13  14
ENDBRANCH  11  13
ENDBRANCH   8  11
ENDBRANCH   2   5
TORSDOF 10
ENDMDL
MODEL       15
REMARK 921   NORMALIZED FREE ENERGY PREDICTED BY IDOCK:   -6.50 KCAL/MOL
REMARK 922        TOTAL FREE ENERGY PREDICTED BY IDOCK:  -13.22 KCAL/MOL
REMARK 923 INTER-LIGAND FREE ENERGY PREDICTED BY IDOCK:   -9.47 KCAL/MOL
REMARK 924 INTRA-LIGAND FREE ENERGY PREDICTED BY IDOCK:   -3.75 KCAL/MOL
REMARK 927      BINDING AFFINITY PREDICTED BY RF-SCORE:    0.00 PKD
ROOT
HETATM    1  C   UNL     1     -12.975  13.754  65.620  1.00  0.00    -0.346 C  
HETATM    2  C   UNL     1     -11.743  13.383  64.766  1.00  0.00    -0.393 C  
HETATM    3  C   UNL     1     -10.824  14.624  64.720  1.00  0.00    -0.402 C  
HETATM    4  C   UNL     1     -12.246  13.077  63.339  1.00  0.00    -0.552 C  
ENDROOT
BRANCH   2   5
HETATM    5  C   UNL     1     -10.962  12.186  65.323  1.00  0.00    -0.349 A  
HETATM    6  C   UNL     1      -9.862  11.622  64.661  1.00  0.00    -0.259 A  
HETATM    7  C   UNL     1      -9.183  10.512  65.185  1.00  0.00    -0.243 A  
HETATM    8  C   UNL     1      -9.597   9.934  66.385  1.00  0.00    -0.255 A  
HETATM    9  C   UNL     1     -11.357  11.596  66.539  1.00  0.00    -0.331 A  
HETATM   10  C   UNL     1     -10.687  10.489  67.062  1.00  0.00    -0.310 A  
BRANCH   8  11
HETATM   11  C   UNL     1      -8.867   8.740  66.899  1.00  0.00    -0.127 C  
HETATM   12  O   UNL     1      -9.489   7.709  67.149  1.00  0.00    -0.141 OA 
BRANCH  11  13
HETATM   13  C   UNL     1      -7.368   8.857  67.091  1.00  0.00    -0.084 C  
BRANCH  13  14
HETATM   14  C   UNL     1      -7.012   9.582  68.386  1.00  0.00    -0.066 C  
BRANCH  14  15
HETATM   15  C   UNL     1      -6.563  11.025  68.143  1.00  0.00    -0.058 C  
BRANCH  15  16
HETATM   16  N   UNL     1      -7.113  12.033  69.063  1.00  0.00    -0.101 NA 
HETATM   17  C   UNL     1      -6.217  13.153  69.393  1.00  0.00    -0.111 C  
HETATM   18  C   UNL     1      -6.059  14.217  68.300  1.00  0.00    -0.119 C  
HETATM   19  C   UNL     1      -7.398  14.696  67.725  1.00  0.00    -0.173 C  
HETATM   20  C   UNL     1      -8.235  13.471  67.344  1.00  0.00    -0.187 C  
HETATM   21  C   UNL     1      -8.399  12.551  68.561  1.00  0.00    -0.069 C  
BRANCH  19  22
HETATM   22  O   UNL     1      -8.233  15.432  68.619  1.00  0.00    -0.141 OA 
BRANCH  22  23
HETATM   23  C   UNL     1      -9.551  15.816  68.218  1.00  0.00    -0.201 C  
BRANCH  23  24
HETATM   24  C   UNL     1      -9.515  17.325  67.967  1.00  0.00    -0.271 A  
HETATM   25  C   UNL     1     -10.515  17.970  67.213  1.00  0.00    -0.390 A  
HETATM   26  C   UNL     1     -10.481  19.351  67.004  1.00  0.00    -0.571 A  
HETATM   27  C   UNL     1      -8.473  18.105  68.489  1.00  0.00    -0.312 A  
HETATM   28  C   UNL     1      -9.444  20.109  67.544  1.00  0.00    -0.523 A  
HETATM   29  C   UNL     1      -8.440  19.486  68.281  1.00  0.00    -0.376 A  
ENDBRANCH  23  24
BRANCH  23  30
HETATM   30  C   UNL     1     -10.624  15.416  69.221  1.00  0.00    -0.252 A  
HETATM   31  C   UNL     1     -12.540  14.577  71.102  1.00  0.00    -0.406 A  
HETATM   32  C   UNL     1     -12.425  13.916  69.881  1.00  0.00    -0.285 A  
HETATM   33  C   UNL     1     -10.787  16.102  70.435  1.00  0.00    -0.255 A  
HETATM   34  C   UNL     1     -11.731  15.679  71.373  1.00  0.00    -0.491 A  
HETATM   35  C   UNL     1     -11.475  14.333  68.945  1.00  0.00    -0.318 A  
ENDBRANCH  23  30
ENDBRANCH  22  23
ENDBRANCH  19  22
ENDBRANCH  15  16
ENDBRANCH  14  15
ENDBRANCH  13  14
ENDBRANCH  11  13
ENDBRANCH   8  11
ENDBRANCH   2   5
TORSDOF 10
ENDMDL
MODEL       16
REMARK 921   NORMALIZED FREE ENERGY PREDICTED BY IDOCK:   -6.49 KCAL/MOL
REMARK 922        TOTAL FREE ENERGY PREDICTED BY IDOCK:  -13.21 KCAL/MOL
REMARK 923 INTER-LIGAND FREE ENERGY PREDICTED BY IDOCK:  -11.11 KCAL/MOL
REMARK 924 INTRA-LIGAND FREE ENERGY PREDICTED BY IDOCK:   -2.10 KCAL/MOL
REMARK 927      BINDING AFFINITY PREDICTED BY RF-SCORE:    0.00 PKD
ROOT
HETATM    1  C   UNL     1     -11.154   3.791  73.703  1.00  0.00    -0.318 C  
HETATM    2  C   UNL     1     -10.151   4.843  73.180  1.00  0.00    -0.194 C  
HETATM    3  C   UNL     1      -8.732   4.339  73.524  1.00  0.00    -0.091 C  
HETATM    4  C   UNL     1     -10.418   6.156  73.948  1.00  0.00    -0.287 C  
ENDROOT
BRANCH   2   5
HETATM    5  C   UNL     1     -10.260   5.080  71.668  1.00  0.00    -0.275 A  
HETATM    6  C   UNL     1      -9.496   4.369  70.731  1.00  0.00    -0.243 A  
HETATM    7  C   UNL     1      -9.601   4.625  69.355  1.00  0.00    -0.257 A  
HETATM    8  C   UNL     1     -10.473   5.609  68.886  1.00  0.00    -0.310 A  
HETATM    9  C   UNL     1     -11.143   6.060  71.174  1.00  0.00    -0.336 A  
HETATM   10  C   UNL     1     -11.248   6.321  69.806  1.00  0.00    -0.499 A  
BRANCH   8  11
HETATM   11  C   UNL     1     -10.541   5.871  67.420  1.00  0.00    -0.282 C  
HETATM   12  O   UNL     1     -10.339   4.951  66.630  1.00  0.00    -0.244 OA 
BRANCH  11  13
HETATM   13  C   UNL     1     -10.862   7.282  66.968  1.00  0.00    -0.350 C  
BRANCH  13  14
HETATM   14  C   UNL     1      -9.611   8.150  66.872  1.00  0.00    -0.269 C  
BRANCH  14  15
HETATM   15  C   UNL     1      -9.891   9.510  66.228  1.00  0.00    -0.266 C  
BRANCH  15  16
HETATM   16  N   UNL     1      -9.450  10.687  66.992  1.00  0.00    -0.162 NA 
HETATM   17  C   UNL     1      -9.847  11.992  66.439  1.00  0.00    -0.220 C  
HETATM   18  C   UNL     1     -11.314  12.384  66.658  1.00  0.00    -0.394 C  
HETATM   19  C   UNL     1     -11.778  12.202  68.109  1.00  0.00    -0.341 C  
HETATM   20  C   UNL     1     -11.389  10.798  68.577  1.00  0.00    -0.360 C  
HETATM   21  C   UNL     1      -9.878  10.587  68.398  1.00  0.00    -0.161 C  
BRANCH  19  22
HETATM   22  O   UNL     1     -11.180  13.075  69.068  1.00  0.00    -0.254 OA 
BRANCH  22  23
HETATM   23  C   UNL     1     -11.707  14.390  69.267  1.00  0.00    -0.317 C  
BRANCH  23  24
HETATM   24  C   UNL     1     -10.653  15.371  68.750  1.00  0.00    -0.235 A  
HETATM   25  C   UNL     1     -11.016  16.574  68.114  1.00  0.00    -0.336 A  
HETATM   26  C   UNL     1     -10.045  17.471  67.661  1.00  0.00    -0.328 A  
HETATM   27  C   UNL     1      -9.288  15.089  68.902  1.00  0.00    -0.208 A  
HETATM   28  C   UNL     1      -8.694  17.177  67.835  1.00  0.00    -0.222 A  
HETATM   29  C   UNL     1      -8.317  15.986  68.450  1.00  0.00    -0.178 A  
ENDBRANCH  23  24
BRANCH  23  30
HETATM   30  C   UNL     1     -12.104  14.665  70.710  1.00  0.00    -0.387 A  
HETATM   31  C   UNL     1     -12.769  15.077  73.413  1.00  0.00    -0.654 A  
HETATM   32  C   UNL     1     -13.333  14.016  72.710  1.00  0.00    -0.603 A  
HETATM   33  C   UNL     1     -11.583  15.759  71.419  1.00  0.00    -0.511 A  
HETATM   34  C   UNL     1     -11.905  15.958  72.764  1.00  0.00    -0.583 A  
HETATM   35  C   UNL     1     -13.005  13.811  71.367  1.00  0.00    -0.433 A  
ENDBRANCH  23  30
ENDBRANCH  22  23
ENDBRANCH  19  22
ENDBRANCH  15  16
ENDBRANCH  14  15
ENDBRANCH  13  14
ENDBRANCH  11  13
ENDBRANCH   8  11
ENDBRANCH   2   5
TORSDOF 10
ENDMDL
MODEL       17
REMARK 921   NORMALIZED FREE ENERGY PREDICTED BY IDOCK:   -6.49 KCAL/MOL
REMARK 922        TOTAL FREE ENERGY PREDICTED BY IDOCK:  -13.20 KCAL/MOL
REMARK 923 INTER-LIGAND FREE ENERGY PREDICTED BY IDOCK:  -10.54 KCAL/MOL
REMARK 924 INTRA-LIGAND FREE ENERGY PREDICTED BY IDOCK:   -2.66 KCAL/MOL
REMARK 927      BINDING AFFINITY PREDICTED BY RF-SCORE:    0.00 PKD
ROOT
HETATM    1  C   UNL     1     -11.023   8.129  72.637  1.00  0.00    -0.440 C  
HETATM    2  C   UNL     1     -11.562   6.985  71.751  1.00  0.00    -0.315 C  
HETATM    3  C   UNL     1     -13.066   7.251  71.518  1.00  0.00    -0.434 C  
HETATM    4  C   UNL     1     -11.402   5.671  72.546  1.00  0.00    -0.349 C  
ENDROOT
BRANCH   2   5
HETATM    5  C   UNL     1     -10.843   6.879  70.399  1.00  0.00    -0.297 A  
HETATM    6  C   UNL     1     -11.467   6.391  69.243  1.00  0.00    -0.318 A  
HETATM    7  C   UNL     1     -10.776   6.285  68.027  1.00  0.00    -0.369 A  
HETATM    8  C   UNL     1      -9.435   6.660  67.944  1.00  0.00    -0.117 A  
HETATM    9  C   UNL     1      -9.493   7.264  70.292  1.00  0.00    -0.165 A  
HETATM   10  C   UNL     1      -8.799   7.157  69.085  1.00  0.00    -0.135 A  
BRANCH   8  11
HETATM   11  C   UNL     1      -8.725   6.511  66.641  1.00  0.00    -0.128 C  
HETATM   12  O   UNL     1      -8.872   5.481  65.985  1.00  0.00    -0.137 OA 
BRANCH  11  13
HETATM   13  C   UNL     1      -7.843   7.655  66.181  1.00  0.00    -0.096 C  
BRANCH  13  14
HETATM   14  C   UNL     1      -8.514   8.495  65.100  1.00  0.00    -0.193 C  
BRANCH  14  15
HETATM   15  C   UNL     1      -9.658   9.350  65.650  1.00  0.00    -0.274 C  
BRANCH  15  16
HETATM   16  N   UNL     1      -9.262  10.579  66.354  1.00  0.00    -0.163 NA 
HETATM   17  C   UNL     1      -9.819  11.832  65.816  1.00  0.00    -0.240 C  
HETATM   18  C   UNL     1     -11.291  12.098  66.153  1.00  0.00    -0.414 C  
HETATM   19  C   UNL     1     -11.614  11.911  67.641  1.00  0.00    -0.312 C  
HETATM   20  C   UNL     1     -11.063  10.558  68.097  1.00  0.00    -0.346 C  
HETATM   21  C   UNL     1      -9.560  10.476  67.794  1.00  0.00    -0.156 C  
BRANCH  19  22
HETATM   22  O   UNL     1     -11.019  12.856  68.531  1.00  0.00    -0.239 OA 
BRANCH  22  23
HETATM   23  C   UNL     1     -11.668  14.103  68.792  1.00  0.00    -0.345 C  
BRANCH  23  24
HETATM   24  C   UNL     1     -10.602  15.193  68.667  1.00  0.00    -0.234 A  
HETATM   25  C   UNL     1     -10.875  16.421  68.034  1.00  0.00    -0.342 A  
HETATM   26  C   UNL     1      -9.898  17.415  67.940  1.00  0.00    -0.287 A  
HETATM   27  C   UNL     1      -9.315  14.987  69.186  1.00  0.00    -0.189 A  
HETATM   28  C   UNL     1      -8.630  17.195  68.476  1.00  0.00    -0.258 A  
HETATM   29  C   UNL     1      -8.339  15.981  69.093  1.00  0.00    -0.244 A  
ENDBRANCH  23  24
BRANCH  23  30
HETATM   30  C   UNL     1     -12.383  14.137  70.136  1.00  0.00    -0.413 A  
HETATM   31  C   UNL     1     -13.811  14.215  72.559  1.00  0.00    -0.590 A  
HETATM   32  C   UNL     1     -13.621  15.382  71.824  1.00  0.00    -0.596 A  
HETATM   33  C   UNL     1     -12.541  12.980  70.914  1.00  0.00    -0.364 A  
HETATM   34  C   UNL     1     -13.259  13.016  72.112  1.00  0.00    -0.558 A  
HETATM   35  C   UNL     1     -12.910  15.346  70.621  1.00  0.00    -0.484 A  
ENDBRANCH  23  30
ENDBRANCH  22  23
ENDBRANCH  19  22
ENDBRANCH  15  16
ENDBRANCH  14  15
ENDBRANCH  13  14
ENDBRANCH  11  13
ENDBRANCH   8  11
ENDBRANCH   2   5
TORSDOF 10
ENDMDL
MODEL       18
REMARK 921   NORMALIZED FREE ENERGY PREDICTED BY IDOCK:   -6.45 KCAL/MOL
REMARK 922        TOTAL FREE ENERGY PREDICTED BY IDOCK:  -13.15 KCAL/MOL
REMARK 923 INTER-LIGAND FREE ENERGY PREDICTED BY IDOCK:  -11.52 KCAL/MOL
REMARK 924 INTRA-LIGAND FREE ENERGY PREDICTED BY IDOCK:   -1.64 KCAL/MOL
REMARK 927      BINDING AFFINITY PREDICTED BY RF-SCORE:    0.00 PKD
ROOT
HETATM    1  C   UNL     1      -9.006   4.936  69.555  1.00  0.00    -0.130 C  
HETATM    2  C   UNL     1      -9.237   5.234  71.052  1.00  0.00    -0.183 C  
HETATM    3  C   UNL     1      -7.878   5.649  71.656  1.00  0.00    -0.109 C  
HETATM    4  C   UNL     1      -9.701   3.920  71.717  1.00  0.00    -0.243 C  
ENDROOT
BRANCH   2   5
HETATM    5  C   UNL     1     -10.268   6.345  71.294  1.00  0.00    -0.232 A  
HETATM    6  C   UNL     1      -9.908   7.686  71.484  1.00  0.00    -0.192 A  
HETATM    7  C   UNL     1     -10.872   8.676  71.727  1.00  0.00    -0.395 A  
HETATM    8  C   UNL     1     -12.225   8.340  71.792  1.00  0.00    -0.367 A  
HETATM    9  C   UNL     1     -11.639   6.028  71.352  1.00  0.00    -0.211 A  
HETATM   10  C   UNL     1     -12.602   7.008  71.597  1.00  0.00    -0.419 A  
BRANCH   8  11
HETATM   11  C   UNL     1     -13.221   9.414  72.076  1.00  0.00    -0.449 C  
HETATM   12  O   UNL     1     -14.297   9.121  72.593  1.00  0.00    -0.561 OA 
BRANCH  11  13
HETATM   13  C   UNL     1     -12.849  10.837  71.708  1.00  0.00    -0.528 C  
BRANCH  13  14
HETATM   14  C   UNL     1     -13.881  11.844  72.207  1.00  0.00     0.198 C  
BRANCH  14  15
HETATM   15  C   UNL     1     -13.309  13.259  72.319  1.00  0.00    -0.533 C  
BRANCH  15  16
HETATM   16  N   UNL     1     -13.573  14.151  71.179  1.00  0.00    -0.254 NA 
HETATM   17  C   UNL     1     -13.384  15.589  71.435  1.00  0.00    -0.511 C  
HETATM   18  C   UNL     1     -11.927  16.065  71.488  1.00  0.00    -0.539 C  
HETATM   19  C   UNL     1     -11.088  15.572  70.302  1.00  0.00    -0.328 C  
HETATM   20  C   UNL     1     -11.287  14.062  70.153  1.00  0.00    -0.109 C  
HETATM   21  C   UNL     1     -12.782  13.745  70.003  1.00  0.00    -0.022 C  
BRANCH  19  22
HETATM   22  O   UNL     1     -11.439  16.105  69.026  1.00  0.00    -0.347 OA 
BRANCH  22  23
HETATM   23  C   UNL     1     -10.469  16.150  67.975  1.00  0.00    -0.281 C  
BRANCH  23  24
HETATM   24  C   UNL     1     -10.328  17.617  67.565  1.00  0.00    -0.365 A  
HETATM   25  C   UNL     1     -10.035  18.621  68.509  1.00  0.00    -0.430 A  
HETATM   26  C   UNL     1      -9.892  19.955  68.120  1.00  0.00    -0.524 A  
HETATM   27  C   UNL     1     -10.490  17.996  66.225  1.00  0.00    -0.340 A  
HETATM   28  C   UNL     1     -10.043  20.308  66.781  1.00  0.00    -0.556 A  
HETATM   29  C   UNL     1     -10.346  19.330  65.836  1.00  0.00    -0.499 A  
ENDBRANCH  23  24
BRANCH  23  30
HETATM   30  C   UNL     1     -10.815  15.246  66.800  1.00  0.00    -0.312 A  
HETATM   31  C   UNL     1     -11.515  13.672  64.576  1.00  0.00    -0.401 A  
HETATM   32  C   UNL     1     -12.479  14.011  65.521  1.00  0.00    -0.533 A  
HETATM   33  C   UNL     1      -9.845  14.854  65.865  1.00  0.00    -0.362 A  
HETATM   34  C   UNL     1     -10.194  14.081  64.755  1.00  0.00    -0.332 A  
HETATM   35  C   UNL     1     -12.133  14.791  66.627  1.00  0.00    -0.117 A  
ENDBRANCH  23  30
ENDBRANCH  22  23
ENDBRANCH  19  22
ENDBRANCH  15  16
ENDBRANCH  14  15
ENDBRANCH  13  14
ENDBRANCH  11  13
ENDBRANCH   8  11
ENDBRANCH   2   5
TORSDOF 10
ENDMDL
MODEL       19
REMARK 921   NORMALIZED FREE ENERGY PREDICTED BY IDOCK:   -6.34 KCAL/MOL
REMARK 922        TOTAL FREE ENERGY PREDICTED BY IDOCK:  -12.97 KCAL/MOL
REMARK 923 INTER-LIGAND FREE ENERGY PREDICTED BY IDOCK:  -10.11 KCAL/MOL
REMARK 924 INTRA-LIGAND FREE ENERGY PREDICTED BY IDOCK:   -2.86 KCAL/MOL
REMARK 927      BINDING AFFINITY PREDICTED BY RF-SCORE:    0.00 PKD
ROOT
HETATM    1  C   UNL     1     -12.929   7.330  71.435  1.00  0.00    -0.420 C  
HETATM    2  C   UNL     1     -11.518   6.735  71.630  1.00  0.00    -0.322 C  
HETATM    3  C   UNL     1     -11.615   5.671  72.746  1.00  0.00    -0.289 C  
HETATM    4  C   UNL     1     -10.597   7.879  72.105  1.00  0.00    -0.312 C  
ENDROOT
BRANCH   2   5
HETATM    5  C   UNL     1     -10.954   6.093  70.355  1.00  0.00    -0.404 A  
HETATM    6  C   UNL     1     -10.015   5.051  70.381  1.00  0.00    -0.317 A  
HETATM    7  C   UNL     1      -9.500   4.500  69.198  1.00  0.00    -0.233 A  
HETATM    8  C   UNL     1      -9.910   4.988  67.956  1.00  0.00    -0.202 A  
HETATM    9  C   UNL     1     -11.364   6.563  69.093  1.00  0.00    -0.330 A  
HETATM   10  C   UNL     1     -10.852   6.020  67.913  1.00  0.00    -0.378 A  
BRANCH   8  11
HETATM   11  C   UNL     1      -9.324   4.395  66.720  1.00  0.00    -0.162 C  
HETATM   12  O   UNL     1      -9.445   3.190  66.509  1.00  0.00    -0.144 OA 
BRANCH  11  13
HETATM   13  C   UNL     1      -8.596   5.324  65.768  1.00  0.00    -0.139 C  
BRANCH  13  14
HETATM   14  C   UNL     1      -7.527   6.148  66.479  1.00  0.00    -0.086 C  
BRANCH  14  15
HETATM   15  C   UNL     1      -7.190   7.439  65.730  1.00  0.00    -0.066 C  
BRANCH  15  16
HETATM   16  N   UNL     1      -7.354   8.687  66.492  1.00  0.00    -0.080 NA 
HETATM   17  C   UNL     1      -7.206   9.931  65.720  1.00  0.00    -0.110 C  
HETATM   18  C   UNL     1      -8.400  10.302  64.831  1.00  0.00    -0.173 C  
HETATM   19  C   UNL     1      -9.745  10.231  65.564  1.00  0.00    -0.265 C  
HETATM   20  C   UNL     1      -9.844   8.880  66.278  1.00  0.00    -0.355 C  
HETATM   21  C   UNL     1      -8.640   8.694  67.212  1.00  0.00    -0.125 C  
BRANCH  19  22
HETATM   22  O   UNL     1      -9.944  11.195  66.597  1.00  0.00    -0.197 OA 
BRANCH  22  23
HETATM   23  C   UNL     1     -11.235  11.776  66.799  1.00  0.00    -0.328 C  
BRANCH  23  24
HETATM   24  C   UNL     1     -11.246  13.106  66.043  1.00  0.00    -0.316 A  
HETATM   25  C   UNL     1     -10.149  13.989  66.091  1.00  0.00    -0.319 A  
HETATM   26  C   UNL     1     -10.164  15.193  65.383  1.00  0.00    -0.402 A  
HETATM   27  C   UNL     1     -12.361  13.476  65.278  1.00  0.00    -0.506 A  
HETATM   28  C   UNL     1     -11.277  15.536  64.618  1.00  0.00    -0.381 A  
HETATM   29  C   UNL     1     -12.375  14.681  64.570  1.00  0.00    -0.416 A  
ENDBRANCH  23  24
BRANCH  23  30
HETATM   30  C   UNL     1     -11.598  11.937  68.268  1.00  0.00    -0.390 A  
HETATM   31  C   UNL     1     -12.386  12.262  70.950  1.00  0.00    -0.363 A  
HETATM   32  C   UNL     1     -12.227  13.376  70.129  1.00  0.00    -0.385 A  
HETATM   33  C   UNL     1     -11.714  10.829  69.122  1.00  0.00    -0.368 A  
HETATM   34  C   UNL     1     -12.115  10.989  70.451  1.00  0.00    -0.463 A  
HETATM   35  C   UNL     1     -11.834  13.216  68.798  1.00  0.00    -0.361 A  
ENDBRANCH  23  30
ENDBRANCH  22  23
ENDBRANCH  19  22
ENDBRANCH  15  16
ENDBRANCH  14  15
ENDBRANCH  13  14
ENDBRANCH  11  13
ENDBRANCH   8  11
ENDBRANCH   2   5
TORSDOF 10
ENDMDL
MODEL       20
REMARK 921   NORMALIZED FREE ENERGY PREDICTED BY IDOCK:   -6.33 KCAL/MOL
REMARK 922        TOTAL FREE ENERGY PREDICTED BY IDOCK:  -12.96 KCAL/MOL
REMARK 923 INTER-LIGAND FREE ENERGY PREDICTED BY IDOCK:  -10.39 KCAL/MOL
REMARK 924 INTRA-LIGAND FREE ENERGY PREDICTED BY IDOCK:   -2.57 KCAL/MOL
REMARK 927      BINDING AFFINITY PREDICTED BY RF-SCORE:    0.00 PKD
ROOT
HETATM    1  C   UNL     1     -11.535   7.207  70.743  1.00  0.00    -0.342 C  
HETATM    2  C   UNL     1     -11.108   8.691  70.691  1.00  0.00    -0.282 C  
HETATM    3  C   UNL     1     -10.071   8.913  71.813  1.00  0.00    -0.407 C  
HETATM    4  C   UNL     1     -12.361   9.542  70.990  1.00  0.00    -0.363 C  
ENDROOT
BRANCH   2   5
HETATM    5  C   UNL     1     -10.500   9.095  69.341  1.00  0.00    -0.226 A  
HETATM    6  C   UNL     1     -10.082  10.404  69.058  1.00  0.00    -0.227 A  
HETATM    7  C   UNL     1      -9.551  10.748  67.807  1.00  0.00    -0.176 A  
HETATM    8  C   UNL     1      -9.433   9.786  66.802  1.00  0.00    -0.209 A  
HETATM    9  C   UNL     1     -10.361   8.137  68.319  1.00  0.00    -0.241 A  
HETATM   10  C   UNL     1      -9.837   8.475  67.071  1.00  0.00    -0.289 A  
BRANCH   8  11
HETATM   11  C   UNL     1      -8.887  10.194  65.476  1.00  0.00    -0.169 C  
HETATM   12  O   UNL     1      -7.747  10.647  65.403  1.00  0.00    -0.133 OA 
BRANCH  11  13
HETATM   13  C   UNL     1      -9.780  10.025  64.262  1.00  0.00    -0.242 C  
BRANCH  13  14
HETATM   14  C   UNL     1     -10.218  11.367  63.684  1.00  0.00    -0.448 C  
BRANCH  14  15
HETATM   15  C   UNL     1     -11.543  11.854  64.275  1.00  0.00    -0.324 C  
BRANCH  15  16
HETATM   16  N   UNL     1     -11.676  13.308  64.446  1.00  0.00    -0.369 NA 
HETATM   17  C   UNL     1     -12.620  13.746  65.487  1.00  0.00    -0.512 C  
HETATM   18  C   UNL     1     -12.122  13.609  66.931  1.00  0.00    -0.431 C  
HETATM   19  C   UNL     1     -10.717  14.187  67.142  1.00  0.00    -0.280 C  
HETATM   20  C   UNL     1      -9.787  13.625  66.063  1.00  0.00    -0.290 C  
HETATM   21  C   UNL     1     -10.359  13.930  64.671  1.00  0.00    -0.339 C  
BRANCH  19  22
HETATM   22  O   UNL     1     -10.599  15.604  67.011  1.00  0.00    -0.302 OA 
BRANCH  22  23
HETATM   23  C   UNL     1      -9.894  16.359  67.999  1.00  0.00    -0.238 C  
BRANCH  23  24
HETATM   24  C   UNL     1      -9.972  17.826  67.574  1.00  0.00    -0.324 A  
HETATM   25  C   UNL     1      -9.715  18.872  68.482  1.00  0.00    -0.441 A  
HETATM   26  C   UNL     1      -9.773  20.208  68.078  1.00  0.00    -0.464 A  
HETATM   27  C   UNL     1     -10.305  18.164  66.254  1.00  0.00    -0.407 A  
HETATM   28  C   UNL     1     -10.092  20.520  66.758  1.00  0.00    -0.359 A  
HETATM   29  C   UNL     1     -10.363  19.500  65.850  1.00  0.00    -0.562 A  
ENDBRANCH  23  24
BRANCH  23  30
HETATM   30  C   UNL     1      -8.462  15.887  68.207  1.00  0.00    -0.170 A  
HETATM   31  C   UNL     1      -5.851  14.899  68.562  1.00  0.00    -0.097 A  
HETATM   32  C   UNL     1      -6.836  14.621  69.506  1.00  0.00    -0.165 A  
HETATM   33  C   UNL     1      -7.445  16.199  67.291  1.00  0.00    -0.219 A  
HETATM   34  C   UNL     1      -6.151  15.700  67.461  1.00  0.00    -0.143 A  
HETATM   35  C   UNL     1      -8.133  15.112  69.332  1.00  0.00    -0.200 A  
ENDBRANCH  23  30
ENDBRANCH  22  23
ENDBRANCH  19  22
ENDBRANCH  15  16
ENDBRANCH  14  15
ENDBRANCH  13  14
ENDBRANCH  11  13
ENDBRANCH   8  11
ENDBRANCH   2   5
TORSDOF 10
ENDMDL
MODEL       21
REMARK 921   NORMALIZED FREE ENERGY PREDICTED BY IDOCK:   -6.32 KCAL/MOL
REMARK 922        TOTAL FREE ENERGY PREDICTED BY IDOCK:  -12.94 KCAL/MOL
REMARK 923 INTER-LIGAND FREE ENERGY PREDICTED BY IDOCK:  -10.81 KCAL/MOL
REMARK 924 INTRA-LIGAND FREE ENERGY PREDICTED BY IDOCK:   -2.13 KCAL/MOL
REMARK 927      BINDING AFFINITY PREDICTED BY RF-SCORE:    0.00 PKD
ROOT
HETATM    1  C   UNL     1     -10.093  18.984  68.742  1.00  0.00    -0.429 C  
HETATM    2  C   UNL     1      -9.543  18.437  67.407  1.00  0.00    -0.292 C  
HETATM    3  C   UNL     1      -8.029  18.191  67.597  1.00  0.00    -0.233 C  
HETATM    4  C   UNL     1      -9.743  19.536  66.341  1.00  0.00    -0.485 C  
ENDROOT
BRANCH   2   5
HETATM    5  C   UNL     1     -10.223  17.135  66.962  1.00  0.00    -0.313 A  
HETATM    6  C   UNL     1     -10.812  16.239  67.866  1.00  0.00    -0.330 A  
HETATM    7  C   UNL     1     -11.405  15.045  67.431  1.00  0.00    -0.338 A  
HETATM    8  C   UNL     1     -11.416  14.716  66.075  1.00  0.00    -0.332 A  
HETATM    9  C   UNL     1     -10.254  16.791  65.597  1.00  0.00    -0.258 A  
HETATM   10  C   UNL     1     -10.840  15.603  65.160  1.00  0.00    -0.448 A  
BRANCH   8  11
HETATM   11  C   UNL     1     -12.034  13.427  65.651  1.00  0.00    -0.401 C  
HETATM   12  O   UNL     1     -12.959  13.436  64.841  1.00  0.00    -0.717 OA 
BRANCH  11  13
HETATM   13  C   UNL     1     -11.481  12.148  66.249  1.00  0.00    -0.433 C  
BRANCH  13  14
HETATM   14  C   UNL     1      -9.981  12.006  66.008  1.00  0.00    -0.258 C  
BRANCH  14  15
HETATM   15  C   UNL     1      -9.376  10.825  66.772  1.00  0.00    -0.161 C  
BRANCH  15  16
HETATM   16  N   UNL     1     -10.259  10.171  67.750  1.00  0.00    -0.180 NA 
HETATM   17  C   UNL     1     -10.274   8.700  67.714  1.00  0.00    -0.225 C  
HETATM   18  C   UNL     1      -9.053   8.012  68.336  1.00  0.00    -0.136 C  
HETATM   19  C   UNL     1      -8.697   8.554  69.726  1.00  0.00    -0.132 C  
HETATM   20  C   UNL     1      -8.633  10.082  69.655  1.00  0.00    -0.198 C  
HETATM   21  C   UNL     1      -9.960  10.636  69.116  1.00  0.00    -0.211 C  
BRANCH  19  22
HETATM   22  O   UNL     1      -9.642   8.285  70.761  1.00  0.00    -0.166 OA 
BRANCH  22  23
HETATM   23  C   UNL     1     -10.607   7.242  70.597  1.00  0.00    -0.226 C  
BRANCH  23  24
HETATM   24  C   UNL     1     -11.930   7.772  71.155  1.00  0.00    -0.312 A  
HETATM   25  C   UNL     1     -12.021   9.043  71.755  1.00  0.00    -0.438 A  
HETATM   26  C   UNL     1     -13.237   9.522  72.246  1.00  0.00    -0.507 A  
HETATM   27  C   UNL     1     -13.093   6.990  71.081  1.00  0.00    -0.260 A  
HETATM   28  C   UNL     1     -14.383   8.736  72.149  1.00  0.00    -0.481 A  
HETATM   29  C   UNL     1     -14.309   7.470  71.572  1.00  0.00    -0.603 A  
ENDBRANCH  23  24
BRANCH  23  30
HETATM   30  C   UNL     1     -10.187   5.929  71.241  1.00  0.00    -0.262 A  
HETATM   31  C   UNL     1      -9.298   3.512  72.376  1.00  0.00    -0.167 A  
HETATM   32  C   UNL     1      -9.594   3.577  71.017  1.00  0.00    -0.243 A  
HETATM   33  C   UNL     1      -9.932   5.833  72.618  1.00  0.00    -0.198 A  
HETATM   34  C   UNL     1      -9.481   4.637  73.180  1.00  0.00    -0.140 A  
HETATM   35  C   UNL     1     -10.038   4.775  70.452  1.00  0.00    -0.301 A  
ENDBRANCH  23  30
ENDBRANCH  22  23
ENDBRANCH  19  22
ENDBRANCH  15  16
ENDBRANCH  14  15
ENDBRANCH  13  14
ENDBRANCH  11  13
ENDBRANCH   8  11
ENDBRANCH   2   5
TORSDOF 10
ENDMDL
MODEL       22
REMARK 921   NORMALIZED FREE ENERGY PREDICTED BY IDOCK:   -6.26 KCAL/MOL
REMARK 922        TOTAL FREE ENERGY PREDICTED BY IDOCK:  -12.84 KCAL/MOL
REMARK 923 INTER-LIGAND FREE ENERGY PREDICTED BY IDOCK:  -10.71 KCAL/MOL
REMARK 924 INTRA-LIGAND FREE ENERGY PREDICTED BY IDOCK:   -2.13 KCAL/MOL
REMARK 927      BINDING AFFINITY PREDICTED BY RF-SCORE:    0.00 PKD
ROOT
HETATM    1  C   UNL     1     -10.310   4.419  65.511  1.00  0.00    -0.247 C  
HETATM    2  C   UNL     1      -9.275   4.044  66.594  1.00  0.00    -0.173 C  
HETATM    3  C   UNL     1      -7.941   4.721  66.212  1.00  0.00    -0.103 C  
HETATM    4  C   UNL     1      -9.093   2.512  66.545  1.00  0.00    -0.111 C  
ENDROOT
BRANCH   2   5
HETATM    5  C   UNL     1      -9.691   4.486  68.004  1.00  0.00    -0.192 A  
HETATM    6  C   UNL     1      -9.315   3.787  69.160  1.00  0.00    -0.243 A  
HETATM    7  C   UNL     1      -9.730   4.203  70.434  1.00  0.00    -0.271 A  
HETATM    8  C   UNL     1     -10.542   5.329  70.578  1.00  0.00    -0.272 A  
HETATM    9  C   UNL     1     -10.500   5.626  68.171  1.00  0.00    -0.260 A  
HETATM   10  C   UNL     1     -10.919   6.042  69.436  1.00  0.00    -0.455 A  
BRANCH   8  11
HETATM   11  C   UNL     1     -10.985   5.728  71.945  1.00  0.00    -0.259 C  
HETATM   12  O   UNL     1     -10.605   5.079  72.918  1.00  0.00    -0.200 OA 
BRANCH  11  13
HETATM   13  C   UNL     1     -11.895   6.933  72.069  1.00  0.00    -0.345 C  
BRANCH  13  14
HETATM   14  C   UNL     1     -11.178   8.131  72.684  1.00  0.00    -0.447 C  
BRANCH  14  15
HETATM   15  C   UNL     1     -10.719   9.141  71.630  1.00  0.00    -0.371 C  
BRANCH  15  16
HETATM   16  N   UNL     1     -11.643   9.364  70.507  1.00  0.00    -0.259 NA 
HETATM   17  C   UNL     1     -12.695  10.368  70.735  1.00  0.00    -0.371 C  
HETATM   18  C   UNL     1     -12.238  11.831  70.667  1.00  0.00    -0.443 C  
HETATM   19  C   UNL     1     -11.398  12.144  69.423  1.00  0.00    -0.245 C  
HETATM   20  C   UNL     1     -10.289  11.096  69.303  1.00  0.00    -0.148 C  
HETATM   21  C   UNL     1     -10.900   9.688  69.276  1.00  0.00    -0.205 C  
BRANCH  19  22
HETATM   22  O   UNL     1     -12.086  12.078  68.173  1.00  0.00    -0.480 OA 
BRANCH  22  23
HETATM   23  C   UNL     1     -12.108  13.215  67.306  1.00  0.00    -0.274 C  
BRANCH  23  24
HETATM   24  C   UNL     1     -11.668  12.726  65.925  1.00  0.00    -0.464 A  
HETATM   25  C   UNL     1     -10.723  11.691  65.775  1.00  0.00    -0.331 A  
HETATM   26  C   UNL     1     -10.342  11.243  64.509  1.00  0.00    -0.381 A  
HETATM   27  C   UNL     1     -12.203  13.306  64.765  1.00  0.00    -0.466 A  
HETATM   28  C   UNL     1     -10.897  11.823  63.370  1.00  0.00    -0.460 A  
HETATM   29  C   UNL     1     -11.822  12.856  63.499  1.00  0.00    -0.605 A  
ENDBRANCH  23  24
BRANCH  23  30
HETATM   30  C   UNL     1     -11.259  14.372  67.812  1.00  0.00    -0.316 A  
HETATM   31  C   UNL     1      -9.687  16.458  68.860  1.00  0.00    -0.257 A  
HETATM   32  C   UNL     1     -11.029  16.351  69.214  1.00  0.00    -0.322 A  
HETATM   33  C   UNL     1      -9.917  14.524  67.428  1.00  0.00    -0.227 A  
HETATM   34  C   UNL     1      -9.134  15.553  67.955  1.00  0.00    -0.182 A  
HETATM   35  C   UNL     1     -11.812  15.318  68.693  1.00  0.00    -0.329 A  
ENDBRANCH  23  30
ENDBRANCH  22  23
ENDBRANCH  19  22
ENDBRANCH  15  16
ENDBRANCH  14  15
ENDBRANCH  13  14
ENDBRANCH  11  13
ENDBRANCH   8  11
ENDBRANCH   2   5
TORSDOF 10
ENDMDL
MODEL       23
REMARK 921   NORMALIZED FREE ENERGY PREDICTED BY IDOCK:   -6.25 KCAL/MOL
REMARK 922        TOTAL FREE ENERGY PREDICTED BY IDOCK:  -12.84 KCAL/MOL
REMARK 923 INTER-LIGAND FREE ENERGY PREDICTED BY IDOCK:  -11.14 KCAL/MOL
REMARK 924 INTRA-LIGAND FREE ENERGY PREDICTED BY IDOCK:   -1.70 KCAL/MOL
REMARK 927      BINDING AFFINITY PREDICTED BY RF-SCORE:    0.00 PKD
ROOT
HETATM    1  C   UNL     1      -8.620  17.504  67.916  1.00  0.00    -0.239 C  
HETATM    2  C   UNL     1     -10.152  17.315  67.930  1.00  0.00    -0.317 C  
HETATM    3  C   UNL     1     -10.786  18.646  67.469  1.00  0.00    -0.447 C  
HETATM    4  C   UNL     1     -10.569  17.040  69.391  1.00  0.00    -0.236 C  
ENDROOT
BRANCH   2   5
HETATM    5  C   UNL     1     -10.628  16.176  67.018  1.00  0.00    -0.292 A  
HETATM    6  C   UNL     1     -10.246  16.071  65.672  1.00  0.00    -0.412 A  
HETATM    7  C   UNL     1     -10.717  15.031  64.857  1.00  0.00    -0.420 A  
HETATM    8  C   UNL     1     -11.590  14.072  65.372  1.00  0.00    -0.329 A  
HETATM    9  C   UNL     1     -11.500  15.193  67.521  1.00  0.00    -0.306 A  
HETATM   10  C   UNL     1     -11.974  14.158  66.713  1.00  0.00    -0.475 A  
BRANCH   8  11
HETATM   11  C   UNL     1     -12.090  12.995  64.470  1.00  0.00    -0.410 C  
HETATM   12  O   UNL     1     -13.282  12.698  64.483  1.00  0.00    -0.783 OA 
BRANCH  11  13
HETATM   13  C   UNL     1     -11.085  12.309  63.566  1.00  0.00    -0.533 C  
BRANCH  13  14
HETATM   14  C   UNL     1     -10.587  10.994  64.158  1.00  0.00    -0.412 C  
BRANCH  14  15
HETATM   15  C   UNL     1      -9.323  11.174  65.001  1.00  0.00    -0.207 C  
BRANCH  15  16
HETATM   16  N   UNL     1      -9.536  11.499  66.420  1.00  0.00    -0.206 NA 
HETATM   17  C   UNL     1     -10.690  10.846  67.059  1.00  0.00    -0.271 C  
HETATM   18  C   UNL     1     -10.500   9.366  67.412  1.00  0.00    -0.343 C  
HETATM   19  C   UNL     1      -9.189   9.087  68.159  1.00  0.00    -0.136 C  
HETATM   20  C   UNL     1      -8.037   9.739  67.391  1.00  0.00    -0.114 C  
HETATM   21  C   UNL     1      -8.316  11.238  67.205  1.00  0.00    -0.151 C  
BRANCH  19  22
HETATM   22  O   UNL     1      -9.094   9.634  69.475  1.00  0.00    -0.170 OA 
BRANCH  22  23
HETATM   23  C   UNL     1      -9.603   8.903  70.594  1.00  0.00    -0.215 C  
BRANCH  23  24
HETATM   24  C   UNL     1      -9.580   7.424  70.204  1.00  0.00    -0.165 A  
HETATM   25  C   UNL     1     -10.734   6.768  69.731  1.00  0.00    -0.288 A  
HETATM   26  C   UNL     1     -10.696   5.421  69.363  1.00  0.00    -0.226 A  
HETATM   27  C   UNL     1      -8.395   6.681  70.313  1.00  0.00    -0.134 A  
HETATM   28  C   UNL     1      -9.505   4.706  69.465  1.00  0.00    -0.236 A  
HETATM   29  C   UNL     1      -8.358   5.335  69.944  1.00  0.00    -0.094 A  
ENDBRANCH  23  24
BRANCH  23  30
HETATM   30  C   UNL     1     -10.983   9.368  71.036  1.00  0.00    -0.409 A  
HETATM   31  C   UNL     1     -13.488  10.250  71.967  1.00  0.00    -0.385 A  
HETATM   32  C   UNL     1     -12.990   9.014  72.370  1.00  0.00    -0.471 A  
HETATM   33  C   UNL     1     -11.522  10.589  70.601  1.00  0.00    -0.418 A  
HETATM   34  C   UNL     1     -12.760  11.032  71.071  1.00  0.00    -0.485 A  
HETATM   35  C   UNL     1     -11.748   8.573  71.907  1.00  0.00    -0.409 A  
ENDBRANCH  23  30
ENDBRANCH  22  23
ENDBRANCH  19  22
ENDBRANCH  15  16
ENDBRANCH  14  15
ENDBRANCH  13  14
ENDBRANCH  11  13
ENDBRANCH   8  11
ENDBRANCH   2   5
TORSDOF 10
ENDMDL
MODEL       24
REMARK 921   NORMALIZED FREE ENERGY PREDICTED BY IDOCK:   -6.24 KCAL/MOL
REMARK 922        TOTAL FREE ENERGY PREDICTED BY IDOCK:  -12.81 KCAL/MOL
REMARK 923 INTER-LIGAND FREE ENERGY PREDICTED BY IDOCK:  -10.78 KCAL/MOL
REMARK 924 INTRA-LIGAND FREE ENERGY PREDICTED BY IDOCK:   -2.04 KCAL/MOL
REMARK 927      BINDING AFFINITY PREDICTED BY RF-SCORE:    0.00 PKD
ROOT
HETATM    1  C   UNL     1      -8.754   5.863  69.435  1.00  0.00    -0.116 C  
HETATM    2  C   UNL     1      -9.765   5.843  68.268  1.00  0.00    -0.147 C  
HETATM    3  C   UNL     1     -11.156   6.166  68.857  1.00  0.00    -0.417 C  
HETATM    4  C   UNL     1      -9.782   4.409  67.697  1.00  0.00    -0.198 C  
ENDROOT
BRANCH   2   5
HETATM    5  C   UNL     1      -9.428   6.852  67.162  1.00  0.00    -0.168 A  
HETATM    6  C   UNL     1      -8.394   6.650  66.238  1.00  0.00    -0.125 A  
HETATM    7  C   UNL     1      -8.095   7.602  65.252  1.00  0.00    -0.133 A  
HETATM    8  C   UNL     1      -8.825   8.789  65.175  1.00  0.00    -0.177 A  
HETATM    9  C   UNL     1     -10.162   8.050  67.059  1.00  0.00    -0.374 A  
HETATM   10  C   UNL     1      -9.866   9.003  66.083  1.00  0.00    -0.349 A  
BRANCH   8  11
HETATM   11  C   UNL     1      -8.464   9.790  64.130  1.00  0.00    -0.177 C  
HETATM   12  O   UNL     1      -7.316  10.226  64.080  1.00  0.00    -0.133 OA 
BRANCH  11  13
HETATM   13  C   UNL     1      -9.549  10.227  63.165  1.00  0.00    -0.295 C  
BRANCH  13  14
HETATM   14  C   UNL     1      -9.789  11.732  63.218  1.00  0.00    -0.402 C  
BRANCH  14  15
HETATM   15  C   UNL     1     -11.027  12.098  64.040  1.00  0.00    -0.380 C  
BRANCH  15  16
HETATM   16  N   UNL     1     -10.838  12.159  65.497  1.00  0.00    -0.274 NA 
HETATM   17  C   UNL     1      -9.832  13.124  65.971  1.00  0.00    -0.260 C  
HETATM   18  C   UNL     1     -10.267  14.595  65.952  1.00  0.00    -0.344 C  
HETATM   19  C   UNL     1     -11.641  14.826  66.595  1.00  0.00    -0.313 C  
HETATM   20  C   UNL     1     -12.637  13.831  65.995  1.00  0.00    -0.458 C  
HETATM   21  C   UNL     1     -12.121  12.398  66.181  1.00  0.00    -0.220 C  
BRANCH  19  22
HETATM   22  O   UNL     1     -11.716  14.601  68.002  1.00  0.00    -0.330 OA 
BRANCH  22  23
HETATM   23  C   UNL     1     -11.738  15.709  68.906  1.00  0.00    -0.384 C  
BRANCH  23  24
HETATM   24  C   UNL     1     -10.346  16.343  68.863  1.00  0.00    -0.270 A  
HETATM   25  C   UNL     1     -10.159  17.681  68.466  1.00  0.00    -0.375 A  
HETATM   26  C   UNL     1      -8.885  18.255  68.446  1.00  0.00    -0.321 A  
HETATM   27  C   UNL     1      -9.216  15.594  69.222  1.00  0.00    -0.269 A  
HETATM   28  C   UNL     1      -7.777  17.497  68.821  1.00  0.00    -0.252 A  
HETATM   29  C   UNL     1      -7.943  16.168  69.203  1.00  0.00    -0.233 A  
ENDBRANCH  23  24
BRANCH  23  30
HETATM   30  C   UNL     1     -12.161  15.324  70.317  1.00  0.00    -0.388 A  
HETATM   31  C   UNL     1     -13.015  14.714  72.928  1.00  0.00    -0.592 A  
HETATM   32  C   UNL     1     -12.132  15.769  72.712  1.00  0.00    -0.596 A  
HETATM   33  C   UNL     1     -13.010  14.233  70.558  1.00  0.00    -0.259 A  
HETATM   34  C   UNL     1     -13.443  13.936  71.853  1.00  0.00    -0.511 A  
HETATM   35  C   UNL     1     -11.706  16.072  71.416  1.00  0.00    -0.536 A  
ENDBRANCH  23  30
ENDBRANCH  22  23
ENDBRANCH  19  22
ENDBRANCH  15  16
ENDBRANCH  14  15
ENDBRANCH  13  14
ENDBRANCH  11  13
ENDBRANCH   8  11
ENDBRANCH   2   5
TORSDOF 10
ENDMDL
MODEL       25
REMARK 921   NORMALIZED FREE ENERGY PREDICTED BY IDOCK:   -6.20 KCAL/MOL
REMARK 922        TOTAL FREE ENERGY PREDICTED BY IDOCK:  -12.76 KCAL/MOL
REMARK 923 INTER-LIGAND FREE ENERGY PREDICTED BY IDOCK:  -10.00 KCAL/MOL
REMARK 924 INTRA-LIGAND FREE ENERGY PREDICTED BY IDOCK:   -2.76 KCAL/MOL
REMARK 927      BINDING AFFINITY PREDICTED BY RF-SCORE:    0.00 PKD
ROOT
HETATM    1  C   UNL     1     -12.871   6.807  71.797  1.00  0.00    -0.307 C  
HETATM    2  C   UNL     1     -11.851   7.966  71.799  1.00  0.00    -0.333 C  
HETATM    3  C   UNL     1     -10.934   7.773  73.028  1.00  0.00    -0.442 C  
HETATM    4  C   UNL     1     -12.645   9.279  71.967  1.00  0.00    -0.465 C  
ENDROOT
BRANCH   2   5
HETATM    5  C   UNL     1     -10.997   8.020  70.525  1.00  0.00    -0.247 A  
HETATM    6  C   UNL     1     -10.047   9.023  70.289  1.00  0.00    -0.232 A  
HETATM    7  C   UNL     1      -9.298   9.059  69.104  1.00  0.00    -0.148 A  
HETATM    8  C   UNL     1      -9.491   8.089  68.119  1.00  0.00    -0.152 A  
HETATM    9  C   UNL     1     -11.169   7.043  69.525  1.00  0.00    -0.185 A  
HETATM   10  C   UNL     1     -10.429   7.076  68.342  1.00  0.00    -0.231 A  
BRANCH   8  11
HETATM   11  C   UNL     1      -8.695   8.172  66.861  1.00  0.00    -0.129 C  
HETATM   12  O   UNL     1      -7.502   7.877  66.878  1.00  0.00    -0.088 OA 
BRANCH  11  13
HETATM   13  C   UNL     1      -9.410   8.622  65.601  1.00  0.00    -0.173 C  
BRANCH  13  14
HETATM   14  C   UNL     1      -8.778   9.875  65.003  1.00  0.00    -0.196 C  
BRANCH  14  15
HETATM   15  C   UNL     1      -8.513  10.955  66.055  1.00  0.00    -0.167 C  
BRANCH  15  16
HETATM   16  N   UNL     1      -9.404  12.125  66.015  1.00  0.00    -0.210 NA 
HETATM   17  C   UNL     1     -10.834  11.847  66.230  1.00  0.00    -0.282 C  
HETATM   18  C   UNL     1     -11.241  11.570  67.683  1.00  0.00    -0.343 C  
HETATM   19  C   UNL     1     -10.697  12.609  68.671  1.00  0.00    -0.242 C  
HETATM   20  C   UNL     1      -9.196  12.782  68.425  1.00  0.00    -0.136 C  
HETATM   21  C   UNL     1      -8.948  13.161  66.958  1.00  0.00    -0.228 C  
BRANCH  19  22
HETATM   22  O   UNL     1     -11.232  13.926  68.549  1.00  0.00    -0.244 OA 
BRANCH  22  23
HETATM   23  C   UNL     1     -10.743  14.980  69.383  1.00  0.00    -0.261 C  
BRANCH  23  24
HETATM   24  C   UNL     1     -11.742  15.134  70.532  1.00  0.00    -0.344 A  
HETATM   25  C   UNL     1     -13.132  15.127  70.306  1.00  0.00    -0.138 A  
HETATM   26  C   UNL     1     -14.034  15.253  71.365  1.00  0.00    -0.601 A  
HETATM   27  C   UNL     1     -11.286  15.289  71.850  1.00  0.00    -0.447 A  
HETATM   28  C   UNL     1     -13.560  15.390  72.668  1.00  0.00    -0.641 A  
HETATM   29  C   UNL     1     -12.189  15.413  72.908  1.00  0.00    -0.529 A  
ENDBRANCH  23  24
BRANCH  23  30
HETATM   30  C   UNL     1     -10.513  16.283  68.631  1.00  0.00    -0.282 A  
HETATM   31  C   UNL     1     -10.209  18.697  67.217  1.00  0.00    -0.413 A  
HETATM   32  C   UNL     1     -10.451  17.511  66.529  1.00  0.00    -0.270 A  
HETATM   33  C   UNL     1     -10.219  17.479  69.306  1.00  0.00    -0.180 A  
HETATM   34  C   UNL     1     -10.078  18.679  68.605  1.00  0.00    -0.412 A  
HETATM   35  C   UNL     1     -10.600  16.311  67.229  1.00  0.00    -0.298 A  
ENDBRANCH  23  30
ENDBRANCH  22  23
ENDBRANCH  19  22
ENDBRANCH  15  16
ENDBRANCH  14  15
ENDBRANCH  13  14
ENDBRANCH  11  13
ENDBRANCH   8  11
ENDBRANCH   2   5
TORSDOF 10
ENDMDL
MODEL       26
REMARK 921   NORMALIZED FREE ENERGY PREDICTED BY IDOCK:   -6.20 KCAL/MOL
REMARK 922        TOTAL FREE ENERGY PREDICTED BY IDOCK:  -12.76 KCAL/MOL
REMARK 923 INTER-LIGAND FREE ENERGY PREDICTED BY IDOCK:  -10.12 KCAL/MOL
REMARK 924 INTRA-LIGAND FREE ENERGY PREDICTED BY IDOCK:   -2.63 KCAL/MOL
REMARK 927      BINDING AFFINITY PREDICTED BY RF-SCORE:    0.00 PKD
ROOT
HETATM    1  C   UNL     1     -10.614  14.420  64.887  1.00  0.00    -0.456 C  
HETATM    2  C   UNL     1     -11.307  13.045  64.777  1.00  0.00    -0.348 C  
HETATM    3  C   UNL     1     -12.273  13.109  63.573  1.00  0.00    -0.552 C  
HETATM    4  C   UNL     1     -12.128  12.838  66.068  1.00  0.00    -0.458 C  
ENDROOT
BRANCH   2   5
HETATM    5  C   UNL     1     -10.320  11.886  64.583  1.00  0.00    -0.326 A  
HETATM    6  C   UNL     1      -9.425  11.475  65.581  1.00  0.00    -0.244 A  
HETATM    7  C   UNL     1      -8.518  10.427  65.365  1.00  0.00    -0.173 A  
HETATM    8  C   UNL     1      -8.481   9.769  64.134  1.00  0.00    -0.182 A  
HETATM    9  C   UNL     1     -10.276  11.202  63.353  1.00  0.00    -0.435 A  
HETATM   10  C   UNL     1      -9.372  10.161  63.131  1.00  0.00    -0.333 A  
BRANCH   8  11
HETATM   11  C   UNL     1      -7.487   8.677  63.932  1.00  0.00    -0.116 C  
HETATM   12  O   UNL     1      -6.295   8.955  63.813  1.00  0.00    -0.086 OA 
BRANCH  11  13
HETATM   13  C   UNL     1      -8.003   7.252  63.882  1.00  0.00    -0.078 C  
BRANCH  13  14
HETATM   14  C   UNL     1      -7.486   6.416  65.048  1.00  0.00    -0.084 C  
BRANCH  14  15
HETATM   15  C   UNL     1      -8.604   5.988  66.002  1.00  0.00    -0.147 C  
BRANCH  15  16
HETATM   16  N   UNL     1      -9.544   7.045  66.406  1.00  0.00    -0.142 NA 
HETATM   17  C   UNL     1     -10.878   6.588  66.826  1.00  0.00    -0.275 C  
HETATM   18  C   UNL     1     -10.953   5.968  68.227  1.00  0.00    -0.347 C  
HETATM   19  C   UNL     1     -10.267   6.821  69.302  1.00  0.00    -0.181 C  
HETATM   20  C   UNL     1      -8.864   7.190  68.814  1.00  0.00    -0.130 C  
HETATM   21  C   UNL     1      -8.953   7.897  67.454  1.00  0.00    -0.127 C  
BRANCH  19  22
HETATM   22  O   UNL     1     -10.885   8.074  69.592  1.00  0.00    -0.240 OA 
BRANCH  22  23
HETATM   23  C   UNL     1     -11.541   8.277  70.847  1.00  0.00    -0.262 C  
BRANCH  23  24
HETATM   24  C   UNL     1     -11.960   9.748  70.894  1.00  0.00    -0.413 A  
HETATM   25  C   UNL     1     -12.854  10.228  71.871  1.00  0.00    -0.528 A  
HETATM   26  C   UNL     1     -13.217  11.576  71.914  1.00  0.00    -0.479 A  
HETATM   27  C   UNL     1     -11.456  10.658  69.953  1.00  0.00    -0.393 A  
HETATM   28  C   UNL     1     -12.693  12.466  70.979  1.00  0.00    -0.315 A  
HETATM   29  C   UNL     1     -11.819  12.006  69.997  1.00  0.00    -0.392 A  
ENDBRANCH  23  24
BRANCH  23  30
HETATM   30  C   UNL     1     -10.688   7.875  72.042  1.00  0.00    -0.299 A  
HETATM   31  C   UNL     1      -9.144   7.237  74.306  1.00  0.00    -0.245 A  
HETATM   32  C   UNL     1      -8.707   8.217  73.417  1.00  0.00    -0.318 A  
HETATM   33  C   UNL     1     -11.088   6.856  72.920  1.00  0.00    -0.297 A  
HETATM   34  C   UNL     1     -10.327   6.546  74.050  1.00  0.00    -0.362 A  
HETATM   35  C   UNL     1      -9.472   8.533  72.291  1.00  0.00    -0.365 A  
ENDBRANCH  23  30
ENDBRANCH  22  23
ENDBRANCH  19  22
ENDBRANCH  15  16
ENDBRANCH  14  15
ENDBRANCH  13  14
ENDBRANCH  11  13
ENDBRANCH   8  11
ENDBRANCH   2   5
TORSDOF 10
ENDMDL
MODEL       27
REMARK 921   NORMALIZED FREE ENERGY PREDICTED BY IDOCK:   -6.20 KCAL/MOL
REMARK 922        TOTAL FREE ENERGY PREDICTED BY IDOCK:  -12.75 KCAL/MOL
REMARK 923 INTER-LIGAND FREE ENERGY PREDICTED BY IDOCK:  -10.32 KCAL/MOL
REMARK 924 INTRA-LIGAND FREE ENERGY PREDICTED BY IDOCK:   -2.43 KCAL/MOL
REMARK 927      BINDING AFFINITY PREDICTED BY RF-SCORE:    0.00 PKD
ROOT
HETATM    1  C   UNL     1     -10.607   4.429  65.280  1.00  0.00    -0.181 C  
HETATM    2  C   UNL     1      -9.396   4.682  66.204  1.00  0.00    -0.153 C  
HETATM    3  C   UNL     1      -8.594   5.858  65.603  1.00  0.00    -0.155 C  
HETATM    4  C   UNL     1      -8.520   3.411  66.174  1.00  0.00    -0.110 C  
ENDROOT
BRANCH   2   5
HETATM    5  C   UNL     1      -9.797   5.017  67.646  1.00  0.00    -0.202 A  
HETATM    6  C   UNL     1      -9.217   4.395  68.761  1.00  0.00    -0.193 A  
HETATM    7  C   UNL     1      -9.622   4.706  70.067  1.00  0.00    -0.259 A  
HETATM    8  C   UNL     1     -10.628   5.648  70.287  1.00  0.00    -0.370 A  
HETATM    9  C   UNL     1     -10.801   5.974  67.890  1.00  0.00    -0.378 A  
HETATM   10  C   UNL     1     -11.211   6.285  69.188  1.00  0.00    -0.439 A  
BRANCH   8  11
HETATM   11  C   UNL     1     -11.050   5.937  71.688  1.00  0.00    -0.258 C  
HETATM   12  O   UNL     1     -10.369   5.523  72.624  1.00  0.00    -0.184 OA 
BRANCH  11  13
HETATM   13  C   UNL     1     -12.319   6.740  71.892  1.00  0.00    -0.369 C  
BRANCH  13  14
HETATM   14  C   UNL     1     -12.024   8.185  72.282  1.00  0.00    -0.434 C  
BRANCH  14  15
HETATM   15  C   UNL     1     -12.237   9.159  71.121  1.00  0.00    -0.285 C  
BRANCH  15  16
HETATM   16  N   UNL     1     -11.208  10.197  70.955  1.00  0.00    -0.341 NA 
HETATM   17  C   UNL     1     -10.020   9.802  70.181  1.00  0.00    -0.263 C  
HETATM   18  C   UNL     1     -10.215   9.734  68.661  1.00  0.00    -0.210 C  
HETATM   19  C   UNL     1     -10.896  10.981  68.083  1.00  0.00    -0.226 C  
HETATM   20  C   UNL     1     -12.155  11.277  68.901  1.00  0.00    -0.292 C  
HETATM   21  C   UNL     1     -11.791  11.425  70.385  1.00  0.00    -0.335 C  
BRANCH  19  22
HETATM   22  O   UNL     1     -10.138  12.189  68.145  1.00  0.00    -0.194 OA 
BRANCH  22  23
HETATM   23  C   UNL     1      -9.735  12.846  66.941  1.00  0.00    -0.240 C  
BRANCH  23  24
HETATM   24  C   UNL     1      -9.657  14.341  67.256  1.00  0.00    -0.232 A  
HETATM   25  C   UNL     1     -10.035  14.849  68.514  1.00  0.00    -0.223 A  
HETATM   26  C   UNL     1      -9.944  16.214  68.796  1.00  0.00    -0.231 A  
HETATM   27  C   UNL     1      -9.202  15.246  66.286  1.00  0.00    -0.350 A  
HETATM   28  C   UNL     1      -9.476  17.095  67.823  1.00  0.00    -0.253 A  
HETATM   29  C   UNL     1      -9.111  16.611  66.569  1.00  0.00    -0.303 A  
ENDBRANCH  23  24
BRANCH  23  30
HETATM   30  C   UNL     1     -10.647  12.546  65.759  1.00  0.00    -0.299 A  
HETATM   31  C   UNL     1     -12.317  12.108  63.537  1.00  0.00    -0.682 A  
HETATM   32  C   UNL     1     -12.769  12.872  64.610  1.00  0.00    -0.403 A  
HETATM   33  C   UNL     1     -10.225  11.738  64.692  1.00  0.00    -0.326 A  
HETATM   34  C   UNL     1     -11.049  11.529  63.584  1.00  0.00    -0.469 A  
HETATM   35  C   UNL     1     -11.942  13.088  65.715  1.00  0.00    -0.482 A  
ENDBRANCH  23  30
ENDBRANCH  22  23
ENDBRANCH  19  22
ENDBRANCH  15  16
ENDBRANCH  14  15
ENDBRANCH  13  14
ENDBRANCH  11  13
ENDBRANCH   8  11
ENDBRANCH   2   5
TORSDOF 10
ENDMDL
MODEL       28
REMARK 921   NORMALIZED FREE ENERGY PREDICTED BY IDOCK:   -6.19 KCAL/MOL
REMARK 922        TOTAL FREE ENERGY PREDICTED BY IDOCK:  -12.74 KCAL/MOL
REMARK 923 INTER-LIGAND FREE ENERGY PREDICTED BY IDOCK:   -9.99 KCAL/MOL
REMARK 924 INTRA-LIGAND FREE ENERGY PREDICTED BY IDOCK:   -2.75 KCAL/MOL
REMARK 927      BINDING AFFINITY PREDICTED BY RF-SCORE:    0.00 PKD
ROOT
HETATM    1  C   UNL     1      -9.837   5.202  66.055  1.00  0.00    -0.184 C  
HETATM    2  C   UNL     1      -9.135   6.303  66.878  1.00  0.00    -0.132 C  
HETATM    3  C   UNL     1      -9.726   7.660  66.434  1.00  0.00    -0.197 C  
HETATM    4  C   UNL     1      -7.635   6.265  66.513  1.00  0.00    -0.094 C  
ENDROOT
BRANCH   2   5
HETATM    5  C   UNL     1      -9.318   6.134  68.392  1.00  0.00    -0.116 A  
HETATM    6  C   UNL     1     -10.479   5.591  68.961  1.00  0.00    -0.296 A  
HETATM    7  C   UNL     1     -10.626   5.471  70.351  1.00  0.00    -0.350 A  
HETATM    8  C   UNL     1      -9.612   5.902  71.207  1.00  0.00    -0.195 A  
HETATM    9  C   UNL     1      -8.301   6.553  69.272  1.00  0.00    -0.123 A  
HETATM   10  C   UNL     1      -8.445   6.439  70.656  1.00  0.00    -0.135 A  
BRANCH   8  11
HETATM   11  C   UNL     1      -9.813   5.782  72.680  1.00  0.00    -0.164 C  
HETATM   12  O   UNL     1      -9.689   4.686  73.221  1.00  0.00    -0.131 OA 
BRANCH  11  13
HETATM   13  C   UNL     1     -10.166   7.040  73.449  1.00  0.00    -0.342 C  
BRANCH  13  14
HETATM   14  C   UNL     1     -11.400   7.732  72.878  1.00  0.00    -0.406 C  
BRANCH  14  15
HETATM   15  C   UNL     1     -11.041   8.933  71.999  1.00  0.00    -0.351 C  
BRANCH  15  16
HETATM   16  N   UNL     1     -11.860   9.114  70.791  1.00  0.00    -0.263 NA 
HETATM   17  C   UNL     1     -12.825  10.225  70.833  1.00  0.00    -0.374 C  
HETATM   18  C   UNL     1     -12.226  11.626  70.652  1.00  0.00    -0.461 C  
HETATM   19  C   UNL     1     -11.276  11.726  69.451  1.00  0.00    -0.234 C  
HETATM   20  C   UNL     1     -10.267  10.578  69.526  1.00  0.00    -0.230 C  
HETATM   21  C   UNL     1     -11.008   9.235  69.595  1.00  0.00    -0.175 C  
BRANCH  19  22
HETATM   22  O   UNL     1     -11.880  11.586  68.165  1.00  0.00    -0.510 OA 
BRANCH  22  23
HETATM   23  C   UNL     1     -12.019  12.724  67.311  1.00  0.00    -0.280 C  
BRANCH  23  24
HETATM   24  C   UNL     1     -11.554  12.291  65.919  1.00  0.00    -0.450 A  
HETATM   25  C   UNL     1     -10.651  11.224  65.742  1.00  0.00    -0.306 A  
HETATM   26  C   UNL     1     -10.247  10.828  64.465  1.00  0.00    -0.428 A  
HETATM   27  C   UNL     1     -12.022  12.958  64.777  1.00  0.00    -0.445 A  
HETATM   28  C   UNL     1     -10.736  11.495  63.344  1.00  0.00    -0.444 A  
HETATM   29  C   UNL     1     -11.618  12.561  63.500  1.00  0.00    -0.584 A  
ENDBRANCH  23  24
BRANCH  23  30
HETATM   30  C   UNL     1     -11.275  13.951  67.819  1.00  0.00    -0.316 A  
HETATM   31  C   UNL     1      -9.897  16.262  68.643  1.00  0.00    -0.230 A  
HETATM   32  C   UNL     1      -9.228  15.267  67.934  1.00  0.00    -0.184 A  
HETATM   33  C   UNL     1     -11.920  14.940  68.577  1.00  0.00    -0.275 A  
HETATM   34  C   UNL     1     -11.239  16.092  68.977  1.00  0.00    -0.347 A  
HETATM   35  C   UNL     1      -9.910  14.118  67.526  1.00  0.00    -0.235 A  
ENDBRANCH  23  30
ENDBRANCH  22  23
ENDBRANCH  19  22
ENDBRANCH  15  16
ENDBRANCH  14  15
ENDBRANCH  13  14
ENDBRANCH  11  13
ENDBRANCH   8  11
ENDBRANCH   2   5
TORSDOF 10
ENDMDL
MODEL       29
REMARK 921   NORMALIZED FREE ENERGY PREDICTED BY IDOCK:   -6.18 KCAL/MOL
REMARK 922        TOTAL FREE ENERGY PREDICTED BY IDOCK:  -12.73 KCAL/MOL
REMARK 923 INTER-LIGAND FREE ENERGY PREDICTED BY IDOCK:  -10.73 KCAL/MOL
REMARK 924 INTRA-LIGAND FREE ENERGY PREDICTED BY IDOCK:   -2.00 KCAL/MOL
REMARK 927      BINDING AFFINITY PREDICTED BY RF-SCORE:    0.00 PKD
ROOT
HETATM    1  C   UNL     1      -9.039   2.609  66.969  1.00  0.00    -0.171 C  
HETATM    2  C   UNL     1      -9.233   4.133  67.120  1.00  0.00    -0.176 C  
HETATM    3  C   UNL     1     -10.261   4.576  66.056  1.00  0.00    -0.288 C  
HETATM    4  C   UNL     1      -7.876   4.803  66.816  1.00  0.00    -0.099 C  
ENDROOT
BRANCH   2   5
HETATM    5  C   UNL     1      -9.728   4.543  68.514  1.00  0.00    -0.198 A  
HETATM    6  C   UNL     1     -10.582   5.634  68.727  1.00  0.00    -0.286 A  
HETATM    7  C   UNL     1     -10.998   5.998  70.016  1.00  0.00    -0.450 A  
HETATM    8  C   UNL     1     -10.559   5.278  71.128  1.00  0.00    -0.243 A  
HETATM    9  C   UNL     1      -9.306   3.821  69.647  1.00  0.00    -0.245 A  
HETATM   10  C   UNL     1      -9.714   4.182  70.933  1.00  0.00    -0.259 A  
BRANCH   8  11
HETATM   11  C   UNL     1     -11.002   5.708  72.485  1.00  0.00    -0.264 C  
HETATM   12  O   UNL     1     -11.745   4.979  73.140  1.00  0.00    -0.313 OA 
BRANCH  11  13
HETATM   13  C   UNL     1     -10.505   7.045  73.000  1.00  0.00    -0.307 C  
BRANCH  13  14
HETATM   14  C   UNL     1     -11.505   8.166  72.735  1.00  0.00    -0.397 C  
BRANCH  14  15
HETATM   15  C   UNL     1     -10.997   9.168  71.696  1.00  0.00    -0.374 C  
BRANCH  15  16
HETATM   16  N   UNL     1     -11.885   9.410  70.548  1.00  0.00    -0.205 NA 
HETATM   17  C   UNL     1     -12.870  10.491  70.719  1.00  0.00    -0.367 C  
HETATM   18  C   UNL     1     -12.314  11.916  70.606  1.00  0.00    -0.405 C  
HETATM   19  C   UNL     1     -11.434  12.124  69.367  1.00  0.00    -0.290 C  
HETATM   20  C   UNL     1     -10.396  11.000  69.307  1.00  0.00    -0.181 C  
HETATM   21  C   UNL     1     -11.102   9.636  69.320  1.00  0.00    -0.118 C  
BRANCH  19  22
HETATM   22  O   UNL     1     -12.104  12.057  68.108  1.00  0.00    -0.480 OA 
BRANCH  22  23
HETATM   23  C   UNL     1     -12.150  13.207  67.259  1.00  0.00    -0.274 C  
BRANCH  23  24
HETATM   24  C   UNL     1     -11.803  12.729  65.848  1.00  0.00    -0.490 A  
HETATM   25  C   UNL     1     -12.276  13.403  64.705  1.00  0.00    -0.456 A  
HETATM   26  C   UNL     1     -11.939  12.967  63.421  1.00  0.00    -0.612 A  
HETATM   27  C   UNL     1     -10.999  11.595  65.662  1.00  0.00    -0.322 A  
HETATM   28  C   UNL     1     -11.126  11.847  63.259  1.00  0.00    -0.390 A  
HETATM   29  C   UNL     1     -10.662  11.160  64.378  1.00  0.00    -0.388 A  
ENDBRANCH  23  24
BRANCH  23  30
HETATM   30  C   UNL     1     -11.247  14.338  67.730  1.00  0.00    -0.309 A  
HETATM   31  C   UNL     1      -9.583  16.477  68.487  1.00  0.00    -0.233 A  
HETATM   32  C   UNL     1      -9.084  15.458  67.680  1.00  0.00    -0.183 A  
HETATM   33  C   UNL     1     -11.718  15.348  68.584  1.00  0.00    -0.371 A  
HETATM   34  C   UNL     1     -10.896  16.415  68.951  1.00  0.00    -0.334 A  
HETATM   35  C   UNL     1      -9.909  14.394  67.305  1.00  0.00    -0.247 A  
ENDBRANCH  23  30
ENDBRANCH  22  23
ENDBRANCH  19  22
ENDBRANCH  15  16
ENDBRANCH  14  15
ENDBRANCH  13  14
ENDBRANCH  11  13
ENDBRANCH   8  11
ENDBRANCH   2   5
TORSDOF 10
ENDMDL
MODEL       30
REMARK 921   NORMALIZED FREE ENERGY PREDICTED BY IDOCK:   -6.16 KCAL/MOL
REMARK 922        TOTAL FREE ENERGY PREDICTED BY IDOCK:  -12.69 KCAL/MOL
REMARK 923 INTER-LIGAND FREE ENERGY PREDICTED BY IDOCK:  -10.83 KCAL/MOL
REMARK 924 INTRA-LIGAND FREE ENERGY PREDICTED BY IDOCK:   -1.86 KCAL/MOL
REMARK 927      BINDING AFFINITY PREDICTED BY RF-SCORE:    0.00 PKD
ROOT
HETATM    1  C   UNL     1      -8.241  18.753  66.261  1.00  0.00    -0.270 C  
HETATM    2  C   UNL     1      -9.293  18.276  67.286  1.00  0.00    -0.256 C  
HETATM    3  C   UNL     1     -10.307  19.426  67.477  1.00  0.00    -0.556 C  
HETATM    4  C   UNL     1      -8.557  18.028  68.620  1.00  0.00    -0.274 C  
ENDROOT
BRANCH   2   5
HETATM    5  C   UNL     1     -10.033  17.007  66.843  1.00  0.00    -0.289 A  
HETATM    6  C   UNL     1     -10.254  16.687  65.496  1.00  0.00    -0.227 A  
HETATM    7  C   UNL     1     -10.955  15.531  65.123  1.00  0.00    -0.422 A  
HETATM    8  C   UNL     1     -11.460  14.668  66.096  1.00  0.00    -0.339 A  
HETATM    9  C   UNL     1     -10.540  16.118  67.810  1.00  0.00    -0.309 A  
HETATM   10  C   UNL     1     -11.242  14.968  67.444  1.00  0.00    -0.337 A  
BRANCH   8  11
HETATM   11  C   UNL     1     -12.222  13.461  65.664  1.00  0.00    -0.463 C  
HETATM   12  O   UNL     1     -13.208  13.593  64.943  1.00  0.00    -0.640 OA 
BRANCH  11  13
HETATM   13  C   UNL     1     -11.733  12.109  66.143  1.00  0.00    -0.384 C  
BRANCH  13  14
HETATM   14  C   UNL     1     -10.260  11.884  65.814  1.00  0.00    -0.276 C  
BRANCH  14  15
HETATM   15  C   UNL     1      -9.912  10.400  65.676  1.00  0.00    -0.272 C  
BRANCH  15  16
HETATM   16  N   UNL     1      -9.088   9.830  66.753  1.00  0.00    -0.144 NA 
HETATM   17  C   UNL     1      -9.163  10.522  68.050  1.00  0.00    -0.142 C  
HETATM   18  C   UNL     1     -10.436  10.260  68.866  1.00  0.00    -0.231 C  
HETATM   19  C   UNL     1     -10.782   8.771  68.982  1.00  0.00    -0.112 C  
HETATM   20  C   UNL     1     -10.750   8.148  67.585  1.00  0.00    -0.203 C  
HETATM   21  C   UNL     1      -9.383   8.397  66.933  1.00  0.00    -0.174 C  
BRANCH  19  22
HETATM   22  O   UNL     1      -9.874   7.978  69.747  1.00  0.00    -0.179 OA 
BRANCH  22  23
HETATM   23  C   UNL     1     -10.250   7.503  71.042  1.00  0.00    -0.190 C  
BRANCH  23  24
HETATM   24  C   UNL     1      -9.969   6.000  71.062  1.00  0.00    -0.230 A  
HETATM   25  C   UNL     1      -9.913   5.277  72.270  1.00  0.00    -0.222 A  
HETATM   26  C   UNL     1      -9.672   3.901  72.274  1.00  0.00    -0.217 A  
HETATM   27  C   UNL     1      -9.758   5.303  69.863  1.00  0.00    -0.260 A  
HETATM   28  C   UNL     1      -9.479   3.226  71.071  1.00  0.00    -0.228 A  
HETATM   29  C   UNL     1      -9.517   3.927  69.868  1.00  0.00    -0.267 A  
ENDBRANCH  23  24
BRANCH  23  30
HETATM   30  C   UNL     1     -11.691   7.832  71.406  1.00  0.00    -0.310 A  
HETATM   31  C   UNL     1     -14.359   8.516  71.982  1.00  0.00    -0.537 A  
HETATM   32  C   UNL     1     -13.337   9.430  72.225  1.00  0.00    -0.539 A  
HETATM   33  C   UNL     1     -12.728   6.906  71.213  1.00  0.00    -0.368 A  
HETATM   34  C   UNL     1     -14.054   7.249  71.489  1.00  0.00    -0.515 A  
HETATM   35  C   UNL     1     -12.012   9.091  71.942  1.00  0.00    -0.445 A  
ENDBRANCH  23  30
ENDBRANCH  22  23
ENDBRANCH  19  22
ENDBRANCH  15  16
ENDBRANCH  14  15
ENDBRANCH  13  14
ENDBRANCH  11  13
ENDBRANCH   8  11
ENDBRANCH   2   5
TORSDOF 10
ENDMDL
MODEL       31
REMARK 921   NORMALIZED FREE ENERGY PREDICTED BY IDOCK:   -6.14 KCAL/MOL
REMARK 922        TOTAL FREE ENERGY PREDICTED BY IDOCK:  -12.66 KCAL/MOL
REMARK 923 INTER-LIGAND FREE ENERGY PREDICTED BY IDOCK:   -9.60 KCAL/MOL
REMARK 924 INTRA-LIGAND FREE ENERGY PREDICTED BY IDOCK:   -3.06 KCAL/MOL
REMARK 927      BINDING AFFINITY PREDICTED BY RF-SCORE:    0.00 PKD
ROOT
HETATM    1  C   UNL     1     -11.435   8.114  72.594  1.00  0.00    -0.454 C  
HETATM    2  C   UNL     1     -10.197   7.206  72.759  1.00  0.00    -0.243 C  
HETATM    3  C   UNL     1     -10.542   6.145  73.827  1.00  0.00    -0.261 C  
HETATM    4  C   UNL     1      -9.044   8.089  73.283  1.00  0.00    -0.349 C  
ENDROOT
BRANCH   2   5
HETATM    5  C   UNL     1      -9.783   6.509  71.456  1.00  0.00    -0.179 A  
HETATM    6  C   UNL     1      -8.477   6.557  70.950  1.00  0.00    -0.134 A  
HETATM    7  C   UNL     1      -8.135   5.929  69.744  1.00  0.00    -0.105 A  
HETATM    8  C   UNL     1      -9.101   5.241  69.009  1.00  0.00    -0.141 A  
HETATM    9  C   UNL     1     -10.741   5.799  70.707  1.00  0.00    -0.342 A  
HETATM   10  C   UNL     1     -10.407   5.175  69.503  1.00  0.00    -0.292 A  
BRANCH   8  11
HETATM   11  C   UNL     1      -8.707   4.605  67.719  1.00  0.00    -0.104 C  
HETATM   12  O   UNL     1      -8.917   3.407  67.544  1.00  0.00    -0.119 OA 
BRANCH  11  13
HETATM   13  C   UNL     1      -8.057   5.484  66.668  1.00  0.00    -0.105 C  
BRANCH  13  14
HETATM   14  C   UNL     1      -9.052   6.455  66.040  1.00  0.00    -0.118 C  
BRANCH  14  15
HETATM   15  C   UNL     1      -8.861   7.890  66.538  1.00  0.00    -0.152 C  
BRANCH  15  16
HETATM   16  N   UNL     1     -10.089   8.613  66.902  1.00  0.00    -0.258 NA 
HETATM   17  C   UNL     1     -10.407   8.650  68.339  1.00  0.00    -0.201 C  
HETATM   18  C   UNL     1      -9.569   9.625  69.176  1.00  0.00    -0.176 C  
HETATM   19  C   UNL     1      -9.486  11.029  68.564  1.00  0.00    -0.188 C  
HETATM   20  C   UNL     1      -9.082  10.901  67.093  1.00  0.00    -0.152 C  
HETATM   21  C   UNL     1     -10.070   9.983  66.358  1.00  0.00    -0.241 C  
BRANCH  19  22
HETATM   22  O   UNL     1     -10.706  11.769  68.535  1.00  0.00    -0.202 OA 
BRANCH  22  23
HETATM   23  C   UNL     1     -10.677  13.199  68.508  1.00  0.00    -0.259 C  
BRANCH  23  24
HETATM   24  C   UNL     1     -11.662  13.682  69.574  1.00  0.00    -0.380 A  
HETATM   25  C   UNL     1     -12.263  12.788  70.482  1.00  0.00    -0.389 A  
HETATM   26  C   UNL     1     -13.148  13.243  71.462  1.00  0.00    -0.414 A  
HETATM   27  C   UNL     1     -11.992  15.042  69.669  1.00  0.00    -0.356 A  
HETATM   28  C   UNL     1     -13.450  14.601  71.547  1.00  0.00    -0.464 A  
HETATM   29  C   UNL     1     -12.876  15.497  70.649  1.00  0.00    -0.466 A  
ENDBRANCH  23  24
BRANCH  23  30
HETATM   30  C   UNL     1     -10.976  13.779  67.132  1.00  0.00    -0.299 A  
HETATM   31  C   UNL     1     -11.619  14.916  64.640  1.00  0.00    -0.395 A  
HETATM   32  C   UNL     1     -12.445  13.943  65.197  1.00  0.00    -0.479 A  
HETATM   33  C   UNL     1     -10.128  14.724  66.534  1.00  0.00    -0.281 A  
HETATM   34  C   UNL     1     -10.452  15.296  65.301  1.00  0.00    -0.436 A  
HETATM   35  C   UNL     1     -12.126  13.376  66.433  1.00  0.00    -0.464 A  
ENDBRANCH  23  30
ENDBRANCH  22  23
ENDBRANCH  19  22
ENDBRANCH  15  16
ENDBRANCH  14  15
ENDBRANCH  13  14
ENDBRANCH  11  13
ENDBRANCH   8  11
ENDBRANCH   2   5
TORSDOF 10
ENDMDL
MODEL       32
REMARK 921   NORMALIZED FREE ENERGY PREDICTED BY IDOCK:   -6.13 KCAL/MOL
REMARK 922        TOTAL FREE ENERGY PREDICTED BY IDOCK:  -12.65 KCAL/MOL
REMARK 923 INTER-LIGAND FREE ENERGY PREDICTED BY IDOCK:  -10.62 KCAL/MOL
REMARK 924 INTRA-LIGAND FREE ENERGY PREDICTED BY IDOCK:   -2.02 KCAL/MOL
REMARK 927      BINDING AFFINITY PREDICTED BY RF-SCORE:    0.00 PKD
ROOT
HETATM    1  C   UNL     1      -9.034   4.864  73.428  1.00  0.00    -0.112 C  
HETATM    2  C   UNL     1     -10.201   4.285  72.600  1.00  0.00    -0.232 C  
HETATM    3  C   UNL     1     -11.508   4.593  73.364  1.00  0.00    -0.335 C  
HETATM    4  C   UNL     1     -10.007   2.755  72.536  1.00  0.00    -0.229 C  
ENDROOT
BRANCH   2   5
HETATM    5  C   UNL     1     -10.285   4.870  71.184  1.00  0.00    -0.261 A  
HETATM    6  C   UNL     1      -9.586   4.328  70.095  1.00  0.00    -0.269 A  
HETATM    7  C   UNL     1      -9.664   4.900  68.817  1.00  0.00    -0.232 A  
HETATM    8  C   UNL     1     -10.442   6.038  68.600  1.00  0.00    -0.297 A  
HETATM    9  C   UNL     1     -11.073   6.012  70.942  1.00  0.00    -0.352 A  
HETATM   10  C   UNL     1     -11.151   6.587  69.673  1.00  0.00    -0.435 A  
BRANCH   8  11
HETATM   11  C   UNL     1     -10.482   6.634  67.234  1.00  0.00    -0.275 C  
HETATM   12  O   UNL     1     -10.348   5.907  66.252  1.00  0.00    -0.129 OA 
BRANCH  11  13
HETATM   13  C   UNL     1     -10.689   8.131  67.121  1.00  0.00    -0.264 C  
BRANCH  13  14
HETATM   14  C   UNL     1      -9.634   8.790  66.238  1.00  0.00    -0.328 C  
BRANCH  14  15
HETATM   15  C   UNL     1     -10.017  10.216  65.835  1.00  0.00    -0.267 C  
BRANCH  15  16
HETATM   16  N   UNL     1     -10.509  11.080  66.919  1.00  0.00    -0.235 NA 
HETATM   17  C   UNL     1      -9.476  11.786  67.694  1.00  0.00    -0.180 C  
HETATM   18  C   UNL     1      -8.841  12.997  66.999  1.00  0.00    -0.213 C  
HETATM   19  C   UNL     1      -9.874  13.959  66.398  1.00  0.00    -0.295 C  
HETATM   20  C   UNL     1     -10.863  13.153  65.554  1.00  0.00    -0.299 C  
HETATM   21  C   UNL     1     -11.499  12.046  66.408  1.00  0.00    -0.353 C  
BRANCH  19  22
HETATM   22  O   UNL     1     -10.692  14.658  67.336  1.00  0.00    -0.272 OA 
BRANCH  22  23
HETATM   23  C   UNL     1     -10.103  15.275  68.483  1.00  0.00    -0.222 C  
BRANCH  23  24
HETATM   24  C   UNL     1     -11.085  15.087  69.641  1.00  0.00    -0.291 A  
HETATM   25  C   UNL     1     -11.863  13.920  69.765  1.00  0.00    -0.390 A  
HETATM   26  C   UNL     1     -12.745  13.753  70.835  1.00  0.00    -0.394 A  
HETATM   27  C   UNL     1     -11.233  16.088  70.613  1.00  0.00    -0.395 A  
HETATM   28  C   UNL     1     -12.866  14.753  71.798  1.00  0.00    -0.396 A  
HETATM   29  C   UNL     1     -12.114  15.920  71.683  1.00  0.00    -0.554 A  
ENDBRANCH  23  24
BRANCH  23  30
HETATM   30  C   UNL     1      -9.737  16.735  68.259  1.00  0.00    -0.252 A  
HETATM   31  C   UNL     1      -9.144  19.466  67.931  1.00  0.00    -0.377 A  
HETATM   32  C   UNL     1     -10.347  18.952  67.455  1.00  0.00    -0.496 A  
HETATM   33  C   UNL     1      -8.508  17.260  68.688  1.00  0.00    -0.260 A  
HETATM   34  C   UNL     1      -8.218  18.618  68.535  1.00  0.00    -0.370 A  
HETATM   35  C   UNL     1     -10.642  17.596  67.615  1.00  0.00    -0.364 A  
ENDBRANCH  23  30
ENDBRANCH  22  23
ENDBRANCH  19  22
ENDBRANCH  15  16
ENDBRANCH  14  15
ENDBRANCH  13  14
ENDBRANCH  11  13
ENDBRANCH   8  11
ENDBRANCH   2   5
TORSDOF 10
ENDMDL
MODEL       33
REMARK 921   NORMALIZED FREE ENERGY PREDICTED BY IDOCK:   -5.98 KCAL/MOL
REMARK 922        TOTAL FREE ENERGY PREDICTED BY IDOCK:  -12.41 KCAL/MOL
REMARK 923 INTER-LIGAND FREE ENERGY PREDICTED BY IDOCK:  -10.42 KCAL/MOL
REMARK 924 INTRA-LIGAND FREE ENERGY PREDICTED BY IDOCK:   -1.99 KCAL/MOL
REMARK 927      BINDING AFFINITY PREDICTED BY RF-SCORE:    0.00 PKD
ROOT
HETATM    1  C   UNL     1      -8.941   2.621  70.812  1.00  0.00    -0.161 C  
HETATM    2  C   UNL     1      -8.886   4.008  70.135  1.00  0.00    -0.137 C  
HETATM    3  C   UNL     1      -8.997   3.782  68.610  1.00  0.00    -0.176 C  
HETATM    4  C   UNL     1      -7.506   4.622  70.452  1.00  0.00    -0.050 C  
ENDROOT
BRANCH   2   5
HETATM    5  C   UNL     1     -10.006   4.950  70.598  1.00  0.00    -0.305 A  
HETATM    6  C   UNL     1     -10.411   5.048  71.936  1.00  0.00    -0.270 A  
HETATM    7  C   UNL     1     -11.454   5.902  72.325  1.00  0.00    -0.351 A  
HETATM    8  C   UNL     1     -12.124   6.674  71.375  1.00  0.00    -0.400 A  
HETATM    9  C   UNL     1     -10.686   5.746  69.656  1.00  0.00    -0.416 A  
HETATM   10  C   UNL     1     -11.728   6.593  70.037  1.00  0.00    -0.378 A  
BRANCH   8  11
HETATM   11  C   UNL     1     -13.245   7.551  71.821  1.00  0.00    -0.316 C  
HETATM   12  O   UNL     1     -14.396   7.281  71.485  1.00  0.00    -0.437 OA 
BRANCH  11  13
HETATM   13  C   UNL     1     -12.903   8.752  72.680  1.00  0.00    -0.294 C  
BRANCH  13  14
HETATM   14  C   UNL     1     -13.505  10.040  72.128  1.00  0.00    -0.420 C  
BRANCH  14  15
HETATM   15  C   UNL     1     -13.029  10.345  70.706  1.00  0.00    -0.341 C  
BRANCH  15  16
HETATM   16  N   UNL     1     -11.707  10.978  70.591  1.00  0.00    -0.321 NA 
HETATM   17  C   UNL     1     -10.678  10.190  69.893  1.00  0.00    -0.295 C  
HETATM   18  C   UNL     1     -10.804  10.146  68.365  1.00  0.00    -0.284 C  
HETATM   19  C   UNL     1     -11.001  11.531  67.735  1.00  0.00    -0.236 C  
HETATM   20  C   UNL     1     -12.132  12.251  68.474  1.00  0.00    -0.124 C  
HETATM   21  C   UNL     1     -11.818  12.313  69.976  1.00  0.00    -0.296 C  
BRANCH  19  22
HETATM   22  O   UNL     1      -9.889  12.422  67.831  1.00  0.00    -0.191 OA 
BRANCH  22  23
HETATM   23  C   UNL     1      -9.481  13.184  66.692  1.00  0.00    -0.260 C  
BRANCH  23  24
HETATM   24  C   UNL     1      -9.391  14.643  67.144  1.00  0.00    -0.231 A  
HETATM   25  C   UNL     1      -8.897  15.649  66.291  1.00  0.00    -0.364 A  
HETATM   26  C   UNL     1      -8.834  16.981  66.709  1.00  0.00    -0.267 A  
HETATM   27  C   UNL     1      -9.801  15.011  68.433  1.00  0.00    -0.222 A  
HETATM   28  C   UNL     1      -9.261  17.327  67.990  1.00  0.00    -0.256 A  
HETATM   29  C   UNL     1      -9.739  16.342  68.851  1.00  0.00    -0.257 A  
ENDBRANCH  23  24
BRANCH  23  30
HETATM   30  C   UNL     1     -10.396  13.002  65.489  1.00  0.00    -0.304 A  
HETATM   31  C   UNL     1     -12.032  12.764  63.212  1.00  0.00    -0.522 A  
HETATM   32  C   UNL     1     -12.248  13.796  64.121  1.00  0.00    -0.443 A  
HETATM   33  C   UNL     1     -10.223  11.939  64.589  1.00  0.00    -0.316 A  
HETATM   34  C   UNL     1     -11.029  11.826  63.453  1.00  0.00    -0.458 A  
HETATM   35  C   UNL     1     -11.438  13.915  65.253  1.00  0.00    -0.319 A  
ENDBRANCH  23  30
ENDBRANCH  22  23
ENDBRANCH  19  22
ENDBRANCH  15  16
ENDBRANCH  14  15
ENDBRANCH  13  14
ENDBRANCH  11  13
ENDBRANCH   8  11
ENDBRANCH   2   5
TORSDOF 10
ENDMDL
MODEL       34
REMARK 921   NORMALIZED FREE ENERGY PREDICTED BY IDOCK:   -5.94 KCAL/MOL
REMARK 922        TOTAL FREE ENERGY PREDICTED BY IDOCK:  -12.34 KCAL/MOL
REMARK 923 INTER-LIGAND FREE ENERGY PREDICTED BY IDOCK:   -9.89 KCAL/MOL
REMARK 924 INTRA-LIGAND FREE ENERGY PREDICTED BY IDOCK:   -2.44 KCAL/MOL
REMARK 927      BINDING AFFINITY PREDICTED BY RF-SCORE:    0.00 PKD
ROOT
HETATM    1  C   UNL     1     -11.545  13.160  66.871  1.00  0.00    -0.417 C  
HETATM    2  C   UNL     1     -11.358  13.004  65.346  1.00  0.00    -0.327 C  
HETATM    3  C   UNL     1     -10.838  14.354  64.804  1.00  0.00    -0.415 C  
HETATM    4  C   UNL     1     -12.749  12.722  64.737  1.00  0.00    -0.469 C  
ENDROOT
BRANCH   2   5
HETATM    5  C   UNL     1     -10.376  11.886  64.970  1.00  0.00    -0.330 A  
HETATM    6  C   UNL     1      -9.410  11.393  65.859  1.00  0.00    -0.247 A  
HETATM    7  C   UNL     1      -8.511  10.387  65.478  1.00  0.00    -0.171 A  
HETATM    8  C   UNL     1      -8.554   9.854  64.188  1.00  0.00    -0.201 A  
HETATM    9  C   UNL     1     -10.412  11.328  63.678  1.00  0.00    -0.464 A  
HETATM   10  C   UNL     1      -9.517  10.329  63.293  1.00  0.00    -0.342 A  
BRANCH   8  11
HETATM   11  C   UNL     1      -7.566   8.803  63.810  1.00  0.00    -0.124 C  
HETATM   12  O   UNL     1      -6.463   9.134  63.380  1.00  0.00    -0.090 OA 
BRANCH  11  13
HETATM   13  C   UNL     1      -7.978   7.354  63.979  1.00  0.00    -0.091 C  
BRANCH  13  14
HETATM   14  C   UNL     1      -7.588   6.804  65.347  1.00  0.00    -0.090 C  
BRANCH  14  15
HETATM   15  C   UNL     1      -8.544   5.711  65.832  1.00  0.00    -0.144 C  
BRANCH  15  16
HETATM   16  N   UNL     1      -8.735   5.623  67.288  1.00  0.00    -0.109 NA 
HETATM   17  C   UNL     1      -8.207   6.751  68.071  1.00  0.00    -0.114 C  
HETATM   18  C   UNL     1      -9.043   8.036  68.026  1.00  0.00    -0.130 C  
HETATM   19  C   UNL     1     -10.535   7.795  68.289  1.00  0.00    -0.168 C  
HETATM   20  C   UNL     1     -11.016   6.657  67.385  1.00  0.00    -0.434 C  
HETATM   21  C   UNL     1     -10.156   5.407  67.615  1.00  0.00    -0.175 C  
BRANCH  19  22
HETATM   22  O   UNL     1     -10.874   7.368  69.609  1.00  0.00    -0.239 OA 
BRANCH  22  23
HETATM   23  C   UNL     1     -10.527   8.177  70.736  1.00  0.00    -0.202 C  
BRANCH  23  24
HETATM   24  C   UNL     1     -10.478   7.247  71.950  1.00  0.00    -0.224 A  
HETATM   25  C   UNL     1      -9.877   7.647  73.160  1.00  0.00    -0.337 A  
HETATM   26  C   UNL     1      -9.852   6.795  74.267  1.00  0.00    -0.348 A  
HETATM   27  C   UNL     1     -11.036   5.962  71.881  1.00  0.00    -0.321 A  
HETATM   28  C   UNL     1     -10.426   5.528  74.181  1.00  0.00    -0.297 A  
HETATM   29  C   UNL     1     -11.012   5.111  72.988  1.00  0.00    -0.355 A  
ENDBRANCH  23  24
BRANCH  23  30
HETATM   30  C   UNL     1     -11.468   9.355  70.941  1.00  0.00    -0.382 A  
HETATM   31  C   UNL     1     -13.161  11.548  71.434  1.00  0.00    -0.359 A  
HETATM   32  C   UNL     1     -13.406  10.325  72.053  1.00  0.00    -0.466 A  
HETATM   33  C   UNL     1     -11.264  10.581  70.288  1.00  0.00    -0.391 A  
HETATM   34  C   UNL     1     -12.098  11.673  70.540  1.00  0.00    -0.458 A  
HETATM   35  C   UNL     1     -12.568   9.235  71.807  1.00  0.00    -0.461 A  
ENDBRANCH  23  30
ENDBRANCH  22  23
ENDBRANCH  19  22
ENDBRANCH  15  16
ENDBRANCH  14  15
ENDBRANCH  13  14
ENDBRANCH  11  13
ENDBRANCH   8  11
ENDBRANCH   2   5
TORSDOF 10
ENDMDL
MODEL       35
REMARK 921   NORMALIZED FREE ENERGY PREDICTED BY IDOCK:   -5.90 KCAL/MOL
REMARK 922        TOTAL FREE ENERGY PREDICTED BY IDOCK:  -12.28 KCAL/MOL
REMARK 923 INTER-LIGAND FREE ENERGY PREDICTED BY IDOCK:  -10.15 KCAL/MOL
REMARK 924 INTRA-LIGAND FREE ENERGY PREDICTED BY IDOCK:   -2.13 KCAL/MOL
REMARK 927      BINDING AFFINITY PREDICTED BY RF-SCORE:    0.00 PKD
ROOT
HETATM    1  C   UNL     1     -14.282  15.406  71.834  1.00  0.00    -0.640 C  
HETATM    2  C   UNL     1     -12.793  15.006  71.742  1.00  0.00    -0.415 C  
HETATM    3  C   UNL     1     -12.668  13.562  72.278  1.00  0.00    -0.192 C  
HETATM    4  C   UNL     1     -12.002  15.955  72.668  1.00  0.00    -0.610 C  
ENDROOT
BRANCH   2   5
HETATM    5  C   UNL     1     -12.239  15.073  70.312  1.00  0.00    -0.390 A  
HETATM    6  C   UNL     1     -11.484  16.157  69.840  1.00  0.00    -0.286 A  
HETATM    7  C   UNL     1     -11.011  16.200  68.521  1.00  0.00    -0.338 A  
HETATM    8  C   UNL     1     -11.291  15.156  67.637  1.00  0.00    -0.327 A  
HETATM    9  C   UNL     1     -12.500  14.024  69.410  1.00  0.00    -0.108 A  
HETATM   10  C   UNL     1     -12.034  14.064  68.094  1.00  0.00    -0.382 A  
BRANCH   8  11
HETATM   11  C   UNL     1     -10.792  15.247  66.235  1.00  0.00    -0.312 C  
HETATM   12  O   UNL     1      -9.727  15.817  66.006  1.00  0.00    -0.293 OA 
BRANCH  11  13
HETATM   13  C   UNL     1     -11.638  14.622  65.143  1.00  0.00    -0.371 C  
BRANCH  13  14
HETATM   14  C   UNL     1     -10.815  13.716  64.232  1.00  0.00    -0.297 C  
BRANCH  14  15
HETATM   15  C   UNL     1     -10.004  12.681  65.015  1.00  0.00    -0.158 C  
BRANCH  15  16
HETATM   16  N   UNL     1     -10.697  11.422  65.327  1.00  0.00    -0.283 NA 
HETATM   17  C   UNL     1      -9.947  10.190  65.033  1.00  0.00    -0.305 C  
HETATM   18  C   UNL     1      -8.835   9.840  66.030  1.00  0.00    -0.170 C  
HETATM   19  C   UNL     1      -9.292   9.906  67.492  1.00  0.00    -0.140 C  
HETATM   20  C   UNL     1      -9.996  11.245  67.727  1.00  0.00    -0.193 C  
HETATM   21  C   UNL     1     -11.151  11.409  66.729  1.00  0.00    -0.281 C  
BRANCH  19  22
HETATM   22  O   UNL     1     -10.250   8.925  67.891  1.00  0.00    -0.198 OA 
BRANCH  22  23
HETATM   23  C   UNL     1      -9.937   8.000  68.936  1.00  0.00    -0.195 C  
BRANCH  23  24
HETATM   24  C   UNL     1      -9.770   6.629  68.278  1.00  0.00    -0.132 A  
HETATM   25  C   UNL     1      -8.834   5.692  68.757  1.00  0.00    -0.108 A  
HETATM   26  C   UNL     1      -8.701   4.437  68.158  1.00  0.00    -0.115 A  
HETATM   27  C   UNL     1     -10.555   6.275  67.171  1.00  0.00    -0.380 A  
HETATM   28  C   UNL     1      -9.501   4.099  67.069  1.00  0.00    -0.215 A  
HETATM   29  C   UNL     1     -10.422   5.019  66.573  1.00  0.00    -0.325 A  
ENDBRANCH  23  24
BRANCH  23  30
HETATM   30  C   UNL     1     -10.969   7.989  70.055  1.00  0.00    -0.202 A  
HETATM   31  C   UNL     1     -12.961   8.001  72.042  1.00  0.00    -0.302 A  
HETATM   32  C   UNL     1     -12.476   9.203  71.534  1.00  0.00    -0.418 A  
HETATM   33  C   UNL     1     -11.434   6.787  70.614  1.00  0.00    -0.403 A  
HETATM   34  C   UNL     1     -12.430   6.793  71.593  1.00  0.00    -0.398 A  
HETATM   35  C   UNL     1     -11.485   9.199  70.549  1.00  0.00    -0.271 A  
ENDBRANCH  23  30
ENDBRANCH  22  23
ENDBRANCH  19  22
ENDBRANCH  15  16
ENDBRANCH  14  15
ENDBRANCH  13  14
ENDBRANCH  11  13
ENDBRANCH   8  11
ENDBRANCH   2   5
TORSDOF 10
ENDMDL
MODEL       36
REMARK 921   NORMALIZED FREE ENERGY PREDICTED BY IDOCK:   -5.90 KCAL/MOL
REMARK 922        TOTAL FREE ENERGY PREDICTED BY IDOCK:  -12.28 KCAL/MOL
REMARK 923 INTER-LIGAND FREE ENERGY PREDICTED BY IDOCK:   -9.52 KCAL/MOL
REMARK 924 INTRA-LIGAND FREE ENERGY PREDICTED BY IDOCK:   -2.75 KCAL/MOL
REMARK 927      BINDING AFFINITY PREDICTED BY RF-SCORE:    0.00 PKD
ROOT
HETATM    1  C   UNL     1     -10.380   6.649  73.943  1.00  0.00    -0.385 C  
HETATM    2  C   UNL     1      -9.937   5.420  73.120  1.00  0.00    -0.189 C  
HETATM    3  C   UNL     1     -10.844   4.238  73.529  1.00  0.00    -0.351 C  
HETATM    4  C   UNL     1      -8.481   5.098  73.519  1.00  0.00    -0.112 C  
ENDROOT
BRANCH   2   5
HETATM    5  C   UNL     1     -10.036   5.643  71.604  1.00  0.00    -0.245 A  
HETATM    6  C   UNL     1     -11.177   6.177  70.988  1.00  0.00    -0.361 A  
HETATM    7  C   UNL     1     -11.246   6.346  69.597  1.00  0.00    -0.483 A  
HETATM    8  C   UNL     1     -10.171   5.976  68.788  1.00  0.00    -0.236 A  
HETATM    9  C   UNL     1      -8.958   5.286  70.772  1.00  0.00    -0.160 A  
HETATM   10  C   UNL     1      -9.023   5.449  69.387  1.00  0.00    -0.124 A  
BRANCH   8  11
HETATM   11  C   UNL     1     -10.288   6.147  67.311  1.00  0.00    -0.219 C  
HETATM   12  O   UNL     1     -11.402   6.228  66.797  1.00  0.00    -0.229 OA 
BRANCH  11  13
HETATM   13  C   UNL     1      -9.007   6.216  66.504  1.00  0.00    -0.143 C  
BRANCH  13  14
HETATM   14  C   UNL     1      -8.664   7.646  66.097  1.00  0.00    -0.176 C  
BRANCH  14  15
HETATM   15  C   UNL     1      -8.174   8.488  67.278  1.00  0.00    -0.108 C  
BRANCH  15  16
HETATM   16  N   UNL     1      -8.571   9.904  67.266  1.00  0.00    -0.125 NA 
HETATM   17  C   UNL     1      -9.959  10.177  66.859  1.00  0.00    -0.207 C  
HETATM   18  C   UNL     1     -11.028   9.873  67.916  1.00  0.00    -0.281 C  
HETATM   19  C   UNL     1     -10.701  10.463  69.293  1.00  0.00    -0.237 C  
HETATM   20  C   UNL     1      -9.269  10.073  69.667  1.00  0.00    -0.236 C  
HETATM   21  C   UNL     1      -8.298  10.534  68.570  1.00  0.00    -0.129 C  
BRANCH  19  22
HETATM   22  O   UNL     1     -10.716  11.888  69.380  1.00  0.00    -0.113 OA 
BRANCH  22  23
HETATM   23  C   UNL     1     -11.887  12.617  69.003  1.00  0.00    -0.294 C  
BRANCH  23  24
HETATM   24  C   UNL     1     -11.480  13.549  67.860  1.00  0.00    -0.353 A  
HETATM   25  C   UNL     1     -12.271  13.685  66.703  1.00  0.00    -0.437 A  
HETATM   26  C   UNL     1     -11.897  14.551  65.673  1.00  0.00    -0.326 A  
HETATM   27  C   UNL     1     -10.294  14.294  67.943  1.00  0.00    -0.233 A  
HETATM   28  C   UNL     1     -10.723  15.294  65.782  1.00  0.00    -0.357 A  
HETATM   29  C   UNL     1      -9.921  15.161  66.913  1.00  0.00    -0.243 A  
ENDBRANCH  23  24
BRANCH  23  30
HETATM   30  C   UNL     1     -12.529  13.364  70.164  1.00  0.00    -0.243 A  
HETATM   31  C   UNL     1     -13.823  14.741  72.249  1.00  0.00    -0.590 A  
HETATM   32  C   UNL     1     -13.538  15.395  71.053  1.00  0.00    -0.465 A  
HETATM   33  C   UNL     1     -12.779  12.735  71.394  1.00  0.00    -0.353 A  
HETATM   34  C   UNL     1     -13.430  13.415  72.426  1.00  0.00    -0.685 A  
HETATM   35  C   UNL     1     -12.893  14.713  70.018  1.00  0.00    -0.094 A  
ENDBRANCH  23  30
ENDBRANCH  22  23
ENDBRANCH  19  22
ENDBRANCH  15  16
ENDBRANCH  14  15
ENDBRANCH  13  14
ENDBRANCH  11  13
ENDBRANCH   8  11
ENDBRANCH   2   5
TORSDOF 10
ENDMDL
MODEL       37
REMARK 921   NORMALIZED FREE ENERGY PREDICTED BY IDOCK:   -5.85 KCAL/MOL
REMARK 922        TOTAL FREE ENERGY PREDICTED BY IDOCK:  -12.20 KCAL/MOL
REMARK 923 INTER-LIGAND FREE ENERGY PREDICTED BY IDOCK:   -9.74 KCAL/MOL
REMARK 924 INTRA-LIGAND FREE ENERGY PREDICTED BY IDOCK:   -2.46 KCAL/MOL
REMARK 927      BINDING AFFINITY PREDICTED BY RF-SCORE:    0.00 PKD
ROOT
HETATM    1  C   UNL     1     -10.613   3.928  64.234  1.00  0.00    -0.239 C  
HETATM    2  C   UNL     1      -9.415   4.172  65.177  1.00  0.00    -0.173 C  
HETATM    3  C   UNL     1      -8.502   5.220  64.501  1.00  0.00    -0.133 C  
HETATM    4  C   UNL     1      -8.645   2.840  65.298  1.00  0.00    -0.107 C  
ENDROOT
BRANCH   2   5
HETATM    5  C   UNL     1      -9.832   4.674  66.566  1.00  0.00    -0.241 A  
HETATM    6  C   UNL     1      -9.454   4.029  67.752  1.00  0.00    -0.228 A  
HETATM    7  C   UNL     1      -9.871   4.499  69.006  1.00  0.00    -0.202 A  
HETATM    8  C   UNL     1     -10.688   5.627  69.100  1.00  0.00    -0.325 A  
HETATM    9  C   UNL     1     -10.646   5.817  66.682  1.00  0.00    -0.347 A  
HETATM   10  C   UNL     1     -11.067   6.287  67.927  1.00  0.00    -0.360 A  
BRANCH   8  11
HETATM   11  C   UNL     1     -11.132   6.084  70.448  1.00  0.00    -0.329 C  
HETATM   12  O   UNL     1     -12.188   6.704  70.560  1.00  0.00    -0.364 OA 
BRANCH  11  13
HETATM   13  C   UNL     1     -10.246   5.754  71.633  1.00  0.00    -0.253 C  
BRANCH  13  14
HETATM   14  C   UNL     1      -9.404   6.950  72.066  1.00  0.00    -0.146 C  
BRANCH  14  15
HETATM   15  C   UNL     1      -8.801   7.702  70.877  1.00  0.00    -0.146 C  
BRANCH  15  16
HETATM   16  N   UNL     1      -8.826   9.170  70.964  1.00  0.00    -0.223 NA 
HETATM   17  C   UNL     1      -7.888   9.879  70.078  1.00  0.00    -0.180 C  
HETATM   18  C   UNL     1      -8.298   9.947  68.602  1.00  0.00    -0.110 C  
HETATM   19  C   UNL     1      -9.748  10.404  68.397  1.00  0.00    -0.158 C  
HETATM   20  C   UNL     1     -10.658   9.569  69.301  1.00  0.00    -0.236 C  
HETATM   21  C   UNL     1     -10.193   9.682  70.760  1.00  0.00    -0.260 C  
BRANCH  19  22
HETATM   22  O   UNL     1     -10.031  11.756  68.758  1.00  0.00    -0.194 OA 
BRANCH  22  23
HETATM   23  C   UNL     1     -11.334  12.301  68.532  1.00  0.00    -0.286 C  
BRANCH  23  24
HETATM   24  C   UNL     1     -11.232  13.191  67.292  1.00  0.00    -0.319 A  
HETATM   25  C   UNL     1     -10.036  13.855  66.957  1.00  0.00    -0.256 A  
HETATM   26  C   UNL     1      -9.951  14.652  65.813  1.00  0.00    -0.365 A  
HETATM   27  C   UNL     1     -12.343  13.366  66.453  1.00  0.00    -0.381 A  
HETATM   28  C   UNL     1     -11.062  14.801  64.986  1.00  0.00    -0.412 A  
HETATM   29  C   UNL     1     -12.257  14.162  65.309  1.00  0.00    -0.440 A  
ENDBRANCH  23  24
BRANCH  23  30
HETATM   30  C   UNL     1     -11.892  13.042  69.738  1.00  0.00    -0.381 A  
HETATM   31  C   UNL     1     -12.840  14.356  72.039  1.00  0.00    -0.419 A  
HETATM   32  C   UNL     1     -13.108  13.003  71.848  1.00  0.00    -0.483 A  
HETATM   33  C   UNL     1     -11.673  14.417  69.922  1.00  0.00    -0.363 A  
HETATM   34  C   UNL     1     -12.135  15.067  71.068  1.00  0.00    -0.381 A  
HETATM   35  C   UNL     1     -12.640  12.350  70.705  1.00  0.00    -0.298 A  
ENDBRANCH  23  30
ENDBRANCH  22  23
ENDBRANCH  19  22
ENDBRANCH  15  16
ENDBRANCH  14  15
ENDBRANCH  13  14
ENDBRANCH  11  13
ENDBRANCH   8  11
ENDBRANCH   2   5
TORSDOF 10
ENDMDL
MODEL       38
REMARK 921   NORMALIZED FREE ENERGY PREDICTED BY IDOCK:   -5.81 KCAL/MOL
REMARK 922        TOTAL FREE ENERGY PREDICTED BY IDOCK:  -12.14 KCAL/MOL
REMARK 923 INTER-LIGAND FREE ENERGY PREDICTED BY IDOCK:  -10.21 KCAL/MOL
REMARK 924 INTRA-LIGAND FREE ENERGY PREDICTED BY IDOCK:   -1.92 KCAL/MOL
REMARK 927      BINDING AFFINITY PREDICTED BY RF-SCORE:    0.00 PKD
ROOT
HETATM    1  C   UNL     1     -10.262  19.559  68.528  1.00  0.00    -0.517 C  
HETATM    2  C   UNL     1      -9.463  18.801  67.446  1.00  0.00    -0.324 C  
HETATM    3  C   UNL     1      -8.054  18.528  68.017  1.00  0.00    -0.288 C  
HETATM    4  C   UNL     1      -9.337  19.738  66.225  1.00  0.00    -0.472 C  
ENDROOT
BRANCH   2   5
HETATM    5  C   UNL     1     -10.116  17.475  67.033  1.00  0.00    -0.323 A  
HETATM    6  C   UNL     1     -10.257  17.081  65.695  1.00  0.00    -0.196 A  
HETATM    7  C   UNL     1     -10.880  15.873  65.348  1.00  0.00    -0.361 A  
HETATM    8  C   UNL     1     -11.386  15.031  66.340  1.00  0.00    -0.275 A  
HETATM    9  C   UNL     1     -10.622  16.606  68.019  1.00  0.00    -0.338 A  
HETATM   10  C   UNL     1     -11.246  15.405  67.680  1.00  0.00    -0.311 A  
BRANCH   8  11
HETATM   11  C   UNL     1     -12.063  13.767  65.934  1.00  0.00    -0.433 C  
HETATM   12  O   UNL     1     -12.908  13.791  65.041  1.00  0.00    -0.693 OA 
BRANCH  11  13
HETATM   13  C   UNL     1     -11.670  12.492  66.654  1.00  0.00    -0.453 C  
BRANCH  13  14
HETATM   14  C   UNL     1     -10.706  11.644  65.831  1.00  0.00    -0.328 C  
BRANCH  14  15
HETATM   15  C   UNL     1      -9.460  11.240  66.623  1.00  0.00    -0.186 C  
BRANCH  15  16
HETATM   16  N   UNL     1      -9.696  10.398  67.806  1.00  0.00    -0.158 NA 
HETATM   17  C   UNL     1     -10.782   9.412  67.684  1.00  0.00    -0.230 C  
HETATM   18  C   UNL     1     -10.453   8.169  66.848  1.00  0.00    -0.379 C  
HETATM   19  C   UNL     1      -9.119   7.517  67.234  1.00  0.00    -0.124 C  
HETATM   20  C   UNL     1      -8.036   8.599  67.268  1.00  0.00    -0.101 C  
HETATM   21  C   UNL     1      -8.453   9.725  68.224  1.00  0.00    -0.114 C  
BRANCH  19  22
HETATM   22  O   UNL     1      -9.068   6.921  68.530  1.00  0.00    -0.129 OA 
BRANCH  22  23
HETATM   23  C   UNL     1     -10.172   6.149  69.008  1.00  0.00    -0.191 C  
BRANCH  23  24
HETATM   24  C   UNL     1     -10.688   6.847  70.268  1.00  0.00    -0.274 A  
HETATM   25  C   UNL     1      -9.863   7.699  71.029  1.00  0.00    -0.181 A  
HETATM   26  C   UNL     1     -10.350   8.344  72.168  1.00  0.00    -0.397 A  
HETATM   27  C   UNL     1     -12.009   6.649  70.697  1.00  0.00    -0.404 A  
HETATM   28  C   UNL     1     -11.670   8.144  72.568  1.00  0.00    -0.457 A  
HETATM   29  C   UNL     1     -12.495   7.294  71.836  1.00  0.00    -0.337 A  
ENDBRANCH  23  24
BRANCH  23  30
HETATM   30  C   UNL     1      -9.822   4.688  69.253  1.00  0.00    -0.260 A  
HETATM   31  C   UNL     1      -9.287   1.972  69.755  1.00  0.00    -0.158 A  
HETATM   32  C   UNL     1      -9.299   2.886  70.806  1.00  0.00    -0.222 A  
HETATM   33  C   UNL     1      -9.757   3.762  68.200  1.00  0.00    -0.113 A  
HETATM   34  C   UNL     1      -9.502   2.412  68.450  1.00  0.00    -0.219 A  
HETATM   35  C   UNL     1      -9.563   4.236  70.557  1.00  0.00    -0.267 A  
ENDBRANCH  23  30
ENDBRANCH  22  23
ENDBRANCH  19  22
ENDBRANCH  15  16
ENDBRANCH  14  15
ENDBRANCH  13  14
ENDBRANCH  11  13
ENDBRANCH   8  11
ENDBRANCH   2   5
TORSDOF 10
ENDMDL
MODEL       39
REMARK 921   NORMALIZED FREE ENERGY PREDICTED BY IDOCK:   -5.80 KCAL/MOL
REMARK 922        TOTAL FREE ENERGY PREDICTED BY IDOCK:  -12.13 KCAL/MOL
REMARK 923 INTER-LIGAND FREE ENERGY PREDICTED BY IDOCK:   -9.14 KCAL/MOL
REMARK 924 INTRA-LIGAND FREE ENERGY PREDICTED BY IDOCK:   -2.99 KCAL/MOL
REMARK 927      BINDING AFFINITY PREDICTED BY RF-SCORE:    0.00 PKD
ROOT
HETATM    1  C   UNL     1      -7.286  14.692  69.827  1.00  0.00    -0.058 C  
HETATM    2  C   UNL     1      -6.243  13.638  69.395  1.00  0.00    -0.109 C  
HETATM    3  C   UNL     1      -5.639  13.031  70.681  1.00  0.00    -0.178 C  
HETATM    4  C   UNL     1      -5.133  14.379  68.620  1.00  0.00    -0.096 C  
ENDROOT
BRANCH   2   5
HETATM    5  C   UNL     1      -6.839  12.519  68.530  1.00  0.00    -0.083 A  
HETATM    6  C   UNL     1      -7.956  11.768  68.924  1.00  0.00     0.009 A  
HETATM    7  C   UNL     1      -8.464  10.736  68.121  1.00  0.00    -0.125 A  
HETATM    8  C   UNL     1      -7.856  10.426  66.903  1.00  0.00    -0.114 A  
HETATM    9  C   UNL     1      -6.248  12.200  67.292  1.00  0.00    -0.152 A  
HETATM   10  C   UNL     1      -6.747  11.171  66.492  1.00  0.00    -0.128 A  
BRANCH   8  11
HETATM   11  C   UNL     1      -8.408   9.306  66.087  1.00  0.00    -0.119 C  
HETATM   12  O   UNL     1      -7.723   8.305  65.891  1.00  0.00    -0.082 OA 
BRANCH  11  13
HETATM   13  C   UNL     1      -9.810   9.461  65.533  1.00  0.00    -0.231 C  
BRANCH  13  14
HETATM   14  C   UNL     1      -9.846  10.385  64.319  1.00  0.00    -0.388 C  
BRANCH  14  15
HETATM   15  C   UNL     1     -10.953  11.437  64.419  1.00  0.00    -0.302 C  
BRANCH  15  16
HETATM   16  N   UNL     1     -11.050  12.150  65.702  1.00  0.00    -0.306 NA 
HETATM   17  C   UNL     1      -9.866  12.935  66.087  1.00  0.00    -0.270 C  
HETATM   18  C   UNL     1      -9.687  14.266  65.346  1.00  0.00    -0.135 C  
HETATM   19  C   UNL     1     -10.963  15.117  65.315  1.00  0.00    -0.395 C  
HETATM   20  C   UNL     1     -12.125  14.243  64.837  1.00  0.00    -0.442 C  
HETATM   21  C   UNL     1     -12.251  13.004  65.735  1.00  0.00    -0.453 C  
BRANCH  19  22
HETATM   22  O   UNL     1     -11.399  15.632  66.573  1.00  0.00    -0.128 OA 
BRANCH  22  23
HETATM   23  C   UNL     1     -10.447  15.911  67.603  1.00  0.00    -0.289 C  
BRANCH  23  24
HETATM   24  C   UNL     1     -11.101  15.519  68.929  1.00  0.00    -0.282 A  
HETATM   25  C   UNL     1     -11.064  16.372  70.049  1.00  0.00    -0.300 A  
HETATM   26  C   UNL     1     -11.679  16.011  71.250  1.00  0.00    -0.516 A  
HETATM   27  C   UNL     1     -11.760  14.287  69.057  1.00  0.00    -0.352 A  
HETATM   28  C   UNL     1     -12.340  14.789  71.351  1.00  0.00    -0.398 A  
HETATM   29  C   UNL     1     -12.376  13.927  70.258  1.00  0.00    -0.413 A  
ENDBRANCH  23  24
BRANCH  23  30
HETATM   30  C   UNL     1      -9.959  17.353  67.596  1.00  0.00    -0.300 A  
HETATM   31  C   UNL     1      -9.139  20.043  67.675  1.00  0.00    -0.441 A  
HETATM   32  C   UNL     1     -10.376  19.707  67.131  1.00  0.00    -0.581 A  
HETATM   33  C   UNL     1      -8.695  17.704  68.095  1.00  0.00    -0.265 A  
HETATM   34  C   UNL     1      -8.292  19.040  68.144  1.00  0.00    -0.347 A  
HETATM   35  C   UNL     1     -10.784  18.371  67.089  1.00  0.00    -0.366 A  
ENDBRANCH  23  30
ENDBRANCH  22  23
ENDBRANCH  19  22
ENDBRANCH  15  16
ENDBRANCH  14  15
ENDBRANCH  13  14
ENDBRANCH  11  13
ENDBRANCH   8  11
ENDBRANCH   2   5
TORSDOF 10
ENDMDL
MODEL       40
REMARK 921   NORMALIZED FREE ENERGY PREDICTED BY IDOCK:   -5.79 KCAL/MOL
REMARK 922        TOTAL FREE ENERGY PREDICTED BY IDOCK:  -12.11 KCAL/MOL
REMARK 923 INTER-LIGAND FREE ENERGY PREDICTED BY IDOCK:   -9.84 KCAL/MOL
REMARK 924 INTRA-LIGAND FREE ENERGY PREDICTED BY IDOCK:   -2.26 KCAL/MOL
REMARK 927      BINDING AFFINITY PREDICTED BY RF-SCORE:    0.00 PKD
ROOT
HETATM    1  C   UNL     1     -10.499  19.116  66.314  1.00  0.00    -0.551 C  
HETATM    2  C   UNL     1      -9.909  17.798  66.862  1.00  0.00    -0.312 C  
HETATM    3  C   UNL     1     -10.131  17.791  68.390  1.00  0.00    -0.376 C  
HETATM    4  C   UNL     1      -8.392  17.818  66.575  1.00  0.00    -0.294 C  
ENDROOT
BRANCH   2   5
HETATM    5  C   UNL     1     -10.550  16.548  66.244  1.00  0.00    -0.223 A  
HETATM    6  C   UNL     1     -10.682  15.338  66.941  1.00  0.00    -0.313 A  
HETATM    7  C   UNL     1     -11.252  14.206  66.340  1.00  0.00    -0.328 A  
HETATM    8  C   UNL     1     -11.698  14.258  65.019  1.00  0.00    -0.383 A  
HETATM    9  C   UNL     1     -11.018  16.584  64.916  1.00  0.00    -0.223 A  
HETATM   10  C   UNL     1     -11.582  15.459  64.313  1.00  0.00    -0.196 A  
BRANCH   8  11
HETATM   11  C   UNL     1     -12.277  13.028  64.406  1.00  0.00    -0.406 C  
HETATM   12  O   UNL     1     -13.290  12.528  64.889  1.00  0.00    -0.702 OA 
BRANCH  11  13
HETATM   13  C   UNL     1     -11.574  12.445  63.195  1.00  0.00    -0.291 C  
BRANCH  13  14
HETATM   14  C   UNL     1     -10.730  11.226  63.556  1.00  0.00    -0.408 C  
BRANCH  14  15
HETATM   15  C   UNL     1      -9.544  11.582  64.456  1.00  0.00    -0.154 C  
BRANCH  15  16
HETATM   16  N   UNL     1      -8.938  10.463  65.194  1.00  0.00    -0.180 NA 
HETATM   17  C   UNL     1      -8.022  10.837  66.283  1.00  0.00    -0.160 C  
HETATM   18  C   UNL     1      -8.693  11.339  67.568  1.00  0.00    -0.138 C  
HETATM   19  C   UNL     1      -9.828  10.426  68.052  1.00  0.00    -0.150 C  
HETATM   20  C   UNL     1     -10.768  10.147  66.877  1.00  0.00    -0.231 C  
HETATM   21  C   UNL     1      -9.977   9.551  65.704  1.00  0.00    -0.199 C  
BRANCH  19  22
HETATM   22  O   UNL     1      -9.435   9.132  68.509  1.00  0.00    -0.145 OA 
BRANCH  22  23
HETATM   23  C   UNL     1     -10.420   8.118  68.723  1.00  0.00    -0.174 C  
BRANCH  23  24
HETATM   24  C   UNL     1     -10.596   7.985  70.237  1.00  0.00    -0.231 A  
HETATM   25  C   UNL     1      -9.759   8.670  71.139  1.00  0.00    -0.287 A  
HETATM   26  C   UNL     1      -9.940   8.553  72.520  1.00  0.00    -0.322 A  
HETATM   27  C   UNL     1     -11.607   7.167  70.763  1.00  0.00    -0.358 A  
HETATM   28  C   UNL     1     -10.960   7.747  73.020  1.00  0.00    -0.442 A  
HETATM   29  C   UNL     1     -11.788   7.051  72.143  1.00  0.00    -0.314 A  
ENDBRANCH  23  24
BRANCH  23  30
HETATM   30  C   UNL     1     -10.072   6.794  68.058  1.00  0.00    -0.183 A  
HETATM   31  C   UNL     1      -9.458   4.288  66.933  1.00  0.00    -0.205 A  
HETATM   32  C   UNL     1      -8.600   4.863  67.868  1.00  0.00    -0.103 A  
HETATM   33  C   UNL     1     -10.900   6.224  67.078  1.00  0.00    -0.458 A  
HETATM   34  C   UNL     1     -10.601   4.975  66.527  1.00  0.00    -0.289 A  
HETATM   35  C   UNL     1      -8.902   6.108  68.425  1.00  0.00    -0.113 A  
ENDBRANCH  23  30
ENDBRANCH  22  23
ENDBRANCH  19  22
ENDBRANCH  15  16
ENDBRANCH  14  15
ENDBRANCH  13  14
ENDBRANCH  11  13
ENDBRANCH   8  11
ENDBRANCH   2   5
TORSDOF 10
ENDMDL
MODEL       41
REMARK 921   NORMALIZED FREE ENERGY PREDICTED BY IDOCK:   -5.77 KCAL/MOL
REMARK 922        TOTAL FREE ENERGY PREDICTED BY IDOCK:  -12.06 KCAL/MOL
REMARK 923 INTER-LIGAND FREE ENERGY PREDICTED BY IDOCK:   -9.40 KCAL/MOL
REMARK 924 INTRA-LIGAND FREE ENERGY PREDICTED BY IDOCK:   -2.67 KCAL/MOL
REMARK 927      BINDING AFFINITY PREDICTED BY RF-SCORE:    0.00 PKD
ROOT
HETATM    1  C   UNL     1      -8.394   5.280  64.586  1.00  0.00    -0.141 C  
HETATM    2  C   UNL     1      -9.261   4.249  65.339  1.00  0.00    -0.152 C  
HETATM    3  C   UNL     1      -8.383   3.003  65.591  1.00  0.00    -0.098 C  
HETATM    4  C   UNL     1     -10.429   3.860  64.407  1.00  0.00    -0.238 C  
ENDROOT
BRANCH   2   5
HETATM    5  C   UNL     1      -9.801   4.776  66.676  1.00  0.00    -0.233 A  
HETATM    6  C   UNL     1     -10.658   5.882  66.766  1.00  0.00    -0.368 A  
HETATM    7  C   UNL     1     -11.115   6.355  68.005  1.00  0.00    -0.365 A  
HETATM    8  C   UNL     1     -10.716   5.732  69.188  1.00  0.00    -0.370 A  
HETATM    9  C   UNL     1      -9.419   4.153  67.880  1.00  0.00    -0.219 A  
HETATM   10  C   UNL     1      -9.869   4.622  69.116  1.00  0.00    -0.242 A  
BRANCH   8  11
HETATM   11  C   UNL     1     -11.202   6.276  70.488  1.00  0.00    -0.354 C  
HETATM   12  O   UNL     1     -12.324   6.775  70.555  1.00  0.00    -0.326 OA 
BRANCH  11  13
HETATM   13  C   UNL     1     -10.274   6.186  71.683  1.00  0.00    -0.235 C  
BRANCH  13  14
HETATM   14  C   UNL     1      -9.622   7.528  72.003  1.00  0.00    -0.189 C  
BRANCH  14  15
HETATM   15  C   UNL     1      -8.884   8.120  70.800  1.00  0.00    -0.141 C  
BRANCH  15  16
HETATM   16  N   UNL     1      -8.937   9.584  70.670  1.00  0.00    -0.223 NA 
HETATM   17  C   UNL     1      -8.011  10.172  69.688  1.00  0.00    -0.173 C  
HETATM   18  C   UNL     1      -8.420  10.013  68.218  1.00  0.00    -0.111 C  
HETATM   19  C   UNL     1      -9.878  10.408  67.950  1.00  0.00    -0.154 C  
HETATM   20  C   UNL     1     -10.773   9.698  68.968  1.00  0.00    -0.232 C  
HETATM   21  C   UNL     1     -10.313  10.035  70.393  1.00  0.00    -0.205 C  
BRANCH  19  22
HETATM   22  O   UNL     1     -10.187  11.793  68.107  1.00  0.00    -0.190 OA 
BRANCH  22  23
HETATM   23  C   UNL     1      -9.903  12.716  67.052  1.00  0.00    -0.225 C  
BRANCH  23  24
HETATM   24  C   UNL     1     -10.181  14.116  67.602  1.00  0.00    -0.241 A  
HETATM   25  C   UNL     1     -10.957  14.312  68.762  1.00  0.00    -0.271 A  
HETATM   26  C   UNL     1     -11.190  15.594  69.263  1.00  0.00    -0.320 A  
HETATM   27  C   UNL     1      -9.663  15.247  66.954  1.00  0.00    -0.243 A  
HETATM   28  C   UNL     1     -10.654  16.703  68.612  1.00  0.00    -0.337 A  
HETATM   29  C   UNL     1      -9.896  16.529  67.457  1.00  0.00    -0.248 A  
ENDBRANCH  23  24
BRANCH  23  30
HETATM   30  C   UNL     1     -10.679  12.425  65.776  1.00  0.00    -0.301 A  
HETATM   31  C   UNL     1     -12.125  12.012  63.398  1.00  0.00    -0.597 A  
HETATM   32  C   UNL     1     -12.779  12.461  64.542  1.00  0.00    -0.404 A  
HETATM   33  C   UNL     1     -10.045  11.926  64.627  1.00  0.00    -0.301 A  
HETATM   34  C   UNL     1     -10.761  11.730  63.444  1.00  0.00    -0.468 A  
HETATM   35  C   UNL     1     -12.063  12.665  65.724  1.00  0.00    -0.484 A  
ENDBRANCH  23  30
ENDBRANCH  22  23
ENDBRANCH  19  22
ENDBRANCH  15  16
ENDBRANCH  14  15
ENDBRANCH  13  14
ENDBRANCH  11  13
ENDBRANCH   8  11
ENDBRANCH   2   5
TORSDOF 10
ENDMDL
MODEL       42
REMARK 921   NORMALIZED FREE ENERGY PREDICTED BY IDOCK:   -5.75 KCAL/MOL
REMARK 922        TOTAL FREE ENERGY PREDICTED BY IDOCK:  -12.04 KCAL/MOL
REMARK 923 INTER-LIGAND FREE ENERGY PREDICTED BY IDOCK:  -10.13 KCAL/MOL
REMARK 924 INTRA-LIGAND FREE ENERGY PREDICTED BY IDOCK:   -1.91 KCAL/MOL
REMARK 927      BINDING AFFINITY PREDICTED BY RF-SCORE:    0.00 PKD
ROOT
HETATM    1  C   UNL     1      -8.129   2.329  63.999  1.00  0.00    -0.081 C  
HETATM    2  C   UNL     1      -9.301   3.316  64.191  1.00  0.00    -0.132 C  
HETATM    3  C   UNL     1     -10.578   2.624  63.666  1.00  0.00    -0.166 C  
HETATM    4  C   UNL     1      -9.007   4.555  63.319  1.00  0.00    -0.132 C  
ENDROOT
BRANCH   2   5
HETATM    5  C   UNL     1      -9.506   3.731  65.654  1.00  0.00    -0.170 A  
HETATM    6  C   UNL     1      -9.133   2.918  66.734  1.00  0.00    -0.171 A  
HETATM    7  C   UNL     1      -9.355   3.316  68.061  1.00  0.00    -0.245 A  
HETATM    8  C   UNL     1      -9.966   4.540  68.337  1.00  0.00    -0.103 A  
HETATM    9  C   UNL     1     -10.110   4.968  65.953  1.00  0.00    -0.194 A  
HETATM   10  C   UNL     1     -10.337   5.366  67.272  1.00  0.00    -0.273 A  
BRANCH   8  11
HETATM   11  C   UNL     1     -10.209   4.919  69.758  1.00  0.00    -0.214 C  
HETATM   12  O   UNL     1      -9.596   4.341  70.653  1.00  0.00    -0.158 OA 
BRANCH  11  13
HETATM   13  C   UNL     1     -11.216   6.018  70.034  1.00  0.00    -0.425 C  
BRANCH  13  14
HETATM   14  C   UNL     1     -11.195   6.459  71.494  1.00  0.00    -0.334 C  
BRANCH  14  15
HETATM   15  C   UNL     1     -12.179   7.597  71.775  1.00  0.00    -0.311 C  
BRANCH  15  16
HETATM   16  N   UNL     1     -11.580   8.913  72.048  1.00  0.00    -0.367 NA 
HETATM   17  C   UNL     1     -10.333   9.210  71.325  1.00  0.00    -0.334 C  
HETATM   18  C   UNL     1     -10.499   9.578  69.846  1.00  0.00    -0.269 C  
HETATM   19  C   UNL     1     -11.576  10.643  69.605  1.00  0.00    -0.296 C  
HETATM   20  C   UNL     1     -12.856  10.220  70.331  1.00  0.00    -0.202 C  
HETATM   21  C   UNL     1     -12.560   9.990  71.820  1.00  0.00    -0.409 C  
BRANCH  19  22
HETATM   22  O   UNL     1     -11.291  11.944  70.117  1.00  0.00    -0.131 OA 
BRANCH  22  23
HETATM   23  C   UNL     1     -12.084  13.064  69.713  1.00  0.00    -0.258 C  
BRANCH  23  24
HETATM   24  C   UNL     1     -11.394  13.678  68.493  1.00  0.00    -0.325 A  
HETATM   25  C   UNL     1      -9.991  13.691  68.369  1.00  0.00    -0.235 A  
HETATM   26  C   UNL     1      -9.373  14.241  67.243  1.00  0.00    -0.215 A  
HETATM   27  C   UNL     1     -12.156  14.249  67.462  1.00  0.00    -0.347 A  
HETATM   28  C   UNL     1     -10.149  14.789  66.224  1.00  0.00    -0.299 A  
HETATM   29  C   UNL     1     -11.537  14.797  66.336  1.00  0.00    -0.301 A  
ENDBRANCH  23  24
BRANCH  23  30
HETATM   30  C   UNL     1     -12.307  14.075  70.828  1.00  0.00    -0.443 A  
HETATM   31  C   UNL     1     -12.651  15.873  72.965  1.00  0.00    -0.606 A  
HETATM   32  C   UNL     1     -13.329  14.657  72.961  1.00  0.00    -0.527 A  
HETATM   33  C   UNL     1     -11.670  15.326  70.824  1.00  0.00    -0.377 A  
HETATM   34  C   UNL     1     -11.832  16.215  71.889  1.00  0.00    -0.605 A  
HETATM   35  C   UNL     1     -13.160  13.764  71.900  1.00  0.00    -0.474 A  
ENDBRANCH  23  30
ENDBRANCH  22  23
ENDBRANCH  19  22
ENDBRANCH  15  16
ENDBRANCH  14  15
ENDBRANCH  13  14
ENDBRANCH  11  13
ENDBRANCH   8  11
ENDBRANCH   2   5
TORSDOF 10
ENDMDL
MODEL       43
REMARK 921   NORMALIZED FREE ENERGY PREDICTED BY IDOCK:   -5.74 KCAL/MOL
REMARK 922        TOTAL FREE ENERGY PREDICTED BY IDOCK:  -12.02 KCAL/MOL
REMARK 923 INTER-LIGAND FREE ENERGY PREDICTED BY IDOCK:   -9.18 KCAL/MOL
REMARK 924 INTRA-LIGAND FREE ENERGY PREDICTED BY IDOCK:   -2.84 KCAL/MOL
REMARK 927      BINDING AFFINITY PREDICTED BY RF-SCORE:    0.00 PKD
ROOT
HETATM    1  C   UNL     1      -9.495   5.771  73.367  1.00  0.00    -0.138 C  
HETATM    2  C   UNL     1     -10.333   4.666  72.687  1.00  0.00    -0.253 C  
HETATM    3  C   UNL     1     -11.822   5.001  72.927  1.00  0.00    -0.127 C  
HETATM    4  C   UNL     1      -9.998   3.334  73.393  1.00  0.00    -0.180 C  
ENDROOT
BRANCH   2   5
HETATM    5  C   UNL     1     -10.069   4.550  71.180  1.00  0.00    -0.218 A  
HETATM    6  C   UNL     1      -9.400   3.459  70.607  1.00  0.00    -0.232 A  
HETATM    7  C   UNL     1      -9.152   3.394  69.228  1.00  0.00    -0.199 A  
HETATM    8  C   UNL     1      -9.565   4.428  68.388  1.00  0.00    -0.203 A  
HETATM    9  C   UNL     1     -10.489   5.578  70.314  1.00  0.00    -0.365 A  
HETATM   10  C   UNL     1     -10.242   5.520  68.941  1.00  0.00    -0.284 A  
BRANCH   8  11
HETATM   11  C   UNL     1      -9.264   4.336  66.931  1.00  0.00    -0.148 C  
HETATM   12  O   UNL     1      -8.987   3.245  66.437  1.00  0.00    -0.135 OA 
BRANCH  11  13
HETATM   13  C   UNL     1      -9.316   5.614  66.117  1.00  0.00    -0.167 C  
BRANCH  13  14
HETATM   14  C   UNL     1      -7.995   6.376  66.164  1.00  0.00    -0.112 C  
BRANCH  14  15
HETATM   15  C   UNL     1      -8.136   7.822  65.683  1.00  0.00    -0.129 C  
BRANCH  15  16
HETATM   16  N   UNL     1      -8.114   8.853  66.731  1.00  0.00    -0.110 NA 
HETATM   17  C   UNL     1      -8.254  10.242  66.264  1.00  0.00    -0.131 C  
HETATM   18  C   UNL     1      -9.673  10.664  65.861  1.00  0.00    -0.273 C  
HETATM   19  C   UNL     1     -10.733  10.293  66.906  1.00  0.00    -0.184 C  
HETATM   20  C   UNL     1     -10.559   8.819  67.280  1.00  0.00    -0.303 C  
HETATM   21  C   UNL     1      -9.125   8.569  67.765  1.00  0.00    -0.135 C  
BRANCH  19  22
HETATM   22  O   UNL     1     -10.651  10.989  68.150  1.00  0.00    -0.173 OA 
BRANCH  22  23
HETATM   23  C   UNL     1     -11.818  11.147  68.961  1.00  0.00    -0.348 C  
BRANCH  23  24
HETATM   24  C   UNL     1     -11.906  12.631  69.324  1.00  0.00    -0.358 A  
HETATM   25  C   UNL     1     -12.195  13.052  70.637  1.00  0.00    -0.390 A  
HETATM   26  C   UNL     1     -12.258  14.410  70.960  1.00  0.00    -0.422 A  
HETATM   27  C   UNL     1     -11.700  13.613  68.344  1.00  0.00    -0.393 A  
HETATM   28  C   UNL     1     -12.035  15.369  69.974  1.00  0.00    -0.383 A  
HETATM   29  C   UNL     1     -11.762  14.970  68.668  1.00  0.00    -0.363 A  
ENDBRANCH  23  24
BRANCH  23  30
HETATM   30  C   UNL     1     -11.823  10.245  70.187  1.00  0.00    -0.343 A  
HETATM   31  C   UNL     1     -11.785   8.671  72.519  1.00  0.00    -0.330 A  
HETATM   32  C   UNL     1     -10.598   8.952  71.848  1.00  0.00    -0.419 A  
HETATM   33  C   UNL     1     -13.016   9.911  70.848  1.00  0.00    -0.351 A  
HETATM   34  C   UNL     1     -12.996   9.137  72.011  1.00  0.00    -0.496 A  
HETATM   35  C   UNL     1     -10.615   9.732  70.689  1.00  0.00    -0.382 A  
ENDBRANCH  23  30
ENDBRANCH  22  23
ENDBRANCH  19  22
ENDBRANCH  15  16
ENDBRANCH  14  15
ENDBRANCH  13  14
ENDBRANCH  11  13
ENDBRANCH   8  11
ENDBRANCH   2   5
TORSDOF 10
ENDMDL
MODEL       44
REMARK 921   NORMALIZED FREE ENERGY PREDICTED BY IDOCK:   -5.73 KCAL/MOL
REMARK 922        TOTAL FREE ENERGY PREDICTED BY IDOCK:  -12.01 KCAL/MOL
REMARK 923 INTER-LIGAND FREE ENERGY PREDICTED BY IDOCK:   -9.29 KCAL/MOL
REMARK 924 INTRA-LIGAND FREE ENERGY PREDICTED BY IDOCK:   -2.72 KCAL/MOL
REMARK 927      BINDING AFFINITY PREDICTED BY RF-SCORE:    0.00 PKD
ROOT
HETATM    1  C   UNL     1      -6.064  12.367  70.079  1.00  0.00    -0.123 C  
HETATM    2  C   UNL     1      -6.569  12.899  68.720  1.00  0.00    -0.090 C  
HETATM    3  C   UNL     1      -8.014  12.388  68.532  1.00  0.00    -0.110 C  
HETATM    4  C   UNL     1      -5.672  12.287  67.623  1.00  0.00    -0.113 C  
ENDROOT
BRANCH   2   5
HETATM    5  C   UNL     1      -6.550  14.431  68.629  1.00  0.00    -0.088 A  
HETATM    6  C   UNL     1      -6.655  15.261  69.755  1.00  0.00    -0.177 A  
HETATM    7  C   UNL     1      -6.659  16.658  69.636  1.00  0.00    -0.154 A  
HETATM    8  C   UNL     1      -6.565  17.260  68.381  1.00  0.00    -0.174 A  
HETATM    9  C   UNL     1      -6.444  15.057  67.372  1.00  0.00    -0.017 A  
HETATM   10  C   UNL     1      -6.451  16.447  67.249  1.00  0.00    -0.222 A  
BRANCH   8  11
HETATM   11  C   UNL     1      -6.596  18.748  68.291  1.00  0.00    -0.225 C  
HETATM   12  O   UNL     1      -5.618  19.349  67.851  1.00  0.00    -0.191 OA 
BRANCH  11  13
HETATM   13  C   UNL     1      -7.854  19.457  68.752  1.00  0.00    -0.392 C  
BRANCH  13  14
HETATM   14  C   UNL     1      -8.741  19.868  67.581  1.00  0.00    -0.395 C  
BRANCH  14  15
HETATM   15  C   UNL     1      -9.011  18.710  66.617  1.00  0.00    -0.306 C  
BRANCH  15  16
HETATM   16  N   UNL     1     -10.386  18.188  66.608  1.00  0.00    -0.372 NA 
HETATM   17  C   UNL     1     -10.747  17.357  65.448  1.00  0.00    -0.035 C  
HETATM   18  C   UNL     1     -10.190  15.928  65.461  1.00  0.00    -0.394 C  
HETATM   19  C   UNL     1     -10.424  15.200  66.791  1.00  0.00    -0.283 C  
HETATM   20  C   UNL     1      -9.958  16.105  67.935  1.00  0.00    -0.239 C  
HETATM   21  C   UNL     1     -10.676  17.459  67.856  1.00  0.00    -0.351 C  
BRANCH  19  22
HETATM   22  O   UNL     1     -11.784  14.901  67.107  1.00  0.00    -0.356 OA 
BRANCH  22  23
HETATM   23  C   UNL     1     -12.281  13.570  66.945  1.00  0.00    -0.327 C  
BRANCH  23  24
HETATM   24  C   UNL     1     -12.191  12.895  68.315  1.00  0.00    -0.003 A  
HETATM   25  C   UNL     1     -12.264  13.638  69.509  1.00  0.00    -0.316 A  
HETATM   26  C   UNL     1     -12.196  13.008  70.754  1.00  0.00    -0.359 A  
HETATM   27  C   UNL     1     -12.031  11.504  68.410  1.00  0.00    -0.268 A  
HETATM   28  C   UNL     1     -12.052  11.624  70.826  1.00  0.00    -0.383 A  
HETATM   29  C   UNL     1     -11.964  10.875  69.655  1.00  0.00    -0.414 A  
ENDBRANCH  23  24
BRANCH  23  30
HETATM   30  C   UNL     1     -11.558  12.786  65.859  1.00  0.00    -0.428 A  
HETATM   31  C   UNL     1     -10.187  11.445  63.800  1.00  0.00    -0.433 A  
HETATM   32  C   UNL     1     -11.404  12.069  63.537  1.00  0.00    -0.528 A  
HETATM   33  C   UNL     1     -10.355  12.110  66.119  1.00  0.00    -0.264 A  
HETATM   34  C   UNL     1      -9.670  11.453  65.095  1.00  0.00    -0.280 A  
HETATM   35  C   UNL     1     -12.087  12.734  64.559  1.00  0.00    -0.478 A  
ENDBRANCH  23  30
ENDBRANCH  22  23
ENDBRANCH  19  22
ENDBRANCH  15  16
ENDBRANCH  14  15
ENDBRANCH  13  14
ENDBRANCH  11  13
ENDBRANCH   8  11
ENDBRANCH   2   5
TORSDOF 10
ENDMDL
MODEL       45
REMARK 921   NORMALIZED FREE ENERGY PREDICTED BY IDOCK:   -5.71 KCAL/MOL
REMARK 922        TOTAL FREE ENERGY PREDICTED BY IDOCK:  -11.98 KCAL/MOL
REMARK 923 INTER-LIGAND FREE ENERGY PREDICTED BY IDOCK:   -9.50 KCAL/MOL
REMARK 924 INTRA-LIGAND FREE ENERGY PREDICTED BY IDOCK:   -2.48 KCAL/MOL
REMARK 927      BINDING AFFINITY PREDICTED BY RF-SCORE:    0.00 PKD
ROOT
HETATM    1  C   UNL     1     -10.499  19.457  66.567  1.00  0.00    -0.572 C  
HETATM    2  C   UNL     1      -9.885  18.147  67.108  1.00  0.00    -0.319 C  
HETATM    3  C   UNL     1     -10.134  18.116  68.632  1.00  0.00    -0.406 C  
HETATM    4  C   UNL     1      -8.365  18.209  66.848  1.00  0.00    -0.258 C  
ENDROOT
BRANCH   2   5
HETATM    5  C   UNL     1     -10.484  16.890  66.463  1.00  0.00    -0.253 A  
HETATM    6  C   UNL     1     -10.732  15.712  67.183  1.00  0.00    -0.314 A  
HETATM    7  C   UNL     1     -11.259  14.571  66.560  1.00  0.00    -0.344 A  
HETATM    8  C   UNL     1     -11.544  14.582  65.194  1.00  0.00    -0.371 A  
HETATM    9  C   UNL     1     -10.790  16.885  65.089  1.00  0.00    -0.105 A  
HETATM   10  C   UNL     1     -11.311  15.751  64.463  1.00  0.00    -0.324 A  
BRANCH   8  11
HETATM   11  C   UNL     1     -12.080  13.343  64.560  1.00  0.00    -0.409 C  
HETATM   12  O   UNL     1     -13.072  12.797  65.040  1.00  0.00    -0.811 OA 
BRANCH  11  13
HETATM   13  C   UNL     1     -11.364  12.809  63.335  1.00  0.00    -0.395 C  
BRANCH  13  14
HETATM   14  C   UNL     1     -10.791  11.415  63.570  1.00  0.00    -0.430 C  
BRANCH  14  15
HETATM   15  C   UNL     1      -9.876  11.359  64.796  1.00  0.00    -0.259 C  
BRANCH  15  16
HETATM   16  N   UNL     1      -9.957  10.131  65.603  1.00  0.00    -0.275 NA 
HETATM   17  C   UNL     1      -8.768   9.820  66.414  1.00  0.00    -0.131 C  
HETATM   18  C   UNL     1      -8.599  10.661  67.686  1.00  0.00    -0.118 C  
HETATM   19  C   UNL     1      -9.875  10.738  68.533  1.00  0.00    -0.177 C  
HETATM   20  C   UNL     1     -11.043  11.135  67.626  1.00  0.00    -0.348 C  
HETATM   21  C   UNL     1     -11.157  10.146  66.458  1.00  0.00     0.281 C  
BRANCH  19  22
HETATM   22  O   UNL     1     -10.295   9.517  69.141  1.00  0.00    -0.192 OA 
BRANCH  22  23
HETATM   23  C   UNL     1      -9.324   8.573  69.600  1.00  0.00    -0.157 C  
BRANCH  23  24
HETATM   24  C   UNL     1      -9.455   7.335  68.711  1.00  0.00    -0.142 A  
HETATM   25  C   UNL     1      -8.377   6.449  68.517  1.00  0.00    -0.113 A  
HETATM   26  C   UNL     1      -8.513   5.313  67.716  1.00  0.00    -0.105 A  
HETATM   27  C   UNL     1     -10.666   7.054  68.062  1.00  0.00    -0.252 A  
HETATM   28  C   UNL     1      -9.730   5.045  67.092  1.00  0.00    -0.180 A  
HETATM   29  C   UNL     1     -10.802   5.918  67.261  1.00  0.00    -0.351 A  
ENDBRANCH  23  24
BRANCH  23  30
HETATM   30  C   UNL     1      -9.458   8.245  71.080  1.00  0.00    -0.197 A  
HETATM   31  C   UNL     1      -9.710   7.519  73.787  1.00  0.00    -0.303 A  
HETATM   32  C   UNL     1     -10.808   7.426  72.935  1.00  0.00    -0.402 A  
HETATM   33  C   UNL     1      -8.376   8.380  71.964  1.00  0.00    -0.231 A  
HETATM   34  C   UNL     1      -8.498   8.010  73.305  1.00  0.00    -0.284 A  
HETATM   35  C   UNL     1     -10.685   7.788  71.591  1.00  0.00    -0.257 A  
ENDBRANCH  23  30
ENDBRANCH  22  23
ENDBRANCH  19  22
ENDBRANCH  15  16
ENDBRANCH  14  15
ENDBRANCH  13  14
ENDBRANCH  11  13
ENDBRANCH   8  11
ENDBRANCH   2   5
TORSDOF 10
ENDMDL
MODEL       46
REMARK 921   NORMALIZED FREE ENERGY PREDICTED BY IDOCK:   -5.71 KCAL/MOL
REMARK 922        TOTAL FREE ENERGY PREDICTED BY IDOCK:  -11.97 KCAL/MOL
REMARK 923 INTER-LIGAND FREE ENERGY PREDICTED BY IDOCK:  -10.08 KCAL/MOL
REMARK 924 INTRA-LIGAND FREE ENERGY PREDICTED BY IDOCK:   -1.89 KCAL/MOL
REMARK 927      BINDING AFFINITY PREDICTED BY RF-SCORE:    0.00 PKD
ROOT
HETATM    1  C   UNL     1     -14.206  15.560  72.309  1.00  0.00    -0.617 C  
HETATM    2  C   UNL     1     -12.930  14.713  72.113  1.00  0.00    -0.421 C  
HETATM    3  C   UNL     1     -13.304  13.241  72.392  1.00  0.00    -0.616 C  
HETATM    4  C   UNL     1     -11.903  15.178  73.168  1.00  0.00    -0.438 C  
ENDROOT
BRANCH   2   5
HETATM    5  C   UNL     1     -12.336  14.834  70.703  1.00  0.00    -0.401 A  
HETATM    6  C   UNL     1     -11.607  15.954  70.279  1.00  0.00    -0.365 A  
HETATM    7  C   UNL     1     -11.097  16.046  68.976  1.00  0.00    -0.320 A  
HETATM    8  C   UNL     1     -11.314  15.015  68.060  1.00  0.00    -0.339 A  
HETATM    9  C   UNL     1     -12.534  13.800  69.769  1.00  0.00    -0.216 A  
HETATM   10  C   UNL     1     -12.031  13.887  68.469  1.00  0.00    -0.394 A  
BRANCH   8  11
HETATM   11  C   UNL     1     -10.778  15.157  66.676  1.00  0.00    -0.310 C  
HETATM   12  O   UNL     1      -9.704  15.729  66.497  1.00  0.00    -0.238 OA 
BRANCH  11  13
HETATM   13  C   UNL     1     -11.596  14.579  65.539  1.00  0.00    -0.350 C  
BRANCH  13  14
HETATM   14  C   UNL     1     -10.755  13.701  64.617  1.00  0.00    -0.433 C  
BRANCH  14  15
HETATM   15  C   UNL     1      -9.984  12.622  65.381  1.00  0.00    -0.214 C  
BRANCH  15  16
HETATM   16  N   UNL     1     -10.706  11.362  65.618  1.00  0.00    -0.261 NA 
HETATM   17  C   UNL     1     -10.021  10.139  65.168  1.00  0.00    -0.309 C  
HETATM   18  C   UNL     1      -8.868   9.662  66.061  1.00  0.00    -0.178 C  
HETATM   19  C   UNL     1      -9.240   9.606  67.549  1.00  0.00    -0.133 C  
HETATM   20  C   UNL     1      -9.879  10.939  67.946  1.00  0.00    -0.189 C  
HETATM   21  C   UNL     1     -11.081  11.233  67.037  1.00  0.00    -0.293 C  
BRANCH  19  22
HETATM   22  O   UNL     1     -10.210   8.623  67.912  1.00  0.00    -0.197 OA 
BRANCH  22  23
HETATM   23  C   UNL     1      -9.952   7.726  68.995  1.00  0.00    -0.182 C  
BRANCH  23  24
HETATM   24  C   UNL     1     -11.061   7.945  70.025  1.00  0.00    -0.165 A  
HETATM   25  C   UNL     1     -11.802   6.868  70.550  1.00  0.00    -0.385 A  
HETATM   26  C   UNL     1     -12.802   7.079  71.503  1.00  0.00    -0.420 A  
HETATM   27  C   UNL     1     -11.366   9.239  70.473  1.00  0.00    -0.306 A  
HETATM   28  C   UNL     1     -13.079   8.371  71.944  1.00  0.00    -0.383 A  
HETATM   29  C   UNL     1     -12.365   9.449  71.426  1.00  0.00    -0.439 A  
ENDBRANCH  23  24
BRANCH  23  30
HETATM   30  C   UNL     1      -8.561   7.890  69.591  1.00  0.00    -0.133 A  
HETATM   31  C   UNL     1      -5.963   8.273  70.602  1.00  0.00    -0.032 A  
HETATM   32  C   UNL     1      -6.156   7.531  69.440  1.00  0.00    -0.031 A  
HETATM   33  C   UNL     1      -8.352   8.594  70.788  1.00  0.00    -0.172 A  
HETATM   34  C   UNL     1      -7.062   8.793  71.285  1.00  0.00    -0.096 A  
HETATM   35  C   UNL     1      -7.446   7.338  68.938  1.00  0.00    -0.101 A  
ENDBRANCH  23  30
ENDBRANCH  22  23
ENDBRANCH  19  22
ENDBRANCH  15  16
ENDBRANCH  14  15
ENDBRANCH  13  14
ENDBRANCH  11  13
ENDBRANCH   8  11
ENDBRANCH   2   5
TORSDOF 10
ENDMDL
MODEL       47
REMARK 921   NORMALIZED FREE ENERGY PREDICTED BY IDOCK:   -5.70 KCAL/MOL
REMARK 922        TOTAL FREE ENERGY PREDICTED BY IDOCK:  -11.97 KCAL/MOL
REMARK 923 INTER-LIGAND FREE ENERGY PREDICTED BY IDOCK:   -9.22 KCAL/MOL
REMARK 924 INTRA-LIGAND FREE ENERGY PREDICTED BY IDOCK:   -2.75 KCAL/MOL
REMARK 927      BINDING AFFINITY PREDICTED BY RF-SCORE:    0.00 PKD
ROOT
HETATM    1  C   UNL     1      -7.144  10.840  69.692  1.00  0.00    -0.136 C  
HETATM    2  C   UNL     1      -8.079   9.792  69.048  1.00  0.00    -0.101 C  
HETATM    3  C   UNL     1      -9.332   9.679  69.945  1.00  0.00    -0.256 C  
HETATM    4  C   UNL     1      -7.333   8.441  69.056  1.00  0.00    -0.088 C  
ENDROOT
BRANCH   2   5
HETATM    5  C   UNL     1      -8.502  10.158  67.619  1.00  0.00    -0.118 A  
HETATM    6  C   UNL     1      -7.648  10.812  66.719  1.00  0.00    -0.129 A  
HETATM    7  C   UNL     1      -8.072  11.155  65.426  1.00  0.00     0.206 A  
HETATM    8  C   UNL     1      -9.368  10.855  65.006  1.00  0.00    -0.260 A  
HETATM    9  C   UNL     1      -9.802   9.853  67.173  1.00  0.00    -0.235 A  
HETATM   10  C   UNL     1     -10.229  10.195  65.889  1.00  0.00    -0.281 A  
BRANCH   8  11
HETATM   11  C   UNL     1      -9.792  11.256  63.634  1.00  0.00    -0.340 C  
HETATM   12  O   UNL     1      -8.965  11.271  62.725  1.00  0.00    -0.299 OA 
BRANCH  11  13
HETATM   13  C   UNL     1     -11.246  11.629  63.424  1.00  0.00    -0.401 C  
BRANCH  13  14
HETATM   14  C   UNL     1     -11.557  13.029  63.946  1.00  0.00    -0.508 C  
BRANCH  14  15
HETATM   15  C   UNL     1     -12.471  13.005  65.174  1.00  0.00    -0.496 C  
BRANCH  15  16
HETATM   16  N   UNL     1     -12.323  14.133  66.107  1.00  0.00    -0.459 NA 
HETATM   17  C   UNL     1     -12.219  13.775  67.531  1.00  0.00    -0.227 C  
HETATM   18  C   UNL     1     -10.861  13.214  67.973  1.00  0.00    -0.261 C  
HETATM   19  C   UNL     1      -9.674  14.063  67.500  1.00  0.00    -0.232 C  
HETATM   20  C   UNL     1      -9.826  14.326  66.000  1.00  0.00    -0.336 C  
HETATM   21  C   UNL     1     -11.185  14.985  65.720  1.00  0.00    -0.318 C  
BRANCH  19  22
HETATM   22  O   UNL     1      -9.566  15.362  68.081  1.00  0.00    -0.201 OA 
BRANCH  22  23
HETATM   23  C   UNL     1      -8.508  16.239  67.686  1.00  0.00    -0.168 C  
BRANCH  23  24
HETATM   24  C   UNL     1      -7.407  16.106  68.739  1.00  0.00    -0.184 A  
HETATM   25  C   UNL     1      -6.576  17.192  69.077  1.00  0.00    -0.218 A  
HETATM   26  C   UNL     1      -5.584  17.063  70.053  1.00  0.00    -0.225 A  
HETATM   27  C   UNL     1      -7.199  14.884  69.397  1.00  0.00    -0.182 A  
HETATM   28  C   UNL     1      -5.404  15.845  70.704  1.00  0.00    -0.152 A  
HETATM   29  C   UNL     1      -6.208  14.756  70.372  1.00  0.00    -0.152 A  
ENDBRANCH  23  24
BRANCH  23  30
HETATM   30  C   UNL     1      -8.962  17.679  67.495  1.00  0.00    -0.235 A  
HETATM   31  C   UNL     1      -9.864  20.305  67.041  1.00  0.00    -0.607 A  
HETATM   32  C   UNL     1      -8.894  19.748  66.212  1.00  0.00    -0.417 A  
HETATM   33  C   UNL     1      -9.902  18.273  68.350  1.00  0.00    -0.386 A  
HETATM   34  C   UNL     1     -10.358  19.573  68.119  1.00  0.00    -0.550 A  
HETATM   35  C   UNL     1      -8.443  18.445  66.437  1.00  0.00    -0.264 A  
ENDBRANCH  23  30
ENDBRANCH  22  23
ENDBRANCH  19  22
ENDBRANCH  15  16
ENDBRANCH  14  15
ENDBRANCH  13  14
ENDBRANCH  11  13
ENDBRANCH   8  11
ENDBRANCH   2   5
TORSDOF 10
ENDMDL
MODEL       48
REMARK 921   NORMALIZED FREE ENERGY PREDICTED BY IDOCK:   -5.70 KCAL/MOL
REMARK 922        TOTAL FREE ENERGY PREDICTED BY IDOCK:  -11.95 KCAL/MOL
REMARK 923 INTER-LIGAND FREE ENERGY PREDICTED BY IDOCK:   -8.33 KCAL/MOL
REMARK 924 INTRA-LIGAND FREE ENERGY PREDICTED BY IDOCK:   -3.62 KCAL/MOL
REMARK 927      BINDING AFFINITY PREDICTED BY RF-SCORE:    0.00 PKD
ROOT
HETATM    1  C   UNL     1      -8.745   5.923  70.703  1.00  0.00    -0.137 C  
HETATM    2  C   UNL     1      -9.541   5.472  69.460  1.00  0.00    -0.202 C  
HETATM    3  C   UNL     1     -11.017   5.866  69.689  1.00  0.00    -0.447 C  
HETATM    4  C   UNL     1      -9.439   3.934  69.380  1.00  0.00    -0.260 C  
ENDROOT
BRANCH   2   5
HETATM    5  C   UNL     1      -9.036   6.107  68.157  1.00  0.00    -0.111 A  
HETATM    6  C   UNL     1      -7.680   6.365  67.914  1.00  0.00    -0.104 A  
HETATM    7  C   UNL     1      -7.252   6.968  66.722  1.00  0.00    -0.076 A  
HETATM    8  C   UNL     1      -8.178   7.336  65.746  1.00  0.00    -0.135 A  
HETATM    9  C   UNL     1      -9.955   6.475  67.155  1.00  0.00    -0.203 A  
HETATM   10  C   UNL     1      -9.534   7.079  65.969  1.00  0.00     0.031 A  
BRANCH   8  11
HETATM   11  C   UNL     1      -7.690   7.998  64.502  1.00  0.00    -0.125 C  
HETATM   12  O   UNL     1      -6.567   7.735  64.077  1.00  0.00    -0.056 OA 
BRANCH  11  13
HETATM   13  C   UNL     1      -8.618   8.978  63.812  1.00  0.00    -0.147 C  
BRANCH  13  14
HETATM   14  C   UNL     1      -8.253  10.426  64.123  1.00  0.00    -0.118 C  
BRANCH  14  15
HETATM   15  C   UNL     1      -7.738  10.605  65.553  1.00  0.00    -0.083 C  
BRANCH  15  16
HETATM   16  N   UNL     1      -8.512  11.520  66.406  1.00  0.00    -0.166 NA 
HETATM   17  C   UNL     1      -9.956  11.584  66.129  1.00  0.00    -0.224 C  
HETATM   18  C   UNL     1     -10.780  10.393  66.636  1.00  0.00    -0.198 C  
HETATM   19  C   UNL     1     -10.485  10.034  68.098  1.00  0.00    -0.211 C  
HETATM   20  C   UNL     1      -8.969   9.918  68.279  1.00  0.00    -0.119 C  
HETATM   21  C   UNL     1      -8.289  11.220  67.831  1.00  0.00    -0.131 C  
BRANCH  19  22
HETATM   22  O   UNL     1     -10.887  10.999  69.070  1.00  0.00    -0.202 OA 
BRANCH  22  23
HETATM   23  C   UNL     1     -11.990  10.726  69.938  1.00  0.00    -0.342 C  
BRANCH  23  24
HETATM   24  C   UNL     1     -12.366  12.050  70.607  1.00  0.00    -0.394 A  
HETATM   25  C   UNL     1     -12.014  13.289  70.037  1.00  0.00    -0.399 A  
HETATM   26  C   UNL     1     -12.376  14.491  70.649  1.00  0.00    -0.407 A  
HETATM   27  C   UNL     1     -13.075  12.055  71.817  1.00  0.00    -0.460 A  
HETATM   28  C   UNL     1     -13.094  14.474  71.843  1.00  0.00    -0.427 A  
HETATM   29  C   UNL     1     -13.438  13.258  72.428  1.00  0.00    -0.670 A  
ENDBRANCH  23  24
BRANCH  23  30
HETATM   30  C   UNL     1     -11.702   9.624  70.947  1.00  0.00    -0.412 A  
HETATM   31  C   UNL     1     -11.162   7.672  72.901  1.00  0.00    -0.426 A  
HETATM   32  C   UNL     1     -10.148   8.521  72.464  1.00  0.00    -0.320 A  
HETATM   33  C   UNL     1     -12.700   8.728  71.362  1.00  0.00    -0.324 A  
HETATM   34  C   UNL     1     -12.435   7.765  72.339  1.00  0.00    -0.157 A  
HETATM   35  C   UNL     1     -10.414   9.489  71.493  1.00  0.00    -0.168 A  
ENDBRANCH  23  30
ENDBRANCH  22  23
ENDBRANCH  19  22
ENDBRANCH  15  16
ENDBRANCH  14  15
ENDBRANCH  13  14
ENDBRANCH  11  13
ENDBRANCH   8  11
ENDBRANCH   2   5
TORSDOF 10
ENDMDL
MODEL       49
REMARK 921   NORMALIZED FREE ENERGY PREDICTED BY IDOCK:   -5.68 KCAL/MOL
REMARK 922        TOTAL FREE ENERGY PREDICTED BY IDOCK:  -11.92 KCAL/MOL
REMARK 923 INTER-LIGAND FREE ENERGY PREDICTED BY IDOCK:   -9.75 KCAL/MOL
REMARK 924 INTRA-LIGAND FREE ENERGY PREDICTED BY IDOCK:   -2.17 KCAL/MOL
REMARK 927      BINDING AFFINITY PREDICTED BY RF-SCORE:    0.00 PKD
ROOT
HETATM    1  C   UNL     1      -9.153   2.719  65.538  1.00  0.00    -0.137 C  
HETATM    2  C   UNL     1      -9.640   4.184  65.564  1.00  0.00    -0.188 C  
HETATM    3  C   UNL     1     -10.957   4.248  64.759  1.00  0.00    -0.058 C  
HETATM    4  C   UNL     1      -8.571   5.038  64.847  1.00  0.00    -0.150 C  
ENDROOT
BRANCH   2   5
HETATM    5  C   UNL     1      -9.880   4.715  66.984  1.00  0.00    -0.232 A  
HETATM    6  C   UNL     1      -9.341   4.103  68.125  1.00  0.00    -0.212 A  
HETATM    7  C   UNL     1      -9.598   4.598  69.412  1.00  0.00    -0.257 A  
HETATM    8  C   UNL     1     -10.411   5.719  69.586  1.00  0.00    -0.363 A  
HETATM    9  C   UNL     1     -10.688   5.851  67.180  1.00  0.00    -0.387 A  
HETATM   10  C   UNL     1     -10.950   6.346  68.459  1.00  0.00    -0.396 A  
BRANCH   8  11
HETATM   11  C   UNL     1     -10.683   6.203  70.970  1.00  0.00    -0.260 C  
HETATM   12  O   UNL     1      -9.794   6.144  71.818  1.00  0.00    -0.165 OA 
BRANCH  11  13
HETATM   13  C   UNL     1     -12.063   6.753  71.268  1.00  0.00    -0.421 C  
BRANCH  13  14
HETATM   14  C   UNL     1     -12.000   8.082  72.015  1.00  0.00    -0.375 C  
BRANCH  14  15
HETATM   15  C   UNL     1     -12.282   9.279  71.104  1.00  0.00    -0.301 C  
BRANCH  15  16
HETATM   16  N   UNL     1     -11.183  10.244  70.951  1.00  0.00    -0.310 NA 
HETATM   17  C   UNL     1     -10.034   9.784  70.154  1.00  0.00    -0.263 C  
HETATM   18  C   UNL     1     -10.248   9.767  68.635  1.00  0.00    -0.210 C  
HETATM   19  C   UNL     1     -10.842  11.074  68.095  1.00  0.00    -0.226 C  
HETATM   20  C   UNL     1     -12.069  11.439  68.934  1.00  0.00    -0.285 C  
HETATM   21  C   UNL     1     -11.682  11.524  70.417  1.00  0.00    -0.234 C  
BRANCH  19  22
HETATM   22  O   UNL     1     -10.000  12.223  68.177  1.00  0.00    -0.199 OA 
BRANCH  22  23
HETATM   23  C   UNL     1     -10.258  13.362  67.352  1.00  0.00    -0.237 C  
BRANCH  23  24
HETATM   24  C   UNL     1     -10.700  12.830  65.988  1.00  0.00    -0.295 A  
HETATM   25  C   UNL     1     -11.943  13.183  65.427  1.00  0.00    -0.448 A  
HETATM   26  C   UNL     1     -12.329  12.704  64.173  1.00  0.00    -0.518 A  
HETATM   27  C   UNL     1      -9.866  11.968  65.260  1.00  0.00    -0.236 A  
HETATM   28  C   UNL     1     -11.480  11.860  63.461  1.00  0.00    -0.523 A  
HETATM   29  C   UNL     1     -10.253  11.490  64.006  1.00  0.00    -0.394 A  
ENDBRANCH  23  24
BRANCH  23  30
HETATM   30  C   UNL     1      -9.072  14.312  67.252  1.00  0.00    -0.221 A  
HETATM   31  C   UNL     1      -6.934  16.138  67.151  1.00  0.00    -0.244 A  
HETATM   32  C   UNL     1      -8.159  16.467  66.577  1.00  0.00    -0.345 A  
HETATM   33  C   UNL     1      -7.815  13.977  67.781  1.00  0.00    -0.176 A  
HETATM   34  C   UNL     1      -6.757  14.887  67.741  1.00  0.00    -0.191 A  
HETATM   35  C   UNL     1      -9.221  15.560  66.624  1.00  0.00    -0.299 A  
ENDBRANCH  23  30
ENDBRANCH  22  23
ENDBRANCH  19  22
ENDBRANCH  15  16
ENDBRANCH  14  15
ENDBRANCH  13  14
ENDBRANCH  11  13
ENDBRANCH   8  11
ENDBRANCH   2   5
TORSDOF 10
ENDMDL
MODEL       50
REMARK 921   NORMALIZED FREE ENERGY PREDICTED BY IDOCK:   -5.65 KCAL/MOL
REMARK 922        TOTAL FREE ENERGY PREDICTED BY IDOCK:  -11.88 KCAL/MOL
REMARK 923 INTER-LIGAND FREE ENERGY PREDICTED BY IDOCK:   -9.92 KCAL/MOL
REMARK 924 INTRA-LIGAND FREE ENERGY PREDICTED BY IDOCK:   -1.96 KCAL/MOL
REMARK 927      BINDING AFFINITY PREDICTED BY RF-SCORE:    0.00 PKD
ROOT
HETATM    1  C   UNL     1     -10.144  18.985  68.240  1.00  0.00    -0.466 C  
HETATM    2  C   UNL     1      -9.887  18.573  66.775  1.00  0.00    -0.359 C  
HETATM    3  C   UNL     1      -8.360  18.604  66.547  1.00  0.00    -0.304 C  
HETATM    4  C   UNL     1     -10.551  19.637  65.874  1.00  0.00    -0.566 C  
ENDROOT
BRANCH   2   5
HETATM    5  C   UNL     1     -10.428  17.177  66.437  1.00  0.00    -0.255 A  
HETATM    6  C   UNL     1     -10.716  16.771  65.126  1.00  0.00    -0.159 A  
HETATM    7  C   UNL     1     -11.232  15.496  64.851  1.00  0.00    -0.396 A  
HETATM    8  C   UNL     1     -11.481  14.597  65.890  1.00  0.00    -0.338 A  
HETATM    9  C   UNL     1     -10.674  16.252  67.470  1.00  0.00    -0.300 A  
HETATM   10  C   UNL     1     -11.191  14.984  67.202  1.00  0.00    -0.336 A  
BRANCH   8  11
HETATM   11  C   UNL     1     -12.053  13.259  65.563  1.00  0.00    -0.435 C  
HETATM   12  O   UNL     1     -13.008  13.180  64.794  1.00  0.00    -0.725 OA 
BRANCH  11  13
HETATM   13  C   UNL     1     -11.417  12.043  66.207  1.00  0.00    -0.408 C  
BRANCH  13  14
HETATM   14  C   UNL     1     -10.656  11.193  65.194  1.00  0.00    -0.319 C  
BRANCH  14  15
HETATM   15  C   UNL     1      -9.232  10.872  65.653  1.00  0.00    -0.203 C  
BRANCH  15  16
HETATM   16  N   UNL     1      -8.916   9.445  65.821  1.00  0.00    -0.172 NA 
HETATM   17  C   UNL     1      -7.667   9.148  66.542  1.00  0.00    -0.096 C  
HETATM   18  C   UNL     1      -7.725   9.328  68.064  1.00  0.00    -0.088 C  
HETATM   19  C   UNL     1      -8.941   8.651  68.707  1.00  0.00    -0.138 C  
HETATM   20  C   UNL     1     -10.199   9.070  67.941  1.00  0.00    -0.272 C  
HETATM   21  C   UNL     1     -10.040   8.732  66.452  1.00  0.00    -0.243 C  
BRANCH  19  22
HETATM   22  O   UNL     1      -8.956   7.224  68.662  1.00  0.00    -0.129 OA 
BRANCH  22  23
HETATM   23  C   UNL     1      -9.154   6.471  69.861  1.00  0.00    -0.143 C  
BRANCH  23  24
HETATM   24  C   UNL     1      -9.227   4.998  69.452  1.00  0.00    -0.156 A  
HETATM   25  C   UNL     1      -9.182   3.965  70.409  1.00  0.00    -0.209 A  
HETATM   26  C   UNL     1      -9.267   2.625  70.025  1.00  0.00    -0.202 A  
HETATM   27  C   UNL     1      -9.341   4.644  68.100  1.00  0.00    -0.177 A  
HETATM   28  C   UNL     1      -9.394   2.295  68.677  1.00  0.00    -0.238 A  
HETATM   29  C   UNL     1      -9.426   3.304  67.717  1.00  0.00    -0.217 A  
ENDBRANCH  23  24
BRANCH  23  30
HETATM   30  C   UNL     1     -10.372   6.917  70.657  1.00  0.00    -0.220 A  
HETATM   31  C   UNL     1     -12.638   7.625  72.167  1.00  0.00    -0.218 A  
HETATM   32  C   UNL     1     -12.784   6.881  71.000  1.00  0.00    -0.269 A  
HETATM   33  C   UNL     1     -10.248   7.709  71.809  1.00  0.00    -0.225 A  
HETATM   34  C   UNL     1     -11.372   8.052  72.565  1.00  0.00    -0.469 A  
HETATM   35  C   UNL     1     -11.660   6.530  70.247  1.00  0.00    -0.473 A  
ENDBRANCH  23  30
ENDBRANCH  22  23
ENDBRANCH  19  22
ENDBRANCH  15  16
ENDBRANCH  14  15
ENDBRANCH  13  14
ENDBRANCH  11  13
ENDBRANCH   8  11
ENDBRANCH   2   5
TORSDOF 10
ENDMDL
MODEL       51
REMARK 921   NORMALIZED FREE ENERGY PREDICTED BY IDOCK:   -5.58 KCAL/MOL
REMARK 922        TOTAL FREE ENERGY PREDICTED BY IDOCK:  -11.76 KCAL/MOL
REMARK 923 INTER-LIGAND FREE ENERGY PREDICTED BY IDOCK:   -9.84 KCAL/MOL
REMARK 924 INTRA-LIGAND FREE ENERGY PREDICTED BY IDOCK:   -1.93 KCAL/MOL
REMARK 927      BINDING AFFINITY PREDICTED BY RF-SCORE:    0.00 PKD
ROOT
HETATM    1  C   UNL     1     -10.143  19.197  68.171  1.00  0.00    -0.486 C  
HETATM    2  C   UNL     1      -9.972  18.456  66.827  1.00  0.00    -0.374 C  
HETATM    3  C   UNL     1      -8.474  18.514  66.454  1.00  0.00    -0.275 C  
HETATM    4  C   UNL     1     -10.784  19.231  65.767  1.00  0.00    -0.417 C  
ENDROOT
BRANCH   2   5
HETATM    5  C   UNL     1     -10.431  16.993  66.883  1.00  0.00    -0.268 A  
HETATM    6  C   UNL     1     -10.822  16.364  68.074  1.00  0.00    -0.342 A  
HETATM    7  C   UNL     1     -11.214  15.018  68.097  1.00  0.00    -0.316 A  
HETATM    8  C   UNL     1     -11.216  14.264  66.922  1.00  0.00    -0.333 A  
HETATM    9  C   UNL     1     -10.452  16.219  65.706  1.00  0.00    -0.379 A  
HETATM   10  C   UNL     1     -10.837  14.878  65.724  1.00  0.00    -0.343 A  
BRANCH   8  11
HETATM   11  C   UNL     1     -11.616  12.829  66.988  1.00  0.00    -0.360 C  
HETATM   12  O   UNL     1     -12.402  12.380  66.156  1.00  0.00    -0.606 OA 
BRANCH  11  13
HETATM   13  C   UNL     1     -11.021  11.980  68.095  1.00  0.00    -0.273 C  
BRANCH  13  14
HETATM   14  C   UNL     1     -11.880  12.003  69.355  1.00  0.00    -0.384 C  
BRANCH  14  15
HETATM   15  C   UNL     1     -12.344  10.605  69.771  1.00  0.00    -0.194 C  
BRANCH  15  16
HETATM   16  N   UNL     1     -11.859  10.128  71.076  1.00  0.00    -0.357 NA 
HETATM   17  C   UNL     1     -12.768   9.228  71.805  1.00  0.00    -0.381 C  
HETATM   18  C   UNL     1     -12.828   7.787  71.285  1.00  0.00    -0.265 C  
HETATM   19  C   UNL     1     -11.443   7.163  71.071  1.00  0.00    -0.297 C  
HETATM   20  C   UNL     1     -10.591   8.131  70.246  1.00  0.00    -0.228 C  
HETATM   21  C   UNL     1     -10.533   9.499  70.941  1.00  0.00    -0.312 C  
BRANCH  19  22
HETATM   22  O   UNL     1     -10.675   6.931  72.252  1.00  0.00    -0.213 OA 
BRANCH  22  23
HETATM   23  C   UNL     1      -9.472   6.160  72.185  1.00  0.00    -0.151 C  
BRANCH  23  24
HETATM   24  C   UNL     1      -9.836   4.733  72.599  1.00  0.00    -0.193 A  
HETATM   25  C   UNL     1      -9.697   3.650  71.710  1.00  0.00    -0.233 A  
HETATM   26  C   UNL     1     -10.017   2.349  72.105  1.00  0.00    -0.230 A  
HETATM   27  C   UNL     1     -10.323   4.473  73.889  1.00  0.00    -0.273 A  
HETATM   28  C   UNL     1     -10.485   2.110  73.395  1.00  0.00    -0.218 A  
HETATM   29  C   UNL     1     -10.642   3.172  74.283  1.00  0.00    -0.241 A  
ENDBRANCH  23  24
BRANCH  23  30
HETATM   30  C   UNL     1      -8.341   6.740  73.022  1.00  0.00    -0.124 A  
HETATM   31  C   UNL     1      -6.187   7.834  74.465  1.00  0.00    -0.097 A  
HETATM   32  C   UNL     1      -6.068   6.576  73.881  1.00  0.00    -0.064 A  
HETATM   33  C   UNL     1      -8.461   7.986  73.658  1.00  0.00    -0.317 A  
HETATM   34  C   UNL     1      -7.389   8.534  74.366  1.00  0.00    -0.206 A  
HETATM   35  C   UNL     1      -7.137   6.030  73.167  1.00  0.00    -0.085 A  
ENDBRANCH  23  30
ENDBRANCH  22  23
ENDBRANCH  19  22
ENDBRANCH  15  16
ENDBRANCH  14  15
ENDBRANCH  13  14
ENDBRANCH  11  13
ENDBRANCH   8  11
ENDBRANCH   2   5
TORSDOF 10
ENDMDL
MODEL       52
REMARK 921   NORMALIZED FREE ENERGY PREDICTED BY IDOCK:   -5.56 KCAL/MOL
REMARK 922        TOTAL FREE ENERGY PREDICTED BY IDOCK:  -11.73 KCAL/MOL
REMARK 923 INTER-LIGAND FREE ENERGY PREDICTED BY IDOCK:   -8.13 KCAL/MOL
REMARK 924 INTRA-LIGAND FREE ENERGY PREDICTED BY IDOCK:   -3.61 KCAL/MOL
REMARK 927      BINDING AFFINITY PREDICTED BY RF-SCORE:    0.00 PKD
ROOT
HETATM    1  C   UNL     1     -11.581  11.890  66.665  1.00  0.00    -0.337 C  
HETATM    2  C   UNL     1     -11.495  12.959  65.554  1.00  0.00    -0.361 C  
HETATM    3  C   UNL     1     -12.863  12.992  64.838  1.00  0.00    -0.368 C  
HETATM    4  C   UNL     1     -10.416  12.495  64.552  1.00  0.00    -0.366 C  
ENDROOT
BRANCH   2   5
HETATM    5  C   UNL     1     -11.159  14.358  66.088  1.00  0.00    -0.330 A  
HETATM    6  C   UNL     1     -10.604  15.364  65.285  1.00  0.00    -0.450 A  
HETATM    7  C   UNL     1     -10.287  16.626  65.808  1.00  0.00    -0.338 A  
HETATM    8  C   UNL     1     -10.513  16.908  67.156  1.00  0.00    -0.296 A  
HETATM    9  C   UNL     1     -11.391  14.665  67.442  1.00  0.00    -0.368 A  
HETATM   10  C   UNL     1     -11.073  15.918  67.969  1.00  0.00    -0.334 A  
BRANCH   8  11
HETATM   11  C   UNL     1     -10.140  18.252  67.684  1.00  0.00    -0.356 C  
HETATM   12  O   UNL     1     -10.882  19.210  67.478  1.00  0.00    -0.473 OA 
BRANCH  11  13
HETATM   13  C   UNL     1      -8.844  18.372  68.461  1.00  0.00    -0.336 C  
BRANCH  13  14
HETATM   14  C   UNL     1      -7.648  17.867  67.659  1.00  0.00    -0.215 C  
BRANCH  14  15
HETATM   15  C   UNL     1      -6.815  16.844  68.434  1.00  0.00    -0.167 C  
BRANCH  15  16
HETATM   16  N   UNL     1      -6.404  15.648  67.682  1.00  0.00    -0.154 NA 
HETATM   17  C   UNL     1      -5.363  14.822  68.315  1.00  0.00    -0.113 C  
HETATM   18  C   UNL     1      -5.835  13.943  69.480  1.00  0.00    -0.099 C  
HETATM   19  C   UNL     1      -7.098  13.136  69.155  1.00  0.00     0.021 C  
HETATM   20  C   UNL     1      -8.149  14.083  68.570  1.00  0.00    -0.139 C  
HETATM   21  C   UNL     1      -7.572  14.813  67.349  1.00  0.00    -0.202 C  
BRANCH  19  22
HETATM   22  O   UNL     1      -6.949  12.116  68.167  1.00  0.00    -0.070 OA 
BRANCH  22  23
HETATM   23  C   UNL     1      -8.068  11.308  67.795  1.00  0.00    -0.119 C  
BRANCH  23  24
HETATM   24  C   UNL     1      -8.429  10.461  69.017  1.00  0.00    -0.155 A  
HETATM   25  C   UNL     1      -9.760  10.341  69.462  1.00  0.00    -0.235 A  
HETATM   26  C   UNL     1     -10.080   9.551  70.570  1.00  0.00    -0.347 A  
HETATM   27  C   UNL     1      -7.429   9.781  69.727  1.00  0.00    -0.127 A  
HETATM   28  C   UNL     1      -9.073   8.872  71.252  1.00  0.00    -0.323 A  
HETATM   29  C   UNL     1      -7.750   8.991  70.833  1.00  0.00    -0.149 A  
ENDBRANCH  23  24
BRANCH  23  30
HETATM   30  C   UNL     1      -7.814  10.464  66.554  1.00  0.00    -0.124 A  
HETATM   31  C   UNL     1      -7.425   8.973  64.200  1.00  0.00    -0.110 A  
HETATM   32  C   UNL     1      -8.598   8.822  64.935  1.00  0.00    -0.177 A  
HETATM   33  C   UNL     1      -6.616  10.566  65.829  1.00  0.00    -0.123 A  
HETATM   34  C   UNL     1      -6.427   9.834  64.654  1.00  0.00    -0.111 A  
HETATM   35  C   UNL     1      -8.792   9.560  66.105  1.00  0.00    -0.177 A  
ENDBRANCH  23  30
ENDBRANCH  22  23
ENDBRANCH  19  22
ENDBRANCH  15  16
ENDBRANCH  14  15
ENDBRANCH  13  14
ENDBRANCH  11  13
ENDBRANCH   8  11
ENDBRANCH   2   5
TORSDOF 10
ENDMDL
MODEL       53
REMARK 921   NORMALIZED FREE ENERGY PREDICTED BY IDOCK:   -5.53 KCAL/MOL
REMARK 922        TOTAL FREE ENERGY PREDICTED BY IDOCK:  -11.69 KCAL/MOL
REMARK 923 INTER-LIGAND FREE ENERGY PREDICTED BY IDOCK:   -9.63 KCAL/MOL
REMARK 924 INTRA-LIGAND FREE ENERGY PREDICTED BY IDOCK:   -2.05 KCAL/MOL
REMARK 927      BINDING AFFINITY PREDICTED BY RF-SCORE:    0.00 PKD
ROOT
HETATM    1  C   UNL     1      -6.101   3.688  74.306  1.00  0.00    -0.020 C  
HETATM    2  C   UNL     1      -6.704   3.097  73.014  1.00  0.00    -0.029 C  
HETATM    3  C   UNL     1      -7.156   1.655  73.333  1.00  0.00    -0.027 C  
HETATM    4  C   UNL     1      -5.577   3.047  71.960  1.00  0.00    -0.008 C  
ENDROOT
BRANCH   2   5
HETATM    5  C   UNL     1      -7.896   3.903  72.480  1.00  0.00    -0.080 A  
HETATM    6  C   UNL     1      -9.220   3.646  72.863  1.00  0.00    -0.124 A  
HETATM    7  C   UNL     1     -10.290   4.385  72.340  1.00  0.00    -0.241 A  
HETATM    8  C   UNL     1     -10.058   5.400  71.410  1.00  0.00    -0.262 A  
HETATM    9  C   UNL     1      -7.681   4.938  71.550  1.00  0.00    -0.096 A  
HETATM   10  C   UNL     1      -8.743   5.675  71.024  1.00  0.00    -0.136 A  
BRANCH   8  11
HETATM   11  C   UNL     1     -11.223   6.149  70.856  1.00  0.00    -0.299 C  
HETATM   12  O   UNL     1     -11.510   6.030  69.667  1.00  0.00    -0.394 OA 
BRANCH  11  13
HETATM   13  C   UNL     1     -12.008   7.034  71.803  1.00  0.00    -0.361 C  
BRANCH  13  14
HETATM   14  C   UNL     1     -11.116   8.051  72.508  1.00  0.00    -0.440 C  
BRANCH  14  15
HETATM   15  C   UNL     1     -10.819   9.272  71.634  1.00  0.00    -0.348 C  
BRANCH  15  16
HETATM   16  N   UNL     1     -11.754   9.512  70.524  1.00  0.00    -0.251 NA 
HETATM   17  C   UNL     1     -12.722  10.602  70.728  1.00  0.00    -0.378 C  
HETATM   18  C   UNL     1     -12.160  12.021  70.577  1.00  0.00    -0.402 C  
HETATM   19  C   UNL     1     -11.332  12.210  69.300  1.00  0.00    -0.266 C  
HETATM   20  C   UNL     1     -10.308  11.077  69.205  1.00  0.00    -0.181 C  
HETATM   21  C   UNL     1     -11.023   9.720  69.261  1.00  0.00    -0.193 C  
BRANCH  19  22
HETATM   22  O   UNL     1     -12.057  12.139  68.072  1.00  0.00    -0.478 OA 
BRANCH  22  23
HETATM   23  C   UNL     1     -12.122  13.278  67.210  1.00  0.00    -0.289 C  
BRANCH  23  24
HETATM   24  C   UNL     1     -11.789  12.786  65.800  1.00  0.00    -0.484 A  
HETATM   25  C   UNL     1     -12.313  13.419  64.656  1.00  0.00    -0.433 A  
HETATM   26  C   UNL     1     -11.989  12.971  63.373  1.00  0.00    -0.592 A  
HETATM   27  C   UNL     1     -10.946  11.680  65.617  1.00  0.00    -0.322 A  
HETATM   28  C   UNL     1     -11.138  11.880  63.213  1.00  0.00    -0.390 A  
HETATM   29  C   UNL     1     -10.622  11.233  64.334  1.00  0.00    -0.410 A  
ENDBRANCH  23  24
BRANCH  23  30
HETATM   30  C   UNL     1     -11.222  14.421  67.657  1.00  0.00    -0.328 A  
HETATM   31  C   UNL     1      -9.566  16.581  68.368  1.00  0.00    -0.233 A  
HETATM   32  C   UNL     1      -9.075  15.566  67.552  1.00  0.00    -0.198 A  
HETATM   33  C   UNL     1     -11.685  15.427  68.519  1.00  0.00    -0.355 A  
HETATM   34  C   UNL     1     -10.866  16.505  68.865  1.00  0.00    -0.336 A  
HETATM   35  C   UNL     1      -9.895  14.492  67.199  1.00  0.00    -0.245 A  
ENDBRANCH  23  30
ENDBRANCH  22  23
ENDBRANCH  19  22
ENDBRANCH  15  16
ENDBRANCH  14  15
ENDBRANCH  13  14
ENDBRANCH  11  13
ENDBRANCH   8  11
ENDBRANCH   2   5
TORSDOF 10
ENDMDL
MODEL       54
REMARK 921   NORMALIZED FREE ENERGY PREDICTED BY IDOCK:   -5.52 KCAL/MOL
REMARK 922        TOTAL FREE ENERGY PREDICTED BY IDOCK:  -11.68 KCAL/MOL
REMARK 923 INTER-LIGAND FREE ENERGY PREDICTED BY IDOCK:   -8.93 KCAL/MOL
REMARK 924 INTRA-LIGAND FREE ENERGY PREDICTED BY IDOCK:   -2.75 KCAL/MOL
REMARK 927      BINDING AFFINITY PREDICTED BY RF-SCORE:    0.00 PKD
ROOT
HETATM    1  C   UNL     1      -8.589   9.003  64.600  1.00  0.00    -0.190 C  
HETATM    2  C   UNL     1      -7.520   8.568  65.626  1.00  0.00    -0.085 C  
HETATM    3  C   UNL     1      -7.276   9.762  66.574  1.00  0.00    -0.094 C  
HETATM    4  C   UNL     1      -6.222   8.275  64.843  1.00  0.00    -0.052 C  
ENDROOT
BRANCH   2   5
HETATM    5  C   UNL     1      -7.936   7.338  66.445  1.00  0.00    -0.112 A  
HETATM    6  C   UNL     1      -8.992   6.496  66.068  1.00  0.00    -0.139 A  
HETATM    7  C   UNL     1      -9.363   5.393  66.851  1.00  0.00    -0.127 A  
HETATM    8  C   UNL     1      -8.688   5.112  68.039  1.00  0.00    -0.102 A  
HETATM    9  C   UNL     1      -7.259   7.031  67.641  1.00  0.00    -0.091 A  
HETATM   10  C   UNL     1      -7.628   5.937  68.426  1.00  0.00    -0.090 A  
BRANCH   8  11
HETATM   11  C   UNL     1      -9.126   3.946  68.858  1.00  0.00    -0.138 C  
HETATM   12  O   UNL     1      -9.450   2.900  68.299  1.00  0.00    -0.201 OA 
BRANCH  11  13
HETATM   13  C   UNL     1      -9.150   4.110  70.365  1.00  0.00    -0.178 C  
BRANCH  13  14
HETATM   14  C   UNL     1     -10.241   5.075  70.818  1.00  0.00    -0.299 C  
BRANCH  14  15
HETATM   15  C   UNL     1      -9.670   6.356  71.431  1.00  0.00    -0.172 C  
BRANCH  15  16
HETATM   16  N   UNL     1     -10.574   7.516  71.457  1.00  0.00    -0.213 NA 
HETATM   17  C   UNL     1      -9.933   8.822  71.679  1.00  0.00    -0.311 C  
HETATM   18  C   UNL     1      -9.193   9.408  70.470  1.00  0.00    -0.314 C  
HETATM   19  C   UNL     1     -10.026   9.383  69.182  1.00  0.00    -0.182 C  
HETATM   20  C   UNL     1     -10.594   7.974  68.993  1.00  0.00    -0.169 C  
HETATM   21  C   UNL     1     -11.397   7.563  70.235  1.00  0.00    -0.199 C  
BRANCH  19  22
HETATM   22  O   UNL     1     -11.171  10.234  69.163  1.00  0.00    -0.228 OA 
BRANCH  22  23
HETATM   23  C   UNL     1     -11.009  11.652  69.077  1.00  0.00    -0.233 C  
BRANCH  23  24
HETATM   24  C   UNL     1     -11.871  12.265  70.182  1.00  0.00    -0.352 A  
HETATM   25  C   UNL     1     -12.688  11.467  71.007  1.00  0.00    -0.447 A  
HETATM   26  C   UNL     1     -13.458  12.035  72.024  1.00  0.00    -0.364 A  
HETATM   27  C   UNL     1     -11.866  13.651  70.398  1.00  0.00    -0.308 A  
HETATM   28  C   UNL     1     -13.427  13.413  72.231  1.00  0.00    -0.683 A  
HETATM   29  C   UNL     1     -12.636  14.219  71.416  1.00  0.00    -0.434 A  
ENDBRANCH  23  24
BRANCH  23  30
HETATM   30  C   UNL     1     -11.341  12.212  67.701  1.00  0.00    -0.379 A  
HETATM   31  C   UNL     1     -12.042  13.157  65.145  1.00  0.00    -0.463 A  
HETATM   32  C   UNL     1     -11.326  11.970  65.277  1.00  0.00    -0.366 A  
HETATM   33  C   UNL     1     -12.019  13.431  67.547  1.00  0.00    -0.381 A  
HETATM   34  C   UNL     1     -12.376  13.896  66.279  1.00  0.00    -0.489 A  
HETATM   35  C   UNL     1     -10.976  11.500  66.545  1.00  0.00    -0.346 A  
ENDBRANCH  23  30
ENDBRANCH  22  23
ENDBRANCH  19  22
ENDBRANCH  15  16
ENDBRANCH  14  15
ENDBRANCH  13  14
ENDBRANCH  11  13
ENDBRANCH   8  11
ENDBRANCH   2   5
TORSDOF 10
ENDMDL
MODEL       55
REMARK 921   NORMALIZED FREE ENERGY PREDICTED BY IDOCK:   -5.50 KCAL/MOL
REMARK 922        TOTAL FREE ENERGY PREDICTED BY IDOCK:  -11.64 KCAL/MOL
REMARK 923 INTER-LIGAND FREE ENERGY PREDICTED BY IDOCK:   -8.16 KCAL/MOL
REMARK 924 INTRA-LIGAND FREE ENERGY PREDICTED BY IDOCK:   -3.48 KCAL/MOL
REMARK 927      BINDING AFFINITY PREDICTED BY RF-SCORE:    0.00 PKD
ROOT
HETATM    1  C   UNL     1     -12.320  15.199  64.098  1.00  0.00    -0.117 C  
HETATM    2  C   UNL     1     -11.656  14.248  65.118  1.00  0.00    -0.355 C  
HETATM    3  C   UNL     1     -10.926  13.147  64.317  1.00  0.00    -0.428 C  
HETATM    4  C   UNL     1     -12.786  13.600  65.947  1.00  0.00    -0.428 C  
ENDROOT
BRANCH   2   5
HETATM    5  C   UNL     1     -10.658  14.958  66.043  1.00  0.00    -0.321 A  
HETATM    6  C   UNL     1      -9.448  15.498  65.583  1.00  0.00    -0.271 A  
HETATM    7  C   UNL     1      -8.545  16.121  66.457  1.00  0.00    -0.341 A  
HETATM    8  C   UNL     1      -8.832  16.210  67.820  1.00  0.00    -0.184 A  
HETATM    9  C   UNL     1     -10.934  15.069  67.419  1.00  0.00    -0.315 A  
HETATM   10  C   UNL     1     -10.037  15.685  68.294  1.00  0.00    -0.218 A  
BRANCH   8  11
HETATM   11  C   UNL     1      -7.838  16.857  68.724  1.00  0.00    -0.250 C  
HETATM   12  O   UNL     1      -7.820  18.082  68.828  1.00  0.00    -0.301 OA 
BRANCH  11  13
HETATM   13  C   UNL     1      -6.883  15.957  69.484  1.00  0.00    -0.192 C  
BRANCH  13  14
HETATM   14  C   UNL     1      -5.717  15.497  68.614  1.00  0.00    -0.099 C  
BRANCH  14  15
HETATM   15  C   UNL     1      -5.836  14.025  68.209  1.00  0.00    -0.116 C  
BRANCH  15  16
HETATM   16  N   UNL     1      -7.066  13.338  68.634  1.00  0.00    -0.100 NA 
HETATM   17  C   UNL     1      -7.856  12.717  67.559  1.00  0.00    -0.171 C  
HETATM   18  C   UNL     1      -7.296  11.401  67.004  1.00  0.00    -0.144 C  
HETATM   19  C   UNL     1      -6.918  10.397  68.100  1.00  0.00    -0.073 C  
HETATM   20  C   UNL     1      -6.041  11.106  69.135  1.00  0.00    -0.047 C  
HETATM   21  C   UNL     1      -6.772  12.342  69.680  1.00  0.00     0.052 C  
BRANCH  19  22
HETATM   22  O   UNL     1      -8.003   9.863  68.858  1.00  0.00    -0.087 OA 
BRANCH  22  23
HETATM   23  C   UNL     1      -9.250   9.576  68.220  1.00  0.00    -0.130 C  
BRANCH  23  24
HETATM   24  C   UNL     1     -10.338  10.269  69.043  1.00  0.00    -0.229 A  
HETATM   25  C   UNL     1     -10.948  11.460  68.602  1.00  0.00    -0.267 A  
HETATM   26  C   UNL     1     -11.951  12.076  69.354  1.00  0.00    -0.334 A  
HETATM   27  C   UNL     1     -10.754   9.726  70.267  1.00  0.00    -0.358 A  
HETATM   28  C   UNL     1     -12.360  11.512  70.560  1.00  0.00    -0.432 A  
HETATM   29  C   UNL     1     -11.759  10.342  71.018  1.00  0.00    -0.461 A  
ENDBRANCH  23  24
BRANCH  23  30
HETATM   30  C   UNL     1      -9.508   8.085  68.051  1.00  0.00    -0.157 A  
HETATM   31  C   UNL     1      -9.937   5.337  67.623  1.00  0.00    -0.202 A  
HETATM   32  C   UNL     1     -10.743   6.276  66.984  1.00  0.00    -0.435 A  
HETATM   33  C   UNL     1      -8.738   7.125  68.725  1.00  0.00    -0.124 A  
HETATM   34  C   UNL     1      -8.944   5.760  68.505  1.00  0.00    -0.112 A  
HETATM   35  C   UNL     1     -10.532   7.641  67.197  1.00  0.00    -0.412 A  
ENDBRANCH  23  30
ENDBRANCH  22  23
ENDBRANCH  19  22
ENDBRANCH  15  16
ENDBRANCH  14  15
ENDBRANCH  13  14
ENDBRANCH  11  13
ENDBRANCH   8  11
ENDBRANCH   2   5
TORSDOF 10
ENDMDL
MODEL       56
REMARK 921   NORMALIZED FREE ENERGY PREDICTED BY IDOCK:   -5.50 KCAL/MOL
REMARK 922        TOTAL FREE ENERGY PREDICTED BY IDOCK:  -11.64 KCAL/MOL
REMARK 923 INTER-LIGAND FREE ENERGY PREDICTED BY IDOCK:   -9.86 KCAL/MOL
REMARK 924 INTRA-LIGAND FREE ENERGY PREDICTED BY IDOCK:   -1.77 KCAL/MOL
REMARK 927      BINDING AFFINITY PREDICTED BY RF-SCORE:    0.00 PKD
ROOT
HETATM    1  C   UNL     1     -10.391  19.708  68.235  1.00  0.00    -0.539 C  
HETATM    2  C   UNL     1      -9.456  18.741  67.477  1.00  0.00    -0.326 C  
HETATM    3  C   UNL     1      -8.268  18.420  68.410  1.00  0.00    -0.331 C  
HETATM    4  C   UNL     1      -8.930  19.488  66.233  1.00  0.00    -0.400 C  
ENDROOT
BRANCH   2   5
HETATM    5  C   UNL     1     -10.148  17.436  67.060  1.00  0.00    -0.313 A  
HETATM    6  C   UNL     1     -10.233  17.013  65.726  1.00  0.00    -0.262 A  
HETATM    7  C   UNL     1     -10.893  15.827  65.374  1.00  0.00    -0.376 A  
HETATM    8  C   UNL     1     -11.493  15.036  66.355  1.00  0.00    -0.225 A  
HETATM    9  C   UNL     1     -10.749  16.618  68.037  1.00  0.00    -0.350 A  
HETATM   10  C   UNL     1     -11.410  15.438  67.692  1.00  0.00    -0.292 A  
BRANCH   8  11
HETATM   11  C   UNL     1     -12.207  13.794  65.942  1.00  0.00    -0.466 C  
HETATM   12  O   UNL     1     -13.197  13.876  65.218  1.00  0.00    -0.774 OA 
BRANCH  11  13
HETATM   13  C   UNL     1     -11.667  12.469  66.443  1.00  0.00    -0.458 C  
BRANCH  13  14
HETATM   14  C   UNL     1     -10.302  12.145  65.845  1.00  0.00    -0.286 C  
BRANCH  14  15
HETATM   15  C   UNL     1      -9.226  11.947  66.916  1.00  0.00    -0.193 C  
BRANCH  15  16
HETATM   16  N   UNL     1      -8.721  10.575  67.075  1.00  0.00    -0.130 NA 
HETATM   17  C   UNL     1      -7.670  10.394  68.089  1.00  0.00    -0.092 C  
HETATM   18  C   UNL     1      -8.150  10.401  69.546  1.00  0.00    -0.145 C  
HETATM   19  C   UNL     1      -9.355   9.483  69.789  1.00  0.00    -0.211 C  
HETATM   20  C   UNL     1     -10.424   9.787  68.737  1.00  0.00    -0.240 C  
HETATM   21  C   UNL     1      -9.829   9.637  67.329  1.00  0.00    -0.175 C  
BRANCH  19  22
HETATM   22  O   UNL     1      -9.109   8.083  69.653  1.00  0.00    -0.151 OA 
BRANCH  22  23
HETATM   23  C   UNL     1     -10.188   7.152  69.761  1.00  0.00    -0.208 C  
BRANCH  23  24
HETATM   24  C   UNL     1     -10.238   6.698  71.221  1.00  0.00    -0.222 A  
HETATM   25  C   UNL     1      -9.329   7.192  72.177  1.00  0.00    -0.148 A  
HETATM   26  C   UNL     1      -9.395   6.782  73.511  1.00  0.00    -0.179 A  
HETATM   27  C   UNL     1     -11.202   5.769  71.641  1.00  0.00    -0.258 A  
HETATM   28  C   UNL     1     -10.370   5.870  73.910  1.00  0.00    -0.287 A  
HETATM   29  C   UNL     1     -11.268   5.361  72.975  1.00  0.00    -0.370 A  
ENDBRANCH  23  24
BRANCH  23  30
HETATM   30  C   UNL     1     -10.072   5.984  68.791  1.00  0.00    -0.210 A  
HETATM   31  C   UNL     1      -9.778   3.893  66.931  1.00  0.00    -0.189 A  
HETATM   32  C   UNL     1     -10.507   5.031  66.592  1.00  0.00    -0.301 A  
HETATM   33  C   UNL     1      -9.383   4.810  69.133  1.00  0.00    -0.195 A  
HETATM   34  C   UNL     1      -9.229   3.776  68.206  1.00  0.00    -0.215 A  
HETATM   35  C   UNL     1     -10.656   6.069  67.515  1.00  0.00    -0.345 A  
ENDBRANCH  23  30
ENDBRANCH  22  23
ENDBRANCH  19  22
ENDBRANCH  15  16
ENDBRANCH  14  15
ENDBRANCH  13  14
ENDBRANCH  11  13
ENDBRANCH   8  11
ENDBRANCH   2   5
TORSDOF 10
ENDMDL
MODEL       57
REMARK 921   NORMALIZED FREE ENERGY PREDICTED BY IDOCK:   -5.49 KCAL/MOL
REMARK 922        TOTAL FREE ENERGY PREDICTED BY IDOCK:  -11.63 KCAL/MOL
REMARK 923 INTER-LIGAND FREE ENERGY PREDICTED BY IDOCK:   -7.96 KCAL/MOL
REMARK 924 INTRA-LIGAND FREE ENERGY PREDICTED BY IDOCK:   -3.68 KCAL/MOL
REMARK 927      BINDING AFFINITY PREDICTED BY RF-SCORE:    0.00 PKD
ROOT
HETATM    1  C   UNL     1     -12.894  12.479  64.478  1.00  0.00    -0.352 C  
HETATM    2  C   UNL     1     -11.420  12.563  64.931  1.00  0.00    -0.367 C  
HETATM    3  C   UNL     1     -10.540  12.428  63.669  1.00  0.00    -0.481 C  
HETATM    4  C   UNL     1     -11.154  11.359  65.860  1.00  0.00    -0.225 C  
ENDROOT
BRANCH   2   5
HETATM    5  C   UNL     1     -11.085  13.876  65.653  1.00  0.00    -0.298 A  
HETATM    6  C   UNL     1     -11.459  14.130  66.980  1.00  0.00    -0.370 A  
HETATM    7  C   UNL     1     -11.159  15.349  67.605  1.00  0.00    -0.316 A  
HETATM    8  C   UNL     1     -10.481  16.350  66.908  1.00  0.00    -0.289 A  
HETATM    9  C   UNL     1     -10.391  14.893  64.970  1.00  0.00    -0.401 A  
HETATM   10  C   UNL     1     -10.094  16.110  65.586  1.00  0.00    -0.366 A  
BRANCH   8  11
HETATM   11  C   UNL     1     -10.200  17.643  67.596  1.00  0.00    -0.351 C  
HETATM   12  O   UNL     1     -10.904  18.622  67.357  1.00  0.00    -0.439 OA 
BRANCH  11  13
HETATM   13  C   UNL     1      -9.041  17.687  68.572  1.00  0.00    -0.279 C  
BRANCH  13  14
HETATM   14  C   UNL     1      -7.724  17.287  67.915  1.00  0.00    -0.196 C  
BRANCH  14  15
HETATM   15  C   UNL     1      -6.966  16.229  68.720  1.00  0.00    -0.159 C  
BRANCH  15  16
HETATM   16  N   UNL     1      -6.398  15.115  67.945  1.00  0.00    -0.148 NA 
HETATM   17  C   UNL     1      -5.442  14.258  68.665  1.00  0.00    -0.090 C  
HETATM   18  C   UNL     1      -6.063  13.268  69.659  1.00  0.00    -0.118 C  
HETATM   19  C   UNL     1      -7.228  12.466  69.065  1.00  0.00    -0.008 C  
HETATM   20  C   UNL     1      -8.205  13.440  68.401  1.00  0.00    -0.139 C  
HETATM   21  C   UNL     1      -7.468  14.290  67.357  1.00  0.00    -0.149 C  
BRANCH  19  22
HETATM   22  O   UNL     1      -6.887  11.543  68.031  1.00  0.00    -0.060 OA 
BRANCH  22  23
HETATM   23  C   UNL     1      -7.164  10.150  68.194  1.00  0.00    -0.081 C  
BRANCH  23  24
HETATM   24  C   UNL     1      -7.506   9.602  66.807  1.00  0.00    -0.094 A  
HETATM   25  C   UNL     1      -7.615   8.218  66.568  1.00  0.00    -0.092 A  
HETATM   26  C   UNL     1      -7.944   7.729  65.301  1.00  0.00    -0.127 A  
HETATM   27  C   UNL     1      -7.719  10.477  65.732  1.00  0.00    -0.145 A  
HETATM   28  C   UNL     1      -8.166   8.618  64.251  1.00  0.00    -0.160 A  
HETATM   29  C   UNL     1      -8.048   9.989  64.466  1.00  0.00    -0.156 A  
ENDBRANCH  23  24
BRANCH  23  30
HETATM   30  C   UNL     1      -8.256   9.870  69.217  1.00  0.00    -0.138 A  
HETATM   31  C   UNL     1     -10.316   9.263  71.035  1.00  0.00    -0.388 A  
HETATM   32  C   UNL     1     -10.610   9.918  69.841  1.00  0.00    -0.312 A  
HETATM   33  C   UNL     1      -7.971   9.255  70.446  1.00  0.00    -0.171 A  
HETATM   34  C   UNL     1      -8.995   8.945  71.344  1.00  0.00    -0.300 A  
HETATM   35  C   UNL     1      -9.588  10.222  68.939  1.00  0.00    -0.193 A  
ENDBRANCH  23  30
ENDBRANCH  22  23
ENDBRANCH  19  22
ENDBRANCH  15  16
ENDBRANCH  14  15
ENDBRANCH  13  14
ENDBRANCH  11  13
ENDBRANCH   8  11
ENDBRANCH   2   5
TORSDOF 10
ENDMDL
MODEL       58
REMARK 921   NORMALIZED FREE ENERGY PREDICTED BY IDOCK:   -5.46 KCAL/MOL
REMARK 922        TOTAL FREE ENERGY PREDICTED BY IDOCK:  -11.57 KCAL/MOL
REMARK 923 INTER-LIGAND FREE ENERGY PREDICTED BY IDOCK:  -10.41 KCAL/MOL
REMARK 924 INTRA-LIGAND FREE ENERGY PREDICTED BY IDOCK:   -1.16 KCAL/MOL
REMARK 927      BINDING AFFINITY PREDICTED BY RF-SCORE:    0.00 PKD
ROOT
HETATM    1  C   UNL     1      -9.626   6.931  74.291  1.00  0.00    -0.297 C  
HETATM    2  C   UNL     1      -9.658   5.772  73.271  1.00  0.00    -0.145 C  
HETATM    3  C   UNL     1     -10.811   4.829  73.679  1.00  0.00    -0.377 C  
HETATM    4  C   UNL     1      -8.320   5.012  73.395  1.00  0.00    -0.110 C  
ENDROOT
BRANCH   2   5
HETATM    5  C   UNL     1      -9.869   6.247  71.827  1.00  0.00    -0.182 A  
HETATM    6  C   UNL     1     -11.113   6.189  71.182  1.00  0.00    -0.360 A  
HETATM    7  C   UNL     1     -11.268   6.609  69.853  1.00  0.00    -0.421 A  
HETATM    8  C   UNL     1     -10.174   7.091  69.133  1.00  0.00    -0.193 A  
HETATM    9  C   UNL     1      -8.780   6.747  71.088  1.00  0.00    -0.136 A  
HETATM   10  C   UNL     1      -8.929   7.162  69.763  1.00  0.00    -0.142 A  
BRANCH   8  11
HETATM   11  C   UNL     1     -10.372   7.505  67.714  1.00  0.00    -0.216 C  
HETATM   12  O   UNL     1     -11.243   6.961  67.039  1.00  0.00    -0.369 OA 
BRANCH  11  13
HETATM   13  C   UNL     1      -9.473   8.595  67.165  1.00  0.00    -0.207 C  
BRANCH  13  14
HETATM   14  C   UNL     1     -10.063   9.249  65.919  1.00  0.00    -0.188 C  
BRANCH  14  15
HETATM   15  C   UNL     1     -10.098  10.776  66.021  1.00  0.00    -0.249 C  
BRANCH  15  16
HETATM   16  N   UNL     1     -11.296  11.351  66.653  1.00  0.00    -0.387 NA 
HETATM   17  C   UNL     1     -11.277  11.411  68.123  1.00  0.00    -0.278 C  
HETATM   18  C   UNL     1     -10.408  12.521  68.728  1.00  0.00    -0.138 C  
HETATM   19  C   UNL     1     -10.658  13.896  68.094  1.00  0.00    -0.252 C  
HETATM   20  C   UNL     1     -10.590  13.755  66.572  1.00  0.00    -0.279 C  
HETATM   21  C   UNL     1     -11.587  12.686  66.101  1.00  0.00    -0.393 C  
BRANCH  19  22
HETATM   22  O   UNL     1     -11.941  14.472  68.341  1.00  0.00    -0.321 OA 
BRANCH  22  23
HETATM   23  C   UNL     1     -12.058  15.637  69.162  1.00  0.00    -0.227 C  
BRANCH  23  24
HETATM   24  C   UNL     1     -10.807  16.481  68.914  1.00  0.00    -0.336 A  
HETATM   25  C   UNL     1      -9.542  16.082  69.390  1.00  0.00    -0.236 A  
HETATM   26  C   UNL     1      -8.404  16.853  69.143  1.00  0.00    -0.056 A  
HETATM   27  C   UNL     1     -10.895  17.685  68.199  1.00  0.00    -0.223 A  
HETATM   28  C   UNL     1      -8.512  18.038  68.418  1.00  0.00    -0.306 A  
HETATM   29  C   UNL     1      -9.757  18.455  67.952  1.00  0.00    -0.325 A  
ENDBRANCH  23  24
BRANCH  23  30
HETATM   30  C   UNL     1     -12.262  15.315  70.636  1.00  0.00    -0.412 A  
HETATM   31  C   UNL     1     -12.726  14.807  73.364  1.00  0.00    -0.588 A  
HETATM   32  C   UNL     1     -12.063  15.967  72.974  1.00  0.00    -0.628 A  
HETATM   33  C   UNL     1     -12.885  14.127  71.049  1.00  0.00    -0.421 A  
HETATM   34  C   UNL     1     -13.125  13.879  72.403  1.00  0.00    -0.532 A  
HETATM   35  C   UNL     1     -11.830  16.220  71.620  1.00  0.00    -0.482 A  
ENDBRANCH  23  30
ENDBRANCH  22  23
ENDBRANCH  19  22
ENDBRANCH  15  16
ENDBRANCH  14  15
ENDBRANCH  13  14
ENDBRANCH  11  13
ENDBRANCH   8  11
ENDBRANCH   2   5
TORSDOF 10
ENDMDL
MODEL       59
REMARK 921   NORMALIZED FREE ENERGY PREDICTED BY IDOCK:   -5.45 KCAL/MOL
REMARK 922        TOTAL FREE ENERGY PREDICTED BY IDOCK:  -11.57 KCAL/MOL
REMARK 923 INTER-LIGAND FREE ENERGY PREDICTED BY IDOCK:   -9.02 KCAL/MOL
REMARK 924 INTRA-LIGAND FREE ENERGY PREDICTED BY IDOCK:   -2.55 KCAL/MOL
REMARK 927      BINDING AFFINITY PREDICTED BY RF-SCORE:    0.00 PKD
ROOT
HETATM    1  C   UNL     1     -11.994  13.739  67.222  1.00  0.00    -0.436 C  
HETATM    2  C   UNL     1     -11.470  13.578  65.778  1.00  0.00    -0.331 C  
HETATM    3  C   UNL     1     -10.695  14.866  65.422  1.00  0.00    -0.391 C  
HETATM    4  C   UNL     1     -12.700  13.461  64.853  1.00  0.00    -0.365 C  
ENDROOT
BRANCH   2   5
HETATM    5  C   UNL     1     -10.553  12.360  65.602  1.00  0.00    -0.297 A  
HETATM    6  C   UNL     1      -9.612  11.972  66.566  1.00  0.00    -0.234 A  
HETATM    7  C   UNL     1      -8.771  10.867  66.365  1.00  0.00    -0.174 A  
HETATM    8  C   UNL     1      -8.850  10.127  65.184  1.00  0.00    -0.207 A  
HETATM    9  C   UNL     1     -10.626  11.594  64.423  1.00  0.00    -0.377 A  
HETATM   10  C   UNL     1      -9.789  10.496  64.216  1.00  0.00    -0.402 A  
BRANCH   8  11
HETATM   11  C   UNL     1      -7.924   8.974  64.994  1.00  0.00    -0.123 C  
HETATM   12  O   UNL     1      -8.377   7.882  64.656  1.00  0.00    -0.130 OA 
BRANCH  11  13
HETATM   13  C   UNL     1      -6.445   9.210  65.229  1.00  0.00    -0.068 C  
BRANCH  13  14
HETATM   14  C   UNL     1      -5.905   8.358  66.374  1.00  0.00    -0.044 C  
BRANCH  14  15
HETATM   15  C   UNL     1      -6.351   8.873  67.745  1.00  0.00    -0.056 C  
BRANCH  15  16
HETATM   16  N   UNL     1      -6.766   7.846  68.713  1.00  0.00    -0.056 NA 
HETATM   17  C   UNL     1      -7.123   8.339  70.054  1.00  0.00    -0.043 C  
HETATM   18  C   UNL     1      -8.495   9.016  70.164  1.00  0.00    -0.165 C  
HETATM   19  C   UNL     1      -9.625   8.198  69.526  1.00  0.00    -0.168 C  
HETATM   20  C   UNL     1      -9.199   7.789  68.114  1.00  0.00    -0.138 C  
HETATM   21  C   UNL     1      -7.866   7.029  68.170  1.00  0.00    -0.118 C  
BRANCH  19  22
HETATM   22  O   UNL     1      -9.944   6.966  70.173  1.00  0.00    -0.177 OA 
BRANCH  22  23
HETATM   23  C   UNL     1     -10.432   6.966  71.517  1.00  0.00    -0.212 C  
BRANCH  23  24
HETATM   24  C   UNL     1     -10.389   5.517  72.004  1.00  0.00    -0.265 A  
HETATM   25  C   UNL     1     -10.819   5.162  73.298  1.00  0.00    -0.352 A  
HETATM   26  C   UNL     1     -10.790   3.833  73.726  1.00  0.00    -0.320 A  
HETATM   27  C   UNL     1      -9.915   4.501  71.162  1.00  0.00    -0.257 A  
HETATM   28  C   UNL     1     -10.329   2.836  72.868  1.00  0.00    -0.238 A  
HETATM   29  C   UNL     1      -9.888   3.171  71.591  1.00  0.00    -0.216 A  
ENDBRANCH  23  24
BRANCH  23  30
HETATM   30  C   UNL     1     -11.815   7.587  71.653  1.00  0.00    -0.322 A  
HETATM   31  C   UNL     1     -14.392   8.662  72.002  1.00  0.00    -0.512 A  
HETATM   32  C   UNL     1     -14.236   7.377  71.487  1.00  0.00    -0.571 A  
HETATM   33  C   UNL     1     -11.989   8.898  72.124  1.00  0.00    -0.419 A  
HETATM   34  C   UNL     1     -13.269   9.428  72.308  1.00  0.00    -0.528 A  
HETATM   35  C   UNL     1     -12.957   6.844  71.311  1.00  0.00    -0.309 A  
ENDBRANCH  23  30
ENDBRANCH  22  23
ENDBRANCH  19  22
ENDBRANCH  15  16
ENDBRANCH  14  15
ENDBRANCH  13  14
ENDBRANCH  11  13
ENDBRANCH   8  11
ENDBRANCH   2   5
TORSDOF 10
ENDMDL
MODEL       60
REMARK 921   NORMALIZED FREE ENERGY PREDICTED BY IDOCK:   -5.43 KCAL/MOL
REMARK 922        TOTAL FREE ENERGY PREDICTED BY IDOCK:  -11.53 KCAL/MOL
REMARK 923 INTER-LIGAND FREE ENERGY PREDICTED BY IDOCK:   -9.34 KCAL/MOL
REMARK 924 INTRA-LIGAND FREE ENERGY PREDICTED BY IDOCK:   -2.19 KCAL/MOL
REMARK 927      BINDING AFFINITY PREDICTED BY RF-SCORE:    0.00 PKD
ROOT
HETATM    1  C   UNL     1     -12.235  16.031  69.346  1.00  0.00     0.021 C  
HETATM    2  C   UNL     1     -11.401  14.742  69.510  1.00  0.00    -0.312 C  
HETATM    3  C   UNL     1     -12.162  13.820  70.489  1.00  0.00    -0.440 C  
HETATM    4  C   UNL     1     -10.052  15.142  70.143  1.00  0.00    -0.043 C  
ENDROOT
BRANCH   2   5
HETATM    5  C   UNL     1     -11.168  14.003  68.185  1.00  0.00    -0.299 A  
HETATM    6  C   UNL     1     -10.309  14.485  67.187  1.00  0.00    -0.265 A  
HETATM    7  C   UNL     1     -10.135  13.798  65.977  1.00  0.00    -0.320 A  
HETATM    8  C   UNL     1     -10.827  12.611  65.734  1.00  0.00    -0.304 A  
HETATM    9  C   UNL     1     -11.848  12.797  67.926  1.00  0.00    -0.392 A  
HETATM   10  C   UNL     1     -11.681  12.112  66.721  1.00  0.00    -0.377 A  
BRANCH   8  11
HETATM   11  C   UNL     1     -10.636  11.921  64.426  1.00  0.00    -0.319 C  
HETATM   12  O   UNL     1     -10.676  12.573  63.384  1.00  0.00    -0.426 OA 
BRANCH  11  13
HETATM   13  C   UNL     1     -10.397  10.424  64.445  1.00  0.00    -0.111 C  
BRANCH  13  14
HETATM   14  C   UNL     1      -8.932  10.082  64.699  1.00  0.00    -0.249 C  
BRANCH  14  15
HETATM   15  C   UNL     1      -8.467  10.505  66.094  1.00  0.00    -0.153 C  
BRANCH  15  16
HETATM   16  N   UNL     1      -8.092   9.412  67.005  1.00  0.00    -0.105 NA 
HETATM   17  C   UNL     1      -7.764   9.813  68.383  1.00  0.00    -0.081 C  
HETATM   18  C   UNL     1      -8.963  10.161  69.273  1.00  0.00    -0.193 C  
HETATM   19  C   UNL     1     -10.077   9.107  69.225  1.00  0.00    -0.194 C  
HETATM   20  C   UNL     1     -10.403   8.804  67.761  1.00  0.00    -0.297 C  
HETATM   21  C   UNL     1      -9.130   8.366  67.022  1.00  0.00    -0.144 C  
BRANCH  19  22
HETATM   22  O   UNL     1      -9.756   7.836  69.790  1.00  0.00    -0.174 OA 
BRANCH  22  23
HETATM   23  C   UNL     1     -10.225   7.493  71.096  1.00  0.00    -0.193 C  
BRANCH  23  24
HETATM   24  C   UNL     1     -10.022   5.985  71.258  1.00  0.00    -0.223 A  
HETATM   25  C   UNL     1     -10.279   5.334  72.480  1.00  0.00    -0.237 A  
HETATM   26  C   UNL     1     -10.105   3.954  72.611  1.00  0.00    -0.228 A  
HETATM   27  C   UNL     1      -9.569   5.212  70.178  1.00  0.00    -0.247 A  
HETATM   28  C   UNL     1      -9.668   3.203  71.522  1.00  0.00    -0.226 A  
HETATM   29  C   UNL     1      -9.396   3.832  70.310  1.00  0.00    -0.238 A  
ENDBRANCH  23  24
BRANCH  23  30
HETATM   30  C   UNL     1     -11.665   7.918  71.348  1.00  0.00    -0.311 A  
HETATM   31  C   UNL     1     -14.321   8.772  71.711  1.00  0.00    -0.414 A  
HETATM   32  C   UNL     1     -13.268   9.651  71.947  1.00  0.00    -0.538 A  
HETATM   33  C   UNL     1     -12.736   7.030  71.162  1.00  0.00    -0.361 A  
HETATM   34  C   UNL     1     -14.056   7.457  71.332  1.00  0.00    -0.491 A  
HETATM   35  C   UNL     1     -11.948   9.228  71.770  1.00  0.00    -0.455 A  
ENDBRANCH  23  30
ENDBRANCH  22  23
ENDBRANCH  19  22
ENDBRANCH  15  16
ENDBRANCH  14  15
ENDBRANCH  13  14
ENDBRANCH  11  13
ENDBRANCH   8  11
ENDBRANCH   2   5
TORSDOF 10
ENDMDL
MODEL       61
REMARK 921   NORMALIZED FREE ENERGY PREDICTED BY IDOCK:   -5.36 KCAL/MOL
REMARK 922        TOTAL FREE ENERGY PREDICTED BY IDOCK:  -11.43 KCAL/MOL
REMARK 923 INTER-LIGAND FREE ENERGY PREDICTED BY IDOCK:   -9.40 KCAL/MOL
REMARK 924 INTRA-LIGAND FREE ENERGY PREDICTED BY IDOCK:   -2.03 KCAL/MOL
REMARK 927      BINDING AFFINITY PREDICTED BY RF-SCORE:    0.00 PKD
ROOT
HETATM    1  C   UNL     1      -5.890   6.071  72.239  1.00  0.00    -0.036 C  
HETATM    2  C   UNL     1      -7.401   6.285  72.000  1.00  0.00    -0.093 C  
HETATM    3  C   UNL     1      -7.850   7.456  72.902  1.00  0.00    -0.114 C  
HETATM    4  C   UNL     1      -8.126   4.998  72.449  1.00  0.00    -0.109 C  
ENDROOT
BRANCH   2   5
HETATM    5  C   UNL     1      -7.740   6.604  70.538  1.00  0.00    -0.104 A  
HETATM    6  C   UNL     1      -7.594   5.670  69.503  1.00  0.00    -0.072 A  
HETATM    7  C   UNL     1      -7.890   5.999  68.172  1.00  0.00    -0.106 A  
HETATM    8  C   UNL     1      -8.334   7.281  67.845  1.00  0.00    -0.119 A  
HETATM    9  C   UNL     1      -8.200   7.889  70.190  1.00  0.00    -0.125 A  
HETATM   10  C   UNL     1      -8.493   8.223  68.866  1.00  0.00    -0.128 A  
BRANCH   8  11
HETATM   11  C   UNL     1      -8.616   7.603  66.417  1.00  0.00    -0.143 C  
HETATM   12  O   UNL     1      -7.932   7.090  65.533  1.00  0.00    -0.114 OA 
BRANCH  11  13
HETATM   13  C   UNL     1      -9.752   8.563  66.120  1.00  0.00    -0.259 C  
BRANCH  13  14
HETATM   14  C   UNL     1      -9.289   9.757  65.290  1.00  0.00    -0.315 C  
BRANCH  14  15
HETATM   15  C   UNL     1     -10.234  10.954  65.412  1.00  0.00    -0.277 C  
BRANCH  15  16
HETATM   16  N   UNL     1      -9.772  12.054  66.272  1.00  0.00    -0.230 NA 
HETATM   17  C   UNL     1     -10.423  13.355  66.051  1.00  0.00    -0.294 C  
HETATM   18  C   UNL     1     -11.842  13.489  66.621  1.00  0.00    -0.450 C  
HETATM   19  C   UNL     1     -11.953  13.023  68.078  1.00  0.00    -0.290 C  
HETATM   20  C   UNL     1     -11.317  11.637  68.201  1.00  0.00    -0.358 C  
HETATM   21  C   UNL     1      -9.868  11.680  67.694  1.00  0.00    -0.186 C  
BRANCH  19  22
HETATM   22  O   UNL     1     -11.263  13.819  69.041  1.00  0.00    -0.252 OA 
BRANCH  22  23
HETATM   23  C   UNL     1     -11.676  15.166  69.288  1.00  0.00    -0.329 C  
BRANCH  23  24
HETATM   24  C   UNL     1     -10.449  16.053  69.071  1.00  0.00    -0.246 A  
HETATM   25  C   UNL     1      -9.143  15.567  69.279  1.00  0.00    -0.266 A  
HETATM   26  C   UNL     1      -8.029  16.381  69.063  1.00  0.00    -0.227 A  
HETATM   27  C   UNL     1     -10.601  17.384  68.657  1.00  0.00    -0.318 A  
HETATM   28  C   UNL     1      -8.203  17.696  68.637  1.00  0.00    -0.264 A  
HETATM   29  C   UNL     1      -9.487  18.198  68.440  1.00  0.00    -0.327 A  
ENDBRANCH  23  24
BRANCH  23  30
HETATM   30  C   UNL     1     -12.301  15.360  70.662  1.00  0.00    -0.451 A  
HETATM   31  C   UNL     1     -13.449  15.841  73.186  1.00  0.00    -0.652 A  
HETATM   32  C   UNL     1     -12.091  16.072  72.982  1.00  0.00    -0.628 A  
HETATM   33  C   UNL     1     -13.657  15.084  70.899  1.00  0.00    -0.363 A  
HETATM   34  C   UNL     1     -14.229  15.332  72.149  1.00  0.00    -0.667 A  
HETATM   35  C   UNL     1     -11.519  15.832  71.730  1.00  0.00    -0.484 A  
ENDBRANCH  23  30
ENDBRANCH  22  23
ENDBRANCH  19  22
ENDBRANCH  15  16
ENDBRANCH  14  15
ENDBRANCH  13  14
ENDBRANCH  11  13
ENDBRANCH   8  11
ENDBRANCH   2   5
TORSDOF 10
ENDMDL
MODEL       62
REMARK 921   NORMALIZED FREE ENERGY PREDICTED BY IDOCK:   -5.36 KCAL/MOL
REMARK 922        TOTAL FREE ENERGY PREDICTED BY IDOCK:  -11.42 KCAL/MOL
REMARK 923 INTER-LIGAND FREE ENERGY PREDICTED BY IDOCK:   -9.11 KCAL/MOL
REMARK 924 INTRA-LIGAND FREE ENERGY PREDICTED BY IDOCK:   -2.31 KCAL/MOL
REMARK 927      BINDING AFFINITY PREDICTED BY RF-SCORE:    0.00 PKD
ROOT
HETATM    1  C   UNL     1      -9.202   2.082  69.429  1.00  0.00    -0.181 C  
HETATM    2  C   UNL     1      -8.525   3.058  70.416  1.00  0.00    -0.100 C  
HETATM    3  C   UNL     1      -6.999   2.838  70.308  1.00  0.00    -0.034 C  
HETATM    4  C   UNL     1      -8.988   2.672  71.837  1.00  0.00    -0.130 C  
ENDROOT
BRANCH   2   5
HETATM    5  C   UNL     1      -8.853   4.529  70.130  1.00  0.00    -0.129 A  
HETATM    6  C   UNL     1      -7.973   5.577  70.436  1.00  0.00    -0.102 A  
HETATM    7  C   UNL     1      -8.312   6.915  70.184  1.00  0.00    -0.135 A  
HETATM    8  C   UNL     1      -9.551   7.235  69.625  1.00  0.00    -0.155 A  
HETATM    9  C   UNL     1     -10.093   4.871  69.556  1.00  0.00    -0.286 A  
HETATM   10  C   UNL     1     -10.436   6.201  69.307  1.00  0.00    -0.314 A  
BRANCH   8  11
HETATM   11  C   UNL     1      -9.887   8.669  69.394  1.00  0.00    -0.184 C  
HETATM   12  O   UNL     1      -9.450   9.525  70.160  1.00  0.00    -0.214 OA 
BRANCH  11  13
HETATM   13  C   UNL     1     -10.766   9.006  68.205  1.00  0.00    -0.155 C  
BRANCH  13  14
HETATM   14  C   UNL     1      -9.947   9.260  66.944  1.00  0.00    -0.298 C  
BRANCH  14  15
HETATM   15  C   UNL     1     -10.095  10.695  66.430  1.00  0.00    -0.225 C  
BRANCH  15  16
HETATM   16  N   UNL     1     -10.575  11.682  67.409  1.00  0.00    -0.212 NA 
HETATM   17  C   UNL     1      -9.533  12.480  68.076  1.00  0.00    -0.209 C  
HETATM   18  C   UNL     1      -8.916  13.600  67.229  1.00  0.00    -0.226 C  
HETATM   19  C   UNL     1      -9.964  14.479  66.534  1.00  0.00    -0.280 C  
HETATM   20  C   UNL     1     -10.962  13.572  65.810  1.00  0.00    -0.285 C  
HETATM   21  C   UNL     1     -11.578  12.575  66.801  1.00  0.00    -0.382 C  
BRANCH  19  22
HETATM   22  O   UNL     1     -10.772  15.283  67.393  1.00  0.00    -0.280 OA 
BRANCH  22  23
HETATM   23  C   UNL     1     -10.188  15.934  68.524  1.00  0.00    -0.226 C  
BRANCH  23  24
HETATM   24  C   UNL     1     -11.103  15.656  69.718  1.00  0.00    -0.315 A  
HETATM   25  C   UNL     1     -12.151  14.717  69.639  1.00  0.00    -0.355 A  
HETATM   26  C   UNL     1     -12.970  14.459  70.741  1.00  0.00    -0.388 A  
HETATM   27  C   UNL     1     -10.916  16.339  70.929  1.00  0.00    -0.025 A  
HETATM   28  C   UNL     1     -12.757  15.138  71.939  1.00  0.00    -0.414 A  
HETATM   29  C   UNL     1     -11.735  16.080  72.030  1.00  0.00    -0.588 A  
ENDBRANCH  23  24
BRANCH  23  30
HETATM   30  C   UNL     1      -9.952  17.422  68.305  1.00  0.00    -0.320 A  
HETATM   31  C   UNL     1      -9.430  20.143  67.815  1.00  0.00    -0.479 A  
HETATM   32  C   UNL     1      -8.518  19.377  68.536  1.00  0.00    -0.397 A  
HETATM   33  C   UNL     1     -10.884  18.221  67.623  1.00  0.00    -0.272 A  
HETATM   34  C   UNL     1     -10.620  19.569  67.371  1.00  0.00    -0.607 A  
HETATM   35  C   UNL     1      -8.777  18.026  68.782  1.00  0.00    -0.206 A  
ENDBRANCH  23  30
ENDBRANCH  22  23
ENDBRANCH  19  22
ENDBRANCH  15  16
ENDBRANCH  14  15
ENDBRANCH  13  14
ENDBRANCH  11  13
ENDBRANCH   8  11
ENDBRANCH   2   5
TORSDOF 10
ENDMDL
MODEL       63
REMARK 921   NORMALIZED FREE ENERGY PREDICTED BY IDOCK:   -5.33 KCAL/MOL
REMARK 922        TOTAL FREE ENERGY PREDICTED BY IDOCK:  -11.38 KCAL/MOL
REMARK 923 INTER-LIGAND FREE ENERGY PREDICTED BY IDOCK:   -8.61 KCAL/MOL
REMARK 924 INTRA-LIGAND FREE ENERGY PREDICTED BY IDOCK:   -2.77 KCAL/MOL
REMARK 927      BINDING AFFINITY PREDICTED BY RF-SCORE:    0.00 PKD
ROOT
HETATM    1  C   UNL     1     -11.886   7.805  72.941  1.00  0.00    -0.152 C  
HETATM    2  C   UNL     1     -12.692   8.158  71.672  1.00  0.00    -0.343 C  
HETATM    3  C   UNL     1     -14.184   7.913  71.989  1.00  0.00    -0.441 C  
HETATM    4  C   UNL     1     -12.249   7.184  70.559  1.00  0.00    -0.173 C  
ENDROOT
BRANCH   2   5
HETATM    5  C   UNL     1     -12.495   9.611  71.217  1.00  0.00    -0.445 A  
HETATM    6  C   UNL     1     -11.596   9.975  70.205  1.00  0.00    -0.354 A  
HETATM    7  C   UNL     1     -11.421  11.314  69.828  1.00  0.00    -0.386 A  
HETATM    8  C   UNL     1     -12.142  12.326  70.465  1.00  0.00    -0.371 A  
HETATM    9  C   UNL     1     -13.222  10.644  71.839  1.00  0.00    -0.528 A  
HETATM   10  C   UNL     1     -13.049  11.979  71.470  1.00  0.00    -0.362 A  
BRANCH   8  11
HETATM   11  C   UNL     1     -11.913  13.741  70.055  1.00  0.00    -0.338 C  
HETATM   12  O   UNL     1     -11.480  14.547  70.875  1.00  0.00    -0.236 OA 
BRANCH  11  13
HETATM   13  C   UNL     1     -12.231  14.122  68.622  1.00  0.00    -0.216 C  
BRANCH  13  14
HETATM   14  C   UNL     1     -11.121  14.959  67.994  1.00  0.00    -0.301 C  
BRANCH  14  15
HETATM   15  C   UNL     1     -11.248  15.049  66.471  1.00  0.00    -0.312 C  
BRANCH  15  16
HETATM   16  N   UNL     1     -10.142  14.465  65.697  1.00  0.00    -0.339 NA 
HETATM   17  C   UNL     1      -8.919  14.161  66.459  1.00  0.00    -0.112 C  
HETATM   18  C   UNL     1      -8.984  12.907  67.339  1.00  0.00    -0.199 C  
HETATM   19  C   UNL     1      -9.527  11.677  66.599  1.00  0.00    -0.201 C  
HETATM   20  C   UNL     1     -10.831  12.063  65.897  1.00  0.00    -0.329 C  
HETATM   21  C   UNL     1     -10.590  13.263  64.971  1.00  0.00    -0.346 C  
BRANCH  19  22
HETATM   22  O   UNL     1      -8.699  11.162  65.556  1.00  0.00    -0.176 OA 
BRANCH  22  23
HETATM   23  C   UNL     1      -8.883   9.823  65.091  1.00  0.00    -0.181 C  
BRANCH  23  24
HETATM   24  C   UNL     1      -8.997   8.934  66.331  1.00  0.00    -0.193 A  
HETATM   25  C   UNL     1     -10.151   8.168  66.585  1.00  0.00    -0.344 A  
HETATM   26  C   UNL     1     -10.237   7.348  67.713  1.00  0.00    -0.250 A  
HETATM   27  C   UNL     1      -7.941   8.866  67.252  1.00  0.00    -0.097 A  
HETATM   28  C   UNL     1      -9.170   7.284  68.607  1.00  0.00    -0.136 A  
HETATM   29  C   UNL     1      -8.027   8.046  68.379  1.00  0.00    -0.120 A  
ENDBRANCH  23  24
BRANCH  23  30
HETATM   30  C   UNL     1      -7.786   9.361  64.142  1.00  0.00    -0.117 A  
HETATM   31  C   UNL     1      -5.682   8.499  62.484  1.00  0.00    -0.082 A  
HETATM   32  C   UNL     1      -5.663   9.782  63.024  1.00  0.00    -0.096 A  
HETATM   33  C   UNL     1      -7.814   8.089  63.550  1.00  0.00    -0.146 A  
HETATM   34  C   UNL     1      -6.764   7.657  62.735  1.00  0.00    -0.071 A  
HETATM   35  C   UNL     1      -6.708  10.213  63.845  1.00  0.00    -0.111 A  
ENDBRANCH  23  30
ENDBRANCH  22  23
ENDBRANCH  19  22
ENDBRANCH  15  16
ENDBRANCH  14  15
ENDBRANCH  13  14
ENDBRANCH  11  13
ENDBRANCH   8  11
ENDBRANCH   2   5
TORSDOF 10
ENDMDL
MODEL       64
REMARK 921   NORMALIZED FREE ENERGY PREDICTED BY IDOCK:   -5.31 KCAL/MOL
REMARK 922        TOTAL FREE ENERGY PREDICTED BY IDOCK:  -11.35 KCAL/MOL
REMARK 923 INTER-LIGAND FREE ENERGY PREDICTED BY IDOCK:   -8.35 KCAL/MOL
REMARK 924 INTRA-LIGAND FREE ENERGY PREDICTED BY IDOCK:   -3.00 KCAL/MOL
REMARK 927      BINDING AFFINITY PREDICTED BY RF-SCORE:    0.00 PKD
ROOT
HETATM    1  C   UNL     1     -11.424   7.249  72.666  1.00  0.00    -0.304 C  
HETATM    2  C   UNL     1     -12.298   7.680  71.468  1.00  0.00    -0.356 C  
HETATM    3  C   UNL     1     -13.744   7.224  71.763  1.00  0.00    -0.399 C  
HETATM    4  C   UNL     1     -11.779   6.928  70.224  1.00  0.00    -0.344 C  
ENDROOT
BRANCH   2   5
HETATM    5  C   UNL     1     -12.277   9.195  71.222  1.00  0.00    -0.395 A  
HETATM    6  C   UNL     1     -13.079  10.093  71.941  1.00  0.00    -0.571 A  
HETATM    7  C   UNL     1     -13.054  11.470  71.676  1.00  0.00    -0.478 A  
HETATM    8  C   UNL     1     -12.228  11.981  70.674  1.00  0.00    -0.409 A  
HETATM    9  C   UNL     1     -11.441   9.731  70.223  1.00  0.00    -0.317 A  
HETATM   10  C   UNL     1     -11.416  11.100  69.953  1.00  0.00    -0.386 A  
BRANCH   8  11
HETATM   11  C   UNL     1     -12.246  13.447  70.403  1.00  0.00    -0.345 C  
HETATM   12  O   UNL     1     -12.153  14.238  71.340  1.00  0.00    -0.340 OA 
BRANCH  11  13
HETATM   13  C   UNL     1     -12.379  13.898  68.962  1.00  0.00    -0.122 C  
BRANCH  13  14
HETATM   14  C   UNL     1     -11.245  14.831  68.548  1.00  0.00    -0.291 C  
BRANCH  14  15
HETATM   15  C   UNL     1     -11.226  15.094  67.040  1.00  0.00    -0.308 C  
BRANCH  15  16
HETATM   16  N   UNL     1     -10.017  14.658  66.326  1.00  0.00    -0.276 NA 
HETATM   17  C   UNL     1      -8.883  14.256  67.175  1.00  0.00    -0.229 C  
HETATM   18  C   UNL     1      -9.008  12.877  67.834  1.00  0.00    -0.193 C  
HETATM   19  C   UNL     1      -9.416  11.773  66.851  1.00  0.00    -0.193 C  
HETATM   20  C   UNL     1     -10.640  12.244  66.063  1.00  0.00    -0.287 C  
HETATM   21  C   UNL     1     -10.334  13.580  65.372  1.00  0.00    -0.319 C  
BRANCH  19  22
HETATM   22  O   UNL     1      -8.453  11.443  65.850  1.00  0.00    -0.120 OA 
BRANCH  22  23
HETATM   23  C   UNL     1      -7.411  10.508  66.138  1.00  0.00    -0.136 C  
BRANCH  23  24
HETATM   24  C   UNL     1      -7.093   9.781  64.829  1.00  0.00    -0.126 A  
HETATM   25  C   UNL     1      -5.928   9.003  64.682  1.00  0.00    -0.065 A  
HETATM   26  C   UNL     1      -5.658   8.331  63.488  1.00  0.00    -0.062 A  
HETATM   27  C   UNL     1      -7.967   9.878  63.736  1.00  0.00    -0.148 A  
HETATM   28  C   UNL     1      -6.546   8.429  62.419  1.00  0.00    -0.091 A  
HETATM   29  C   UNL     1      -7.696   9.205  62.543  1.00  0.00    -0.115 A  
ENDBRANCH  23  24
BRANCH  23  30
HETATM   30  C   UNL     1      -7.759   9.549  67.268  1.00  0.00    -0.091 A  
HETATM   31  C   UNL     1      -8.336   7.690  69.299  1.00  0.00    -0.134 A  
HETATM   32  C   UNL     1      -8.940   7.568  68.051  1.00  0.00    -0.129 A  
HETATM   33  C   UNL     1      -7.197   9.686  68.547  1.00  0.00    -0.070 A  
HETATM   34  C   UNL     1      -7.476   8.757  69.553  1.00  0.00    -0.075 A  
HETATM   35  C   UNL     1      -8.657   8.492  67.042  1.00  0.00    -0.124 A  
ENDBRANCH  23  30
ENDBRANCH  22  23
ENDBRANCH  19  22
ENDBRANCH  15  16
ENDBRANCH  14  15
ENDBRANCH  13  14
ENDBRANCH  11  13
ENDBRANCH   8  11
ENDBRANCH   2   5
TORSDOF 10
ENDMDL
MODEL       65
REMARK 921   NORMALIZED FREE ENERGY PREDICTED BY IDOCK:   -5.30 KCAL/MOL
REMARK 922        TOTAL FREE ENERGY PREDICTED BY IDOCK:  -11.33 KCAL/MOL
REMARK 923 INTER-LIGAND FREE ENERGY PREDICTED BY IDOCK:   -8.09 KCAL/MOL
REMARK 924 INTRA-LIGAND FREE ENERGY PREDICTED BY IDOCK:   -3.24 KCAL/MOL
REMARK 927      BINDING AFFINITY PREDICTED BY RF-SCORE:    0.00 PKD
ROOT
HETATM    1  C   UNL     1      -6.020  12.835  68.808  1.00  0.00    -0.071 C  
HETATM    2  C   UNL     1      -6.421  11.344  68.768  1.00  0.00    -0.056 C  
HETATM    3  C   UNL     1      -7.756  11.205  69.533  1.00  0.00     0.105 C  
HETATM    4  C   UNL     1      -5.328  10.552  69.518  1.00  0.00    -0.038 C  
ENDROOT
BRANCH   2   5
HETATM    5  C   UNL     1      -6.587  10.803  67.342  1.00  0.00    -0.071 A  
HETATM    6  C   UNL     1      -5.863  11.303  66.250  1.00  0.00    -0.114 A  
HETATM    7  C   UNL     1      -6.055  10.802  64.954  1.00  0.00     0.086 A  
HETATM    8  C   UNL     1      -6.986   9.790  64.719  1.00  0.00    -0.122 A  
HETATM    9  C   UNL     1      -7.513   9.773  67.087  1.00  0.00    -0.088 A  
HETATM   10  C   UNL     1      -7.710   9.274  65.798  1.00  0.00    -0.098 A  
BRANCH   8  11
HETATM   11  C   UNL     1      -7.181   9.299  63.325  1.00  0.00    -0.092 C  
HETATM   12  O   UNL     1      -6.202   8.979  62.653  1.00  0.00    -0.094 OA 
BRANCH  11  13
HETATM   13  C   UNL     1      -8.599   9.218  62.796  1.00  0.00    -0.222 C  
BRANCH  13  14
HETATM   14  C   UNL     1      -9.212  10.599  62.588  1.00  0.00    -0.331 C  
BRANCH  14  15
HETATM   15  C   UNL     1     -10.183  10.982  63.707  1.00  0.00    -0.364 C  
BRANCH  15  16
HETATM   16  N   UNL     1     -10.084  12.364  64.200  1.00  0.00    -0.321 NA 
HETATM   17  C   UNL     1     -11.283  13.197  64.012  1.00  0.00    -0.379 C  
HETATM   18  C   UNL     1     -12.439  12.920  64.983  1.00  0.00    -0.553 C  
HETATM   19  C   UNL     1     -11.995  12.864  66.450  1.00  0.00    -0.395 C  
HETATM   20  C   UNL     1     -10.792  11.924  66.564  1.00  0.00    -0.317 C  
HETATM   21  C   UNL     1      -9.676  12.386  65.616  1.00  0.00    -0.172 C  
BRANCH  19  22
HETATM   22  O   UNL     1     -11.538  14.096  67.010  1.00  0.00    -0.343 OA 
BRANCH  22  23
HETATM   23  C   UNL     1     -10.698  14.089  68.167  1.00  0.00    -0.246 C  
BRANCH  23  24
HETATM   24  C   UNL     1     -11.622  14.141  69.386  1.00  0.00    -0.353 A  
HETATM   25  C   UNL     1     -11.937  12.982  70.121  1.00  0.00    -0.374 A  
HETATM   26  C   UNL     1     -12.769  13.044  71.242  1.00  0.00    -0.385 A  
HETATM   27  C   UNL     1     -12.182  15.359  69.798  1.00  0.00    -0.336 A  
HETATM   28  C   UNL     1     -13.302  14.267  71.643  1.00  0.00    -0.442 A  
HETATM   29  C   UNL     1     -13.013  15.421  70.919  1.00  0.00    -0.539 A  
ENDBRANCH  23  24
BRANCH  23  30
HETATM   30  C   UNL     1      -9.669  15.211  68.168  1.00  0.00    -0.217 A  
HETATM   31  C   UNL     1      -7.856  17.363  68.199  1.00  0.00    -0.234 A  
HETATM   32  C   UNL     1      -8.774  17.239  67.159  1.00  0.00    -0.231 A  
HETATM   33  C   UNL     1      -8.705  15.323  69.182  1.00  0.00    -0.238 A  
HETATM   34  C   UNL     1      -7.811  16.397  69.203  1.00  0.00    -0.214 A  
HETATM   35  C   UNL     1      -9.673  16.170  67.141  1.00  0.00    -0.236 A  
ENDBRANCH  23  30
ENDBRANCH  22  23
ENDBRANCH  19  22
ENDBRANCH  15  16
ENDBRANCH  14  15
ENDBRANCH  13  14
ENDBRANCH  11  13
ENDBRANCH   8  11
ENDBRANCH   2   5
TORSDOF 10
ENDMDL
MODEL       66
REMARK 921   NORMALIZED FREE ENERGY PREDICTED BY IDOCK:   -5.29 KCAL/MOL
REMARK 922        TOTAL FREE ENERGY PREDICTED BY IDOCK:  -11.31 KCAL/MOL
REMARK 923 INTER-LIGAND FREE ENERGY PREDICTED BY IDOCK:   -9.19 KCAL/MOL
REMARK 924 INTRA-LIGAND FREE ENERGY PREDICTED BY IDOCK:   -2.13 KCAL/MOL
REMARK 927      BINDING AFFINITY PREDICTED BY RF-SCORE:    0.00 PKD
ROOT
HETATM    1  C   UNL     1     -13.445   7.010  71.705  1.00  0.00    -0.307 C  
HETATM    2  C   UNL     1     -12.098   7.764  71.668  1.00  0.00    -0.335 C  
HETATM    3  C   UNL     1     -11.233   7.223  72.828  1.00  0.00    -0.348 C  
HETATM    4  C   UNL     1     -12.399   9.257  71.921  1.00  0.00    -0.454 C  
ENDROOT
BRANCH   2   5
HETATM    5  C   UNL     1     -11.346   7.591  70.341  1.00  0.00    -0.253 A  
HETATM    6  C   UNL     1     -10.677   8.645  69.704  1.00  0.00    -0.204 A  
HETATM    7  C   UNL     1     -10.018   8.460  68.480  1.00  0.00    -0.203 A  
HETATM    8  C   UNL     1     -10.021   7.210  67.859  1.00  0.00    -0.186 A  
HETATM    9  C   UNL     1     -11.328   6.334  69.706  1.00  0.00    -0.506 A  
HETATM   10  C   UNL     1     -10.677   6.146  68.485  1.00  0.00    -0.365 A  
BRANCH   8  11
HETATM   11  C   UNL     1      -9.332   7.056  66.546  1.00  0.00    -0.159 C  
HETATM   12  O   UNL     1      -9.048   5.931  66.139  1.00  0.00    -0.148 OA 
BRANCH  11  13
HETATM   13  C   UNL     1      -9.010   8.314  65.765  1.00  0.00    -0.185 C  
BRANCH  13  14
HETATM   14  C   UNL     1      -7.517   8.626  65.772  1.00  0.00    -0.085 C  
BRANCH  14  15
HETATM   15  C   UNL     1      -7.154   9.721  66.778  1.00  0.00    -0.089 C  
BRANCH  15  16
HETATM   16  N   UNL     1      -7.412  11.103  66.346  1.00  0.00    -0.132 NA 
HETATM   17  C   UNL     1      -8.824  11.447  66.111  1.00  0.00    -0.184 C  
HETATM   18  C   UNL     1      -9.668  11.670  67.373  1.00  0.00    -0.186 C  
HETATM   19  C   UNL     1      -9.003  12.610  68.386  1.00  0.00    -0.125 C  
HETATM   20  C   UNL     1      -7.566  12.139  68.624  1.00  0.00    -0.097 C  
HETATM   21  C   UNL     1      -6.812  12.065  67.288  1.00  0.00    -0.150 C  
BRANCH  19  22
HETATM   22  O   UNL     1      -8.868  13.971  67.977  1.00  0.00    -0.165 OA 
BRANCH  22  23
HETATM   23  C   UNL     1      -9.982  14.863  68.076  1.00  0.00    -0.220 C  
BRANCH  23  24
HETATM   24  C   UNL     1     -10.820  14.666  66.811  1.00  0.00    -0.312 A  
HETATM   25  C   UNL     1     -12.137  14.170  66.870  1.00  0.00    -0.466 A  
HETATM   26  C   UNL     1     -12.899  14.010  65.710  1.00  0.00    -0.416 A  
HETATM   27  C   UNL     1     -10.286  14.978  65.552  1.00  0.00    -0.406 A  
HETATM   28  C   UNL     1     -12.354  14.340  64.471  1.00  0.00    -0.432 A  
HETATM   29  C   UNL     1     -11.048  14.818  64.393  1.00  0.00    -0.133 A  
ENDBRANCH  23  24
BRANCH  23  30
HETATM   30  C   UNL     1      -9.572  16.314  68.284  1.00  0.00    -0.218 A  
HETATM   31  C   UNL     1      -8.778  19.000  68.551  1.00  0.00    -0.392 A  
HETATM   32  C   UNL     1      -7.819  17.994  68.470  1.00  0.00    -0.310 A  
HETATM   33  C   UNL     1     -10.526  17.335  68.417  1.00  0.00    -0.381 A  
HETATM   34  C   UNL     1     -10.133  18.670  68.539  1.00  0.00    -0.426 A  
HETATM   35  C   UNL     1      -8.212  16.660  68.340  1.00  0.00    -0.206 A  
ENDBRANCH  23  30
ENDBRANCH  22  23
ENDBRANCH  19  22
ENDBRANCH  15  16
ENDBRANCH  14  15
ENDBRANCH  13  14
ENDBRANCH  11  13
ENDBRANCH   8  11
ENDBRANCH   2   5
TORSDOF 10
ENDMDL
MODEL       67
REMARK 921   NORMALIZED FREE ENERGY PREDICTED BY IDOCK:   -5.28 KCAL/MOL
REMARK 922        TOTAL FREE ENERGY PREDICTED BY IDOCK:  -11.30 KCAL/MOL
REMARK 923 INTER-LIGAND FREE ENERGY PREDICTED BY IDOCK:   -8.33 KCAL/MOL
REMARK 924 INTRA-LIGAND FREE ENERGY PREDICTED BY IDOCK:   -2.98 KCAL/MOL
REMARK 927      BINDING AFFINITY PREDICTED BY RF-SCORE:    0.00 PKD
ROOT
HETATM    1  C   UNL     1     -10.676   6.241  73.565  1.00  0.00    -0.262 C  
HETATM    2  C   UNL     1     -10.545   7.294  72.443  1.00  0.00    -0.273 C  
HETATM    3  C   UNL     1      -9.340   8.195  72.793  1.00  0.00    -0.344 C  
HETATM    4  C   UNL     1     -11.832   8.147  72.459  1.00  0.00    -0.438 C  
ENDROOT
BRANCH   2   5
HETATM    5  C   UNL     1     -10.336   6.673  71.055  1.00  0.00    -0.234 A  
HETATM    6  C   UNL     1      -9.301   5.769  70.776  1.00  0.00    -0.189 A  
HETATM    7  C   UNL     1      -9.122   5.236  69.491  1.00  0.00    -0.144 A  
HETATM    8  C   UNL     1      -9.974   5.605  68.449  1.00  0.00    -0.201 A  
HETATM    9  C   UNL     1     -11.193   7.023  69.994  1.00  0.00    -0.310 A  
HETATM   10  C   UNL     1     -11.017   6.499  68.713  1.00  0.00    -0.371 A  
BRANCH   8  11
HETATM   11  C   UNL     1      -9.739   5.038  67.090  1.00  0.00    -0.164 C  
HETATM   12  O   UNL     1     -10.635   5.085  66.250  1.00  0.00    -0.304 OA 
BRANCH  11  13
HETATM   13  C   UNL     1      -8.383   4.421  66.808  1.00  0.00    -0.105 C  
BRANCH  13  14
HETATM   14  C   UNL     1      -7.500   5.342  65.972  1.00  0.00    -0.082 C  
BRANCH  14  15
HETATM   15  C   UNL     1      -6.873   6.464  66.803  1.00  0.00    -0.066 C  
BRANCH  15  16
HETATM   16  N   UNL     1      -6.873   7.799  66.186  1.00  0.00    -0.060 NA 
HETATM   17  C   UNL     1      -8.035   8.112  65.339  1.00  0.00    -0.126 C  
HETATM   18  C   UNL     1      -9.330   8.446  66.092  1.00  0.00    -0.267 C  
HETATM   19  C   UNL     1      -9.130   9.479  67.208  1.00  0.00    -0.130 C  
HETATM   20  C   UNL     1      -7.950   9.039  68.079  1.00  0.00    -0.101 C  
HETATM   21  C   UNL     1      -6.701   8.847  67.208  1.00  0.00    -0.066 C  
BRANCH  19  22
HETATM   22  O   UNL     1      -8.786  10.798  66.782  1.00  0.00    -0.138 OA 
BRANCH  22  23
HETATM   23  C   UNL     1      -9.674  11.888  67.038  1.00  0.00    -0.194 C  
BRANCH  23  24
HETATM   24  C   UNL     1     -10.566  12.032  65.803  1.00  0.00    -0.301 A  
HETATM   25  C   UNL     1     -10.089  11.734  64.512  1.00  0.00    -0.312 A  
HETATM   26  C   UNL     1     -10.918  11.854  63.393  1.00  0.00    -0.470 A  
HETATM   27  C   UNL     1     -11.892  12.471  65.934  1.00  0.00    -0.489 A  
HETATM   28  C   UNL     1     -12.236  12.277  63.548  1.00  0.00    -0.669 A  
HETATM   29  C   UNL     1     -12.720  12.590  64.816  1.00  0.00    -0.415 A  
ENDBRANCH  23  24
BRANCH  23  30
HETATM   30  C   UNL     1      -8.952  13.181  67.390  1.00  0.00    -0.201 A  
HETATM   31  C   UNL     1      -7.725  15.618  68.079  1.00  0.00    -0.133 A  
HETATM   32  C   UNL     1      -8.533  15.539  66.947  1.00  0.00    -0.289 A  
HETATM   33  C   UNL     1      -8.095  13.266  68.499  1.00  0.00    -0.094 A  
HETATM   34  C   UNL     1      -7.494  14.477  68.847  1.00  0.00    -0.133 A  
HETATM   35  C   UNL     1      -9.141  14.330  66.603  1.00  0.00    -0.249 A  
ENDBRANCH  23  30
ENDBRANCH  22  23
ENDBRANCH  19  22
ENDBRANCH  15  16
ENDBRANCH  14  15
ENDBRANCH  13  14
ENDBRANCH  11  13
ENDBRANCH   8  11
ENDBRANCH   2   5
TORSDOF 10
ENDMDL
MODEL       68
REMARK 921   NORMALIZED FREE ENERGY PREDICTED BY IDOCK:   -5.28 KCAL/MOL
REMARK 922        TOTAL FREE ENERGY PREDICTED BY IDOCK:  -11.29 KCAL/MOL
REMARK 923 INTER-LIGAND FREE ENERGY PREDICTED BY IDOCK:   -7.63 KCAL/MOL
REMARK 924 INTRA-LIGAND FREE ENERGY PREDICTED BY IDOCK:   -3.66 KCAL/MOL
REMARK 927      BINDING AFFINITY PREDICTED BY RF-SCORE:    0.00 PKD
ROOT
HETATM    1  C   UNL     1     -12.765  13.668  65.389  1.00  0.00    -0.500 C  
HETATM    2  C   UNL     1     -11.540  12.859  64.911  1.00  0.00    -0.365 C  
HETATM    3  C   UNL     1     -10.362  13.848  64.762  1.00  0.00    -0.419 C  
HETATM    4  C   UNL     1     -11.885  12.276  63.524  1.00  0.00    -0.601 C  
ENDROOT
BRANCH   2   5
HETATM    5  C   UNL     1     -11.147  11.733  65.878  1.00  0.00    -0.355 A  
HETATM    6  C   UNL     1     -10.257  10.708  65.528  1.00  0.00    -0.329 A  
HETATM    7  C   UNL     1      -9.935   9.680  66.426  1.00  0.00    -0.323 A  
HETATM    8  C   UNL     1     -10.506   9.651  67.699  1.00  0.00    -0.317 A  
HETATM    9  C   UNL     1     -11.703  11.694  67.171  1.00  0.00    -0.215 A  
HETATM   10  C   UNL     1     -11.389  10.671  68.067  1.00  0.00    -0.350 A  
BRANCH   8  11
HETATM   11  C   UNL     1     -10.160   8.530  68.618  1.00  0.00    -0.190 C  
HETATM   12  O   UNL     1     -10.974   8.167  69.465  1.00  0.00    -0.176 OA 
BRANCH  11  13
HETATM   13  C   UNL     1      -8.799   7.881  68.461  1.00  0.00    -0.134 C  
BRANCH  13  14
HETATM   14  C   UNL     1      -7.703   8.673  69.166  1.00  0.00    -0.097 C  
BRANCH  14  15
HETATM   15  C   UNL     1      -6.727   9.323  68.184  1.00  0.00    -0.060 C  
BRANCH  15  16
HETATM   16  N   UNL     1      -6.190  10.634  68.582  1.00  0.00    -0.046 NA 
HETATM   17  C   UNL     1      -5.763  11.511  67.481  1.00  0.00    -0.063 C  
HETATM   18  C   UNL     1      -6.895  12.197  66.706  1.00  0.00     0.106 C  
HETATM   19  C   UNL     1      -7.929  12.870  67.617  1.00  0.00    -0.167 C  
HETATM   20  C   UNL     1      -8.369  11.867  68.686  1.00  0.00    -0.058 C  
HETATM   21  C   UNL     1      -7.143  11.347  69.450  1.00  0.00    -0.065 C  
BRANCH  19  22
HETATM   22  O   UNL     1      -7.465  13.999  68.358  1.00  0.00    -0.102 OA 
BRANCH  22  23
HETATM   23  C   UNL     1      -8.076  15.279  68.171  1.00  0.00    -0.136 C  
BRANCH  23  24
HETATM   24  C   UNL     1      -7.159  16.308  68.835  1.00  0.00    -0.182 A  
HETATM   25  C   UNL     1      -7.270  17.684  68.554  1.00  0.00    -0.242 A  
HETATM   26  C   UNL     1      -6.438  18.616  69.179  1.00  0.00    -0.287 A  
HETATM   27  C   UNL     1      -6.176  15.896  69.747  1.00  0.00    -0.177 A  
HETATM   28  C   UNL     1      -5.478  18.186  70.093  1.00  0.00    -0.249 A  
HETATM   29  C   UNL     1      -5.344  16.828  70.372  1.00  0.00    -0.215 A  
ENDBRANCH  23  24
BRANCH  23  30
HETATM   30  C   UNL     1      -9.503  15.345  68.696  1.00  0.00    -0.205 A  
HETATM   31  C   UNL     1     -12.113  15.575  69.721  1.00  0.00    -0.372 A  
HETATM   32  C   UNL     1     -11.059  15.237  70.566  1.00  0.00    -0.335 A  
HETATM   33  C   UNL     1     -10.584  15.636  67.849  1.00  0.00    -0.278 A  
HETATM   34  C   UNL     1     -11.879  15.760  68.360  1.00  0.00    -0.180 A  
HETATM   35  C   UNL     1      -9.763  15.121  70.058  1.00  0.00     0.059 A  
ENDBRANCH  23  30
ENDBRANCH  22  23
ENDBRANCH  19  22
ENDBRANCH  15  16
ENDBRANCH  14  15
ENDBRANCH  13  14
ENDBRANCH  11  13
ENDBRANCH   8  11
ENDBRANCH   2   5
TORSDOF 10
ENDMDL
MODEL       69
REMARK 921   NORMALIZED FREE ENERGY PREDICTED BY IDOCK:   -5.26 KCAL/MOL
REMARK 922        TOTAL FREE ENERGY PREDICTED BY IDOCK:  -11.27 KCAL/MOL
REMARK 923 INTER-LIGAND FREE ENERGY PREDICTED BY IDOCK:   -8.64 KCAL/MOL
REMARK 924 INTRA-LIGAND FREE ENERGY PREDICTED BY IDOCK:   -2.63 KCAL/MOL
REMARK 927      BINDING AFFINITY PREDICTED BY RF-SCORE:    0.00 PKD
ROOT
HETATM    1  C   UNL     1     -11.650   8.052  72.780  1.00  0.00    -0.390 C  
HETATM    2  C   UNL     1     -12.850   8.597  71.975  1.00  0.00    -0.425 C  
HETATM    3  C   UNL     1     -14.063   8.646  72.931  1.00  0.00     0.015 C  
HETATM    4  C   UNL     1     -13.143   7.588  70.844  1.00  0.00    -0.035 C  
ENDROOT
BRANCH   2   5
HETATM    5  C   UNL     1     -12.600   9.994  71.391  1.00  0.00    -0.518 A  
HETATM    6  C   UNL     1     -13.175  11.155  71.926  1.00  0.00    -0.488 A  
HETATM    7  C   UNL     1     -12.945  12.416  71.354  1.00  0.00    -0.348 A  
HETATM    8  C   UNL     1     -12.136  12.540  70.224  1.00  0.00    -0.373 A  
HETATM    9  C   UNL     1     -11.777  10.142  70.258  1.00  0.00    -0.361 A  
HETATM   10  C   UNL     1     -11.548  11.393  69.683  1.00  0.00    -0.399 A  
BRANCH   8  11
HETATM   11  C   UNL     1     -11.934  13.893  69.629  1.00  0.00    -0.342 C  
HETATM   12  O   UNL     1     -11.665  14.843  70.361  1.00  0.00    -0.265 OA 
BRANCH  11  13
HETATM   13  C   UNL     1     -12.072  14.031  68.126  1.00  0.00    -0.307 C  
BRANCH  13  14
HETATM   14  C   UNL     1     -10.734  14.322  67.454  1.00  0.00    -0.282 C  
BRANCH  14  15
HETATM   15  C   UNL     1     -10.612  13.658  66.080  1.00  0.00    -0.291 C  
BRANCH  15  16
HETATM   16  N   UNL     1     -11.054  12.257  66.002  1.00  0.00    -0.296 NA 
HETATM   17  C   UNL     1     -11.234  11.718  64.644  1.00  0.00    -0.286 C  
HETATM   18  C   UNL     1      -9.942  11.366  63.897  1.00  0.00    -0.357 C  
HETATM   19  C   UNL     1      -8.972  10.521  64.733  1.00  0.00    -0.205 C  
HETATM   20  C   UNL     1      -8.788  11.190  66.097  1.00  0.00    -0.195 C  
HETATM   21  C   UNL     1     -10.153  11.381  66.773  1.00  0.00    -0.216 C  
BRANCH  19  22
HETATM   22  O   UNL     1      -9.406   9.196  65.041  1.00  0.00    -0.195 OA 
BRANCH  22  23
HETATM   23  C   UNL     1      -8.582   8.337  65.833  1.00  0.00    -0.150 C  
BRANCH  23  24
HETATM   24  C   UNL     1      -8.025   7.267  64.893  1.00  0.00    -0.127 A  
HETATM   25  C   UNL     1      -7.532   6.041  65.382  1.00  0.00    -0.082 A  
HETATM   26  C   UNL     1      -7.041   5.064  64.512  1.00  0.00    -0.054 A  
HETATM   27  C   UNL     1      -7.992   7.489  63.508  1.00  0.00    -0.078 A  
HETATM   28  C   UNL     1      -7.031   5.300  63.138  1.00  0.00    -0.038 A  
HETATM   29  C   UNL     1      -7.502   6.512  62.639  1.00  0.00    -0.071 A  
ENDBRANCH  23  24
BRANCH  23  30
HETATM   30  C   UNL     1      -9.311   7.741  67.029  1.00  0.00    -0.196 A  
HETATM   31  C   UNL     1     -10.615   6.528  69.207  1.00  0.00    -0.292 A  
HETATM   32  C   UNL     1     -11.097   6.341  67.914  1.00  0.00    -0.360 A  
HETATM   33  C   UNL     1      -8.868   7.959  68.343  1.00  0.00    -0.130 A  
HETATM   34  C   UNL     1      -9.509   7.348  69.424  1.00  0.00    -0.155 A  
HETATM   35  C   UNL     1     -10.452   6.945  66.832  1.00  0.00    -0.349 A  
ENDBRANCH  23  30
ENDBRANCH  22  23
ENDBRANCH  19  22
ENDBRANCH  15  16
ENDBRANCH  14  15
ENDBRANCH  13  14
ENDBRANCH  11  13
ENDBRANCH   8  11
ENDBRANCH   2   5
TORSDOF 10
ENDMDL
MODEL       70
REMARK 921   NORMALIZED FREE ENERGY PREDICTED BY IDOCK:   -5.26 KCAL/MOL
REMARK 922        TOTAL FREE ENERGY PREDICTED BY IDOCK:  -11.26 KCAL/MOL
REMARK 923 INTER-LIGAND FREE ENERGY PREDICTED BY IDOCK:   -7.79 KCAL/MOL
REMARK 924 INTRA-LIGAND FREE ENERGY PREDICTED BY IDOCK:   -3.47 KCAL/MOL
REMARK 927      BINDING AFFINITY PREDICTED BY RF-SCORE:    0.00 PKD
ROOT
HETATM    1  C   UNL     1      -6.077   9.335  65.460  1.00  0.00    -0.063 C  
HETATM    2  C   UNL     1      -7.495   9.431  66.062  1.00  0.00    -0.096 C  
HETATM    3  C   UNL     1      -8.472   8.794  65.049  1.00  0.00    -0.193 C  
HETATM    4  C   UNL     1      -7.832  10.930  66.210  1.00  0.00    -0.158 C  
ENDROOT
BRANCH   2   5
HETATM    5  C   UNL     1      -7.625   8.720  67.416  1.00  0.00    -0.090 A  
HETATM    6  C   UNL     1      -8.309   7.507  67.575  1.00  0.00    -0.117 A  
HETATM    7  C   UNL     1      -8.430   6.894  68.831  1.00  0.00    -0.125 A  
HETATM    8  C   UNL     1      -7.872   7.489  69.963  1.00  0.00    -0.099 A  
HETATM    9  C   UNL     1      -7.058   9.299  68.568  1.00  0.00    -0.071 A  
HETATM   10  C   UNL     1      -7.180   8.695  69.821  1.00  0.00    -0.051 A  
BRANCH   8  11
HETATM   11  C   UNL     1      -8.042   6.821  71.285  1.00  0.00    -0.111 C  
HETATM   12  O   UNL     1      -7.357   5.838  71.560  1.00  0.00    -0.083 OA 
BRANCH  11  13
HETATM   13  C   UNL     1      -9.067   7.398  72.242  1.00  0.00    -0.160 C  
BRANCH  13  14
HETATM   14  C   UNL     1     -10.411   7.640  71.561  1.00  0.00    -0.223 C  
BRANCH  14  15
HETATM   15  C   UNL     1     -10.722   9.130  71.397  1.00  0.00    -0.343 C  
BRANCH  15  16
HETATM   16  N   UNL     1     -11.651   9.476  70.310  1.00  0.00    -0.215 NA 
HETATM   17  C   UNL     1     -12.604  10.559  70.604  1.00  0.00    -0.369 C  
HETATM   18  C   UNL     1     -12.022  11.977  70.577  1.00  0.00    -0.338 C  
HETATM   19  C   UNL     1     -11.189  12.264  69.321  1.00  0.00    -0.213 C  
HETATM   20  C   UNL     1     -10.180  11.128  69.131  1.00  0.00    -0.163 C  
HETATM   21  C   UNL     1     -10.914   9.782  69.070  1.00  0.00    -0.163 C  
BRANCH  19  22
HETATM   22  O   UNL     1     -11.911  12.307  68.090  1.00  0.00    -0.386 OA 
BRANCH  22  23
HETATM   23  C   UNL     1     -11.884  13.488  67.284  1.00  0.00    -0.385 C  
BRANCH  23  24
HETATM   24  C   UNL     1     -11.892  13.029  65.825  1.00  0.00    -0.453 A  
HETATM   25  C   UNL     1     -12.396  13.849  64.797  1.00  0.00    -0.429 A  
HETATM   26  C   UNL     1     -12.383  13.425  63.466  1.00  0.00    -0.398 A  
HETATM   27  C   UNL     1     -11.391  11.765  65.478  1.00  0.00    -0.283 A  
HETATM   28  C   UNL     1     -11.867  12.172  63.142  1.00  0.00    -0.320 A  
HETATM   29  C   UNL     1     -11.377  11.342  64.147  1.00  0.00    -0.263 A  
ENDBRANCH  23  24
BRANCH  23  30
HETATM   30  C   UNL     1     -10.711  14.405  67.601  1.00  0.00    -0.263 A  
HETATM   31  C   UNL     1      -8.537  16.129  68.067  1.00  0.00    -0.171 A  
HETATM   32  C   UNL     1      -8.335  14.909  67.428  1.00  0.00    -0.213 A  
HETATM   33  C   UNL     1     -10.889  15.616  68.289  1.00  0.00    -0.298 A  
HETATM   34  C   UNL     1      -9.812  16.477  68.512  1.00  0.00    -0.243 A  
HETATM   35  C   UNL     1      -9.413  14.051  67.197  1.00  0.00    -0.241 A  
ENDBRANCH  23  30
ENDBRANCH  22  23
ENDBRANCH  19  22
ENDBRANCH  15  16
ENDBRANCH  14  15
ENDBRANCH  13  14
ENDBRANCH  11  13
ENDBRANCH   8  11
ENDBRANCH   2   5
TORSDOF 10
ENDMDL
MODEL       71
REMARK 921   NORMALIZED FREE ENERGY PREDICTED BY IDOCK:   -5.24 KCAL/MOL
REMARK 922        TOTAL FREE ENERGY PREDICTED BY IDOCK:  -11.24 KCAL/MOL
REMARK 923 INTER-LIGAND FREE ENERGY PREDICTED BY IDOCK:   -8.59 KCAL/MOL
REMARK 924 INTRA-LIGAND FREE ENERGY PREDICTED BY IDOCK:   -2.64 KCAL/MOL
REMARK 927      BINDING AFFINITY PREDICTED BY RF-SCORE:    0.00 PKD
ROOT
HETATM    1  C   UNL     1      -6.059   6.616  63.923  1.00  0.00    -0.034 C  
HETATM    2  C   UNL     1      -7.585   6.535  64.149  1.00  0.00    -0.100 C  
HETATM    3  C   UNL     1      -8.211   5.941  62.868  1.00  0.00    -0.076 C  
HETATM    4  C   UNL     1      -8.100   7.978  64.338  1.00  0.00    -0.123 C  
ENDROOT
BRANCH   2   5
HETATM    5  C   UNL     1      -7.970   5.670  65.357  1.00  0.00    -0.112 A  
HETATM    6  C   UNL     1      -8.994   4.714  65.312  1.00  0.00    -0.148 A  
HETATM    7  C   UNL     1      -9.339   3.956  66.440  1.00  0.00    -0.192 A  
HETATM    8  C   UNL     1      -8.666   4.144  67.648  1.00  0.00    -0.119 A  
HETATM    9  C   UNL     1      -7.294   5.837  66.582  1.00  0.00    -0.082 A  
HETATM   10  C   UNL     1      -7.636   5.087  67.709  1.00  0.00    -0.083 A  
BRANCH   8  11
HETATM   11  C   UNL     1      -9.075   3.337  68.834  1.00  0.00    -0.146 C  
HETATM   12  O   UNL     1      -9.684   2.282  68.668  1.00  0.00    -0.109 OA 
BRANCH  11  13
HETATM   13  C   UNL     1      -8.713   3.867  70.207  1.00  0.00    -0.123 C  
BRANCH  13  14
HETATM   14  C   UNL     1      -9.782   3.541  71.245  1.00  0.00    -0.237 C  
BRANCH  14  15
HETATM   15  C   UNL     1     -10.379   4.797  71.884  1.00  0.00    -0.172 C  
BRANCH  15  16
HETATM   16  N   UNL     1     -10.092   6.066  71.198  1.00  0.00    -0.189 NA 
HETATM   17  C   UNL     1     -11.170   6.589  70.343  1.00  0.00    -0.355 C  
HETATM   18  C   UNL     1     -12.343   7.241  71.085  1.00  0.00    -0.381 C  
HETATM   19  C   UNL     1     -11.898   8.257  72.145  1.00  0.00    -0.369 C  
HETATM   20  C   UNL     1     -10.832   7.608  73.030  1.00  0.00    -0.457 C  
HETATM   21  C   UNL     1      -9.672   7.098  72.163  1.00  0.00    -0.146 C  
BRANCH  19  22
HETATM   22  O   UNL     1     -11.276   9.443  71.649  1.00  0.00    -0.370 OA 
BRANCH  22  23
HETATM   23  C   UNL     1     -11.840  10.136  70.533  1.00  0.00    -0.321 C  
BRANCH  23  24
HETATM   24  C   UNL     1     -10.790  10.113  69.421  1.00  0.00    -0.274 A  
HETATM   25  C   UNL     1     -11.151  10.226  68.064  1.00  0.00    -0.336 A  
HETATM   26  C   UNL     1     -10.182  10.221  67.058  1.00  0.00    -0.282 A  
HETATM   27  C   UNL     1      -9.430   9.977  69.734  1.00  0.00    -0.239 A  
HETATM   28  C   UNL     1      -8.835  10.099  67.393  1.00  0.00    -0.135 A  
HETATM   29  C   UNL     1      -8.461   9.973  68.728  1.00  0.00    -0.126 A  
ENDBRANCH  23  24
BRANCH  23  30
HETATM   30  C   UNL     1     -12.301  11.546  70.872  1.00  0.00    -0.460 A  
HETATM   31  C   UNL     1     -13.078  14.151  71.600  1.00  0.00    -0.425 A  
HETATM   32  C   UNL     1     -13.547  13.056  72.322  1.00  0.00    -0.643 A  
HETATM   33  C   UNL     1     -11.878  12.657  70.125  1.00  0.00    -0.326 A  
HETATM   34  C   UNL     1     -12.256  13.951  70.492  1.00  0.00    -0.443 A  
HETATM   35  C   UNL     1     -13.163  11.762  71.960  1.00  0.00    -0.460 A  
ENDBRANCH  23  30
ENDBRANCH  22  23
ENDBRANCH  19  22
ENDBRANCH  15  16
ENDBRANCH  14  15
ENDBRANCH  13  14
ENDBRANCH  11  13
ENDBRANCH   8  11
ENDBRANCH   2   5
TORSDOF 10
ENDMDL
MODEL       72
REMARK 921   NORMALIZED FREE ENERGY PREDICTED BY IDOCK:   -5.23 KCAL/MOL
REMARK 922        TOTAL FREE ENERGY PREDICTED BY IDOCK:  -11.22 KCAL/MOL
REMARK 923 INTER-LIGAND FREE ENERGY PREDICTED BY IDOCK:   -7.67 KCAL/MOL
REMARK 924 INTRA-LIGAND FREE ENERGY PREDICTED BY IDOCK:   -3.56 KCAL/MOL
REMARK 927      BINDING AFFINITY PREDICTED BY RF-SCORE:    0.00 PKD
ROOT
HETATM    1  C   UNL     1      -9.640  12.235  68.636  1.00  0.00    -0.051 C  
HETATM    2  C   UNL     1     -10.428  11.988  67.331  1.00  0.00    -0.239 C  
HETATM    3  C   UNL     1     -10.809  13.369  66.753  1.00  0.00    -0.286 C  
HETATM    4  C   UNL     1     -11.718  11.229  67.708  1.00  0.00    -0.254 C  
ENDROOT
BRANCH   2   5
HETATM    5  C   UNL     1      -9.630  11.196  66.286  1.00  0.00    -0.234 A  
HETATM    6  C   UNL     1      -8.296  10.812  66.480  1.00  0.00    -0.146 A  
HETATM    7  C   UNL     1      -7.586  10.109  65.496  1.00  0.00    -0.146 A  
HETATM    8  C   UNL     1      -8.198   9.779  64.286  1.00  0.00    -0.160 A  
HETATM    9  C   UNL     1     -10.234  10.843  65.064  1.00  0.00    -0.367 A  
HETATM   10  C   UNL     1      -9.531  10.146  64.080  1.00  0.00    -0.341 A  
BRANCH   8  11
HETATM   11  C   UNL     1      -7.406   9.052  63.253  1.00  0.00    -0.097 C  
HETATM   12  O   UNL     1      -6.489   9.631  62.673  1.00  0.00    -0.098 OA 
BRANCH  11  13
HETATM   13  C   UNL     1      -7.775   7.610  62.964  1.00  0.00    -0.124 C  
BRANCH  13  14
HETATM   14  C   UNL     1      -7.236   6.658  64.027  1.00  0.00    -0.067 C  
BRANCH  14  15
HETATM   15  C   UNL     1      -8.290   5.655  64.502  1.00  0.00    -0.108 C  
BRANCH  15  16
HETATM   16  N   UNL     1      -8.360   5.435  65.955  1.00  0.00    -0.118 NA 
HETATM   17  C   UNL     1      -8.426   6.649  66.783  1.00  0.00    -0.117 C  
HETATM   18  C   UNL     1      -9.787   7.356  66.813  1.00  0.00    -0.290 C  
HETATM   19  C   UNL     1     -10.956   6.401  67.087  1.00  0.00    -0.399 C  
HETATM   20  C   UNL     1     -10.849   5.207  66.137  1.00  0.00    -0.163 C  
HETATM   21  C   UNL     1      -9.477   4.536  66.294  1.00  0.00    -0.172 C  
BRANCH  19  22
HETATM   22  O   UNL     1     -10.992   5.818  68.390  1.00  0.00    -0.233 OA 
BRANCH  22  23
HETATM   23  C   UNL     1     -10.278   6.428  69.468  1.00  0.00    -0.189 C  
BRANCH  23  24
HETATM   24  C   UNL     1      -9.710   5.293  70.321  1.00  0.00    -0.261 A  
HETATM   25  C   UNL     1      -9.125   5.538  71.579  1.00  0.00    -0.153 A  
HETATM   26  C   UNL     1      -8.624   4.491  72.356  1.00  0.00    -0.117 A  
HETATM   27  C   UNL     1      -9.759   3.969  69.861  1.00  0.00    -0.263 A  
HETATM   28  C   UNL     1      -8.696   3.181  71.886  1.00  0.00    -0.113 A  
HETATM   29  C   UNL     1      -9.258   2.922  70.638  1.00  0.00    -0.207 A  
ENDBRANCH  23  24
BRANCH  23  30
HETATM   30  C   UNL     1     -11.128   7.397  70.278  1.00  0.00    -0.278 A  
HETATM   31  C   UNL     1     -12.733   9.243  71.670  1.00  0.00    -0.442 A  
HETATM   32  C   UNL     1     -11.530   9.654  71.102  1.00  0.00    -0.456 A  
HETATM   33  C   UNL     1     -12.318   6.989  70.900  1.00  0.00    -0.361 A  
HETATM   34  C   UNL     1     -13.121   7.907  71.582  1.00  0.00    -0.361 A  
HETATM   35  C   UNL     1     -10.731   8.739  70.412  1.00  0.00    -0.254 A  
ENDBRANCH  23  30
ENDBRANCH  22  23
ENDBRANCH  19  22
ENDBRANCH  15  16
ENDBRANCH  14  15
ENDBRANCH  13  14
ENDBRANCH  11  13
ENDBRANCH   8  11
ENDBRANCH   2   5
TORSDOF 10
ENDMDL
MODEL       73
REMARK 921   NORMALIZED FREE ENERGY PREDICTED BY IDOCK:   -5.18 KCAL/MOL
REMARK 922        TOTAL FREE ENERGY PREDICTED BY IDOCK:  -11.14 KCAL/MOL
REMARK 923 INTER-LIGAND FREE ENERGY PREDICTED BY IDOCK:   -8.30 KCAL/MOL
REMARK 924 INTRA-LIGAND FREE ENERGY PREDICTED BY IDOCK:   -2.85 KCAL/MOL
REMARK 927      BINDING AFFINITY PREDICTED BY RF-SCORE:    0.00 PKD
ROOT
HETATM    1  C   UNL     1     -12.372   7.897  71.917  1.00  0.00    -0.350 C  
HETATM    2  C   UNL     1     -11.433   6.721  71.571  1.00  0.00    -0.329 C  
HETATM    3  C   UNL     1     -11.702   6.333  70.100  1.00  0.00    -0.274 C  
HETATM    4  C   UNL     1     -11.820   5.537  72.482  1.00  0.00    -0.158 C  
ENDROOT
BRANCH   2   5
HETATM    5  C   UNL     1      -9.947   7.064  71.747  1.00  0.00    -0.187 A  
HETATM    6  C   UNL     1      -8.922   6.349  71.113  1.00  0.00    -0.146 A  
HETATM    7  C   UNL     1      -7.572   6.672  71.313  1.00  0.00    -0.093 A  
HETATM    8  C   UNL     1      -7.216   7.720  72.163  1.00  0.00    -0.079 A  
HETATM    9  C   UNL     1      -9.569   8.126  72.592  1.00  0.00    -0.352 A  
HETATM   10  C   UNL     1      -8.226   8.449  72.797  1.00  0.00    -0.186 A  
BRANCH   8  11
HETATM   11  C   UNL     1      -5.770   8.019  72.371  1.00  0.00    -0.038 C  
HETATM   12  O   UNL     1      -5.132   7.377  73.203  1.00  0.00    -0.037 OA 
BRANCH  11  13
HETATM   13  C   UNL     1      -5.149   9.119  71.532  1.00  0.00    -0.041 C  
BRANCH  13  14
HETATM   14  C   UNL     1      -5.163   8.780  70.045  1.00  0.00    -0.029 C  
BRANCH  14  15
HETATM   15  C   UNL     1      -5.575   9.972  69.178  1.00  0.00    -0.034 C  
BRANCH  15  16
HETATM   16  N   UNL     1      -6.609   9.706  68.166  1.00  0.00    -0.061 NA 
HETATM   17  C   UNL     1      -7.812   9.009  68.650  1.00  0.00    -0.101 C  
HETATM   18  C   UNL     1      -8.797   9.872  69.449  1.00  0.00    -0.195 C  
HETATM   19  C   UNL     1      -9.133  11.201  68.759  1.00  0.00    -0.139 C  
HETATM   20  C   UNL     1      -7.827  11.888  68.355  1.00  0.00    -0.141 C  
HETATM   21  C   UNL     1      -6.993  10.948  67.473  1.00  0.00    -0.084 C  
BRANCH  19  22
HETATM   22  O   UNL     1      -9.875  11.102  67.544  1.00  0.00    -0.174 OA 
BRANCH  22  23
HETATM   23  C   UNL     1     -11.215  11.598  67.479  1.00  0.00    -0.293 C  
BRANCH  23  24
HETATM   24  C   UNL     1     -11.207  12.765  66.490  1.00  0.00    -0.349 A  
HETATM   25  C   UNL     1     -12.285  12.994  65.612  1.00  0.00    -0.521 A  
HETATM   26  C   UNL     1     -12.274  14.073  64.725  1.00  0.00    -0.454 A  
HETATM   27  C   UNL     1     -10.113  13.640  66.437  1.00  0.00    -0.295 A  
HETATM   28  C   UNL     1     -11.183  14.939  64.699  1.00  0.00    -0.349 A  
HETATM   29  C   UNL     1     -10.103  14.720  65.550  1.00  0.00    -0.409 A  
ENDBRANCH  23  24
BRANCH  23  30
HETATM   30  C   UNL     1     -11.777  11.988  68.839  1.00  0.00    -0.383 A  
HETATM   31  C   UNL     1     -12.714  12.662  71.405  1.00  0.00    -0.347 A  
HETATM   32  C   UNL     1     -12.730  11.335  70.983  1.00  0.00    -0.457 A  
HETATM   33  C   UNL     1     -11.814  13.326  69.261  1.00  0.00    -0.383 A  
HETATM   34  C   UNL     1     -12.270  13.660  70.539  1.00  0.00    -0.438 A  
HETATM   35  C   UNL     1     -12.267  10.999  69.708  1.00  0.00    -0.388 A  
ENDBRANCH  23  30
ENDBRANCH  22  23
ENDBRANCH  19  22
ENDBRANCH  15  16
ENDBRANCH  14  15
ENDBRANCH  13  14
ENDBRANCH  11  13
ENDBRANCH   8  11
ENDBRANCH   2   5
TORSDOF 10
ENDMDL
MODEL       74
REMARK 921   NORMALIZED FREE ENERGY PREDICTED BY IDOCK:   -5.17 KCAL/MOL
REMARK 922        TOTAL FREE ENERGY PREDICTED BY IDOCK:  -11.13 KCAL/MOL
REMARK 923 INTER-LIGAND FREE ENERGY PREDICTED BY IDOCK:   -9.35 KCAL/MOL
REMARK 924 INTRA-LIGAND FREE ENERGY PREDICTED BY IDOCK:   -1.77 KCAL/MOL
REMARK 927      BINDING AFFINITY PREDICTED BY RF-SCORE:    0.00 PKD
ROOT
HETATM    1  C   UNL     1      -8.180   3.236  67.551  1.00  0.00    -0.085 C  
HETATM    2  C   UNL     1      -8.835   4.623  67.373  1.00  0.00    -0.110 C  
HETATM    3  C   UNL     1      -9.788   4.531  66.160  1.00  0.00    -0.243 C  
HETATM    4  C   UNL     1      -7.708   5.627  67.050  1.00  0.00    -0.101 C  
ENDROOT
BRANCH   2   5
HETATM    5  C   UNL     1      -9.619   5.083  68.609  1.00  0.00    -0.204 A  
HETATM    6  C   UNL     1     -10.756   5.900  68.527  1.00  0.00    -0.327 A  
HETATM    7  C   UNL     1     -11.437   6.323  69.678  1.00  0.00    -0.425 A  
HETATM    8  C   UNL     1     -10.989   5.941  70.943  1.00  0.00    -0.335 A  
HETATM    9  C   UNL     1      -9.190   4.698  69.894  1.00  0.00    -0.188 A  
HETATM   10  C   UNL     1      -9.862   5.120  71.042  1.00  0.00    -0.261 A  
BRANCH   8  11
HETATM   11  C   UNL     1     -11.724   6.430  72.145  1.00  0.00    -0.321 C  
HETATM   12  O   UNL     1     -12.622   5.743  72.627  1.00  0.00     0.002 OA 
BRANCH  11  13
HETATM   13  C   UNL     1     -11.320   7.772  72.723  1.00  0.00    -0.446 C  
BRANCH  13  14
HETATM   14  C   UNL     1     -12.417   8.819  72.558  1.00  0.00    -0.368 C  
BRANCH  14  15
HETATM   15  C   UNL     1     -12.384   9.487  71.181  1.00  0.00    -0.326 C  
BRANCH  15  16
HETATM   16  N   UNL     1     -11.246  10.383  70.927  1.00  0.00    -0.244 NA 
HETATM   17  C   UNL     1     -10.095   9.776  70.239  1.00  0.00    -0.266 C  
HETATM   18  C   UNL     1     -10.270   9.550  68.732  1.00  0.00    -0.215 C  
HETATM   19  C   UNL     1     -10.801  10.786  67.995  1.00  0.00    -0.255 C  
HETATM   20  C   UNL     1     -12.035  11.308  68.735  1.00  0.00    -0.350 C  
HETATM   21  C   UNL     1     -11.682  11.590  70.203  1.00  0.00    -0.309 C  
BRANCH  19  22
HETATM   22  O   UNL     1      -9.918  11.907  67.940  1.00  0.00    -0.181 OA 
BRANCH  22  23
HETATM   23  C   UNL     1      -9.335  12.301  66.695  1.00  0.00    -0.228 C  
BRANCH  23  24
HETATM   24  C   UNL     1     -10.397  13.107  65.945  1.00  0.00    -0.295 A  
HETATM   25  C   UNL     1     -10.119  14.386  65.424  1.00  0.00    -0.388 A  
HETATM   26  C   UNL     1     -11.091  15.106  64.726  1.00  0.00    -0.395 A  
HETATM   27  C   UNL     1     -11.685  12.583  65.761  1.00  0.00    -0.478 A  
HETATM   28  C   UNL     1     -12.360  14.560  64.542  1.00  0.00    -0.434 A  
HETATM   29  C   UNL     1     -12.657  13.303  65.062  1.00  0.00    -0.483 A  
ENDBRANCH  23  24
BRANCH  23  30
HETATM   30  C   UNL     1      -8.810  11.127  65.880  1.00  0.00    -0.193 A  
HETATM   31  C   UNL     1      -7.882   8.882  64.461  1.00  0.00    -0.126 A  
HETATM   32  C   UNL     1      -7.223   9.298  65.615  1.00  0.00    -0.090 A  
HETATM   33  C   UNL     1      -9.432  10.723  64.688  1.00  0.00    -0.297 A  
HETATM   34  C   UNL     1      -8.978   9.602  63.989  1.00  0.00    -0.261 A  
HETATM   35  C   UNL     1      -7.681  10.415  66.320  1.00  0.00    -0.129 A  
ENDBRANCH  23  30
ENDBRANCH  22  23
ENDBRANCH  19  22
ENDBRANCH  15  16
ENDBRANCH  14  15
ENDBRANCH  13  14
ENDBRANCH  11  13
ENDBRANCH   8  11
ENDBRANCH   2   5
TORSDOF 10
ENDMDL
MODEL       75
REMARK 921   NORMALIZED FREE ENERGY PREDICTED BY IDOCK:   -5.16 KCAL/MOL
REMARK 922        TOTAL FREE ENERGY PREDICTED BY IDOCK:  -11.11 KCAL/MOL
REMARK 923 INTER-LIGAND FREE ENERGY PREDICTED BY IDOCK:   -9.61 KCAL/MOL
REMARK 924 INTRA-LIGAND FREE ENERGY PREDICTED BY IDOCK:   -1.50 KCAL/MOL
REMARK 927      BINDING AFFINITY PREDICTED BY RF-SCORE:    0.00 PKD
ROOT
HETATM    1  C   UNL     1     -12.613   7.274  72.152  1.00  0.00    -0.169 C  
HETATM    2  C   UNL     1     -11.192   6.671  72.194  1.00  0.00    -0.299 C  
HETATM    3  C   UNL     1     -11.279   5.337  72.967  1.00  0.00    -0.387 C  
HETATM    4  C   UNL     1     -10.299   7.652  72.984  1.00  0.00    -0.393 C  
ENDROOT
BRANCH   2   5
HETATM    5  C   UNL     1     -10.602   6.420  70.800  1.00  0.00    -0.288 A  
HETATM    6  C   UNL     1      -9.236   6.190  70.583  1.00  0.00    -0.163 A  
HETATM    7  C   UNL     1      -8.723   5.986  69.293  1.00  0.00    -0.117 A  
HETATM    8  C   UNL     1      -9.571   6.017  68.185  1.00  0.00    -0.122 A  
HETATM    9  C   UNL     1     -11.443   6.435  69.670  1.00  0.00    -0.446 A  
HETATM   10  C   UNL     1     -10.937   6.237  68.384  1.00  0.00    -0.409 A  
BRANCH   8  11
HETATM   11  C   UNL     1      -8.987   5.821  66.827  1.00  0.00    -0.118 C  
HETATM   12  O   UNL     1      -8.689   4.689  66.453  1.00  0.00    -0.112 OA 
BRANCH  11  13
HETATM   13  C   UNL     1      -8.788   7.049  65.960  1.00  0.00    -0.155 C  
BRANCH  13  14
HETATM   14  C   UNL     1      -8.298   8.246  66.768  1.00  0.00    -0.107 C  
BRANCH  14  15
HETATM   15  C   UNL     1      -9.103   9.515  66.478  1.00  0.00    -0.151 C  
BRANCH  15  16
HETATM   16  N   UNL     1      -9.569  10.265  67.655  1.00  0.00    -0.151 NA 
HETATM   17  C   UNL     1      -8.906  11.557  67.895  1.00  0.00    -0.152 C  
HETATM   18  C   UNL     1      -9.343  12.704  66.975  1.00  0.00    -0.220 C  
HETATM   19  C   UNL     1     -10.867  12.845  66.869  1.00  0.00    -0.257 C  
HETATM   20  C   UNL     1     -11.466  11.473  66.549  1.00  0.00    -0.178 C  
HETATM   21  C   UNL     1     -11.030  10.452  67.610  1.00  0.00    -0.312 C  
BRANCH  19  22
HETATM   22  O   UNL     1     -11.539  13.258  68.058  1.00  0.00    -0.293 OA 
BRANCH  22  23
HETATM   23  C   UNL     1     -10.828  13.973  69.072  1.00  0.00    -0.243 C  
BRANCH  23  24
HETATM   24  C   UNL     1     -11.784  14.132  70.255  1.00  0.00    -0.328 A  
HETATM   25  C   UNL     1     -12.303  13.015  70.939  1.00  0.00    -0.376 A  
HETATM   26  C   UNL     1     -13.162  13.173  72.028  1.00  0.00    -0.543 A  
HETATM   27  C   UNL     1     -12.169  15.410  70.687  1.00  0.00    -0.431 A  
HETATM   28  C   UNL     1     -13.520  14.452  72.450  1.00  0.00    -0.557 A  
HETATM   29  C   UNL     1     -13.028  15.568  71.777  1.00  0.00    -0.528 A  
ENDBRANCH  23  24
BRANCH  23  30
HETATM   30  C   UNL     1     -10.270  15.305  68.589  1.00  0.00    -0.223 A  
HETATM   31  C   UNL     1      -9.148  17.705  67.640  1.00  0.00    -0.241 A  
HETATM   32  C   UNL     1      -8.538  17.014  68.684  1.00  0.00    -0.265 A  
HETATM   33  C   UNL     1     -10.900  16.039  67.571  1.00  0.00    -0.292 A  
HETATM   34  C   UNL     1     -10.338  17.225  67.093  1.00  0.00    -0.321 A  
HETATM   35  C   UNL     1      -9.095  15.824  69.158  1.00  0.00    -0.262 A  
ENDBRANCH  23  30
ENDBRANCH  22  23
ENDBRANCH  19  22
ENDBRANCH  15  16
ENDBRANCH  14  15
ENDBRANCH  13  14
ENDBRANCH  11  13
ENDBRANCH   8  11
ENDBRANCH   2   5
TORSDOF 10
ENDMDL
MODEL       76
REMARK 921   NORMALIZED FREE ENERGY PREDICTED BY IDOCK:   -5.16 KCAL/MOL
REMARK 922        TOTAL FREE ENERGY PREDICTED BY IDOCK:  -11.10 KCAL/MOL
REMARK 923 INTER-LIGAND FREE ENERGY PREDICTED BY IDOCK:  -10.20 KCAL/MOL
REMARK 924 INTRA-LIGAND FREE ENERGY PREDICTED BY IDOCK:   -0.90 KCAL/MOL
REMARK 927      BINDING AFFINITY PREDICTED BY RF-SCORE:    0.00 PKD
ROOT
HETATM    1  C   UNL     1      -9.771   4.106  69.965  1.00  0.00    -0.282 C  
HETATM    2  C   UNL     1      -9.118   5.319  70.662  1.00  0.00    -0.175 C  
HETATM    3  C   UNL     1      -8.033   5.869  69.710  1.00  0.00    -0.101 C  
HETATM    4  C   UNL     1      -8.440   4.802  71.949  1.00  0.00    -0.120 C  
ENDROOT
BRANCH   2   5
HETATM    5  C   UNL     1     -10.119   6.432  70.999  1.00  0.00    -0.212 A  
HETATM    6  C   UNL     1     -11.507   6.264  70.888  1.00  0.00    -0.377 A  
HETATM    7  C   UNL     1     -12.396   7.309  71.181  1.00  0.00    -0.381 A  
HETATM    8  C   UNL     1     -11.913   8.554  71.585  1.00  0.00    -0.372 A  
HETATM    9  C   UNL     1      -9.651   7.692  71.420  1.00  0.00    -0.178 A  
HETATM   10  C   UNL     1     -10.532   8.736  71.708  1.00  0.00    -0.417 A  
BRANCH   8  11
HETATM   11  C   UNL     1     -12.886   9.649  71.864  1.00  0.00    -0.425 C  
HETATM   12  O   UNL     1     -13.925   9.396  72.471  1.00  0.00    -0.419 OA 
BRANCH  11  13
HETATM   13  C   UNL     1     -12.540  11.042  71.378  1.00  0.00    -0.498 C  
BRANCH  13  14
HETATM   14  C   UNL     1     -13.326  12.118  72.120  1.00  0.00    -0.438 C  
BRANCH  14  15
HETATM   15  C   UNL     1     -12.692  13.505  71.984  1.00  0.00    -0.166 C  
BRANCH  15  16
HETATM   16  N   UNL     1     -13.160  14.317  70.850  1.00  0.00    -0.336 NA 
HETATM   17  C   UNL     1     -12.689  15.711  70.825  1.00  0.00    -0.431 C  
HETATM   18  C   UNL     1     -11.233  15.908  70.383  1.00  0.00    -0.392 C  
HETATM   19  C   UNL     1     -10.888  15.156  69.092  1.00  0.00    -0.251 C  
HETATM   20  C   UNL     1     -11.348  13.703  69.232  1.00  0.00    -0.323 C  
HETATM   21  C   UNL     1     -12.845  13.659  69.570  1.00  0.00     0.640 C  
BRANCH  19  22
HETATM   22  O   UNL     1     -11.534  15.622  67.907  1.00  0.00    -0.329 OA 
BRANCH  22  23
HETATM   23  C   UNL     1     -10.791  15.768  66.694  1.00  0.00    -0.241 C  
BRANCH  23  24
HETATM   24  C   UNL     1     -11.158  14.579  65.804  1.00  0.00    -0.324 A  
HETATM   25  C   UNL     1     -12.442  14.001  65.840  1.00  0.00    -0.513 A  
HETATM   26  C   UNL     1     -12.771  12.926  65.010  1.00  0.00    -0.474 A  
HETATM   27  C   UNL     1     -10.211  14.034  64.924  1.00  0.00    -0.377 A  
HETATM   28  C   UNL     1     -11.820  12.410  64.133  1.00  0.00    -0.492 A  
HETATM   29  C   UNL     1     -10.541  12.960  64.094  1.00  0.00    -0.442 A  
ENDBRANCH  23  24
BRANCH  23  30
HETATM   30  C   UNL     1      -9.290  15.885  66.921  1.00  0.00    -0.244 A  
HETATM   31  C   UNL     1      -6.498  16.040  67.233  1.00  0.00    -0.200 A  
HETATM   32  C   UNL     1      -7.156  14.831  67.438  1.00  0.00    -0.173 A  
HETATM   33  C   UNL     1      -8.617  17.107  66.766  1.00  0.00    -0.270 A  
HETATM   34  C   UNL     1      -7.230  17.183  66.912  1.00  0.00    -0.237 A  
HETATM   35  C   UNL     1      -8.543  14.752  67.286  1.00  0.00    -0.230 A  
ENDBRANCH  23  30
ENDBRANCH  22  23
ENDBRANCH  19  22
ENDBRANCH  15  16
ENDBRANCH  14  15
ENDBRANCH  13  14
ENDBRANCH  11  13
ENDBRANCH   8  11
ENDBRANCH   2   5
TORSDOF 10
ENDMDL
MODEL       77
REMARK 921   NORMALIZED FREE ENERGY PREDICTED BY IDOCK:   -5.15 KCAL/MOL
REMARK 922        TOTAL FREE ENERGY PREDICTED BY IDOCK:  -11.08 KCAL/MOL
REMARK 923 INTER-LIGAND FREE ENERGY PREDICTED BY IDOCK:   -8.35 KCAL/MOL
REMARK 924 INTRA-LIGAND FREE ENERGY PREDICTED BY IDOCK:   -2.73 KCAL/MOL
REMARK 927      BINDING AFFINITY PREDICTED BY RF-SCORE:    0.00 PKD
ROOT
HETATM    1  C   UNL     1      -7.615   8.632  66.884  1.00  0.00    -0.084 C  
HETATM    2  C   UNL     1      -8.801   7.694  66.570  1.00  0.00    -0.167 C  
HETATM    3  C   UNL     1      -8.479   6.971  65.243  1.00  0.00    -0.060 C  
HETATM    4  C   UNL     1     -10.048   8.581  66.369  1.00  0.00    -0.271 C  
ENDROOT
BRANCH   2   5
HETATM    5  C   UNL     1      -9.057   6.656  67.671  1.00  0.00    -0.112 A  
HETATM    6  C   UNL     1     -10.337   6.171  67.974  1.00  0.00    -0.245 A  
HETATM    7  C   UNL     1     -10.543   5.240  69.003  1.00  0.00    -0.150 A  
HETATM    8  C   UNL     1      -9.465   4.777  69.760  1.00  0.00    -0.233 A  
HETATM    9  C   UNL     1      -7.982   6.168  68.438  1.00  0.00    -0.108 A  
HETATM   10  C   UNL     1      -8.181   5.244  69.465  1.00  0.00    -0.095 A  
BRANCH   8  11
HETATM   11  C   UNL     1      -9.724   3.806  70.862  1.00  0.00    -0.178 C  
HETATM   12  O   UNL     1      -9.424   2.623  70.710  1.00  0.00    -0.140 OA 
BRANCH  11  13
HETATM   13  C   UNL     1     -10.354   4.334  72.135  1.00  0.00    -0.193 C  
BRANCH  13  14
HETATM   14  C   UNL     1     -10.514   5.851  72.108  1.00  0.00    -0.250 C  
BRANCH  14  15
HETATM   15  C   UNL     1      -9.335   6.575  72.762  1.00  0.00    -0.139 C  
BRANCH  15  16
HETATM   16  N   UNL     1      -9.421   8.043  72.796  1.00  0.00    -0.239 NA 
HETATM   17  C   UNL     1      -8.373   8.762  72.052  1.00  0.00    -0.023 C  
HETATM   18  C   UNL     1      -8.537   8.774  70.527  1.00  0.00    -0.187 C  
HETATM   19  C   UNL     1      -9.947   9.173  70.074  1.00  0.00    -0.199 C  
HETATM   20  C   UNL     1     -10.966   8.330  70.844  1.00  0.00    -0.275 C  
HETATM   21  C   UNL     1     -10.751   8.499  72.354  1.00  0.00    -0.306 C  
BRANCH  19  22
HETATM   22  O   UNL     1     -10.328  10.523  70.339  1.00  0.00    -0.022 OA 
BRANCH  22  23
HETATM   23  C   UNL     1     -11.443  11.100  69.654  1.00  0.00    -0.310 C  
BRANCH  23  24
HETATM   24  C   UNL     1     -10.916  11.633  68.321  1.00  0.00    -0.273 A  
HETATM   25  C   UNL     1     -11.754  11.761  67.195  1.00  0.00    -0.267 A  
HETATM   26  C   UNL     1     -11.265  12.264  65.987  1.00  0.00    -0.375 A  
HETATM   27  C   UNL     1      -9.571  12.008  68.190  1.00  0.00    -0.200 A  
HETATM   28  C   UNL     1      -9.929  12.645  65.884  1.00  0.00    -0.274 A  
HETATM   29  C   UNL     1      -9.083  12.512  66.982  1.00  0.00    -0.213 A  
ENDBRANCH  23  24
BRANCH  23  30
HETATM   30  C   UNL     1     -12.158  12.170  70.468  1.00  0.00    -0.383 A  
HETATM   31  C   UNL     1     -13.560  14.160  71.878  1.00  0.00    -0.504 A  
HETATM   32  C   UNL     1     -12.748  14.509  70.802  1.00  0.00    -0.425 A  
HETATM   33  C   UNL     1     -12.942  11.841  71.585  1.00  0.00    -0.467 A  
HETATM   34  C   UNL     1     -13.646  12.828  72.280  1.00  0.00    -0.563 A  
HETATM   35  C   UNL     1     -12.050  13.522  70.102  1.00  0.00    -0.425 A  
ENDBRANCH  23  30
ENDBRANCH  22  23
ENDBRANCH  19  22
ENDBRANCH  15  16
ENDBRANCH  14  15
ENDBRANCH  13  14
ENDBRANCH  11  13
ENDBRANCH   8  11
ENDBRANCH   2   5
TORSDOF 10
ENDMDL
MODEL       78
REMARK 921   NORMALIZED FREE ENERGY PREDICTED BY IDOCK:   -5.15 KCAL/MOL
REMARK 922        TOTAL FREE ENERGY PREDICTED BY IDOCK:  -11.08 KCAL/MOL
REMARK 923 INTER-LIGAND FREE ENERGY PREDICTED BY IDOCK:   -9.18 KCAL/MOL
REMARK 924 INTRA-LIGAND FREE ENERGY PREDICTED BY IDOCK:   -1.90 KCAL/MOL
REMARK 927      BINDING AFFINITY PREDICTED BY RF-SCORE:    0.00 PKD
ROOT
HETATM    1  C   UNL     1     -10.209  19.872  68.665  1.00  0.00    -0.494 C  
HETATM    2  C   UNL     1      -9.636  19.236  67.380  1.00  0.00    -0.389 C  
HETATM    3  C   UNL     1      -8.095  19.291  67.485  1.00  0.00    -0.307 C  
HETATM    4  C   UNL     1     -10.090  20.110  66.191  1.00  0.00    -0.532 C  
ENDROOT
BRANCH   2   5
HETATM    5  C   UNL     1     -10.085  17.783  67.175  1.00  0.00    -0.338 A  
HETATM    6  C   UNL     1     -10.553  16.978  68.222  1.00  0.00    -0.372 A  
HETATM    7  C   UNL     1     -10.935  15.645  68.007  1.00  0.00    -0.318 A  
HETATM    8  C   UNL     1     -10.848  15.085  66.731  1.00  0.00    -0.318 A  
HETATM    9  C   UNL     1     -10.017  17.204  65.893  1.00  0.00    -0.214 A  
HETATM   10  C   UNL     1     -10.392  15.877  65.674  1.00  0.00    -0.413 A  
BRANCH   8  11
HETATM   11  C   UNL     1     -11.239  13.658  66.544  1.00  0.00    -0.310 C  
HETATM   12  O   UNL     1     -12.365  13.290  66.872  1.00  0.00    -0.311 OA 
BRANCH  11  13
HETATM   13  C   UNL     1     -10.211  12.716  65.948  1.00  0.00    -0.290 C  
BRANCH  13  14
HETATM   14  C   UNL     1      -9.012  12.521  66.870  1.00  0.00    -0.212 C  
BRANCH  14  15
HETATM   15  C   UNL     1      -8.848  11.065  67.314  1.00  0.00    -0.135 C  
BRANCH  15  16
HETATM   16  N   UNL     1      -9.895  10.543  68.207  1.00  0.00    -0.146 NA 
HETATM   17  C   UNL     1     -10.897   9.669  67.574  1.00  0.00    -0.198 C  
HETATM   18  C   UNL     1     -10.428   8.242  67.267  1.00  0.00    -0.373 C  
HETATM   19  C   UNL     1      -9.736   7.564  68.456  1.00  0.00    -0.156 C  
HETATM   20  C   UNL     1      -8.665   8.510  69.005  1.00  0.00    -0.134 C  
HETATM   21  C   UNL     1      -9.298   9.861  69.369  1.00  0.00    -0.214 C  
BRANCH  19  22
HETATM   22  O   UNL     1     -10.568   7.277  69.580  1.00  0.00    -0.225 OA 
BRANCH  22  23
HETATM   23  C   UNL     1     -10.580   5.964  70.146  1.00  0.00    -0.292 C  
BRANCH  23  24
HETATM   24  C   UNL     1     -10.442   6.133  71.660  1.00  0.00    -0.267 A  
HETATM   25  C   UNL     1     -10.822   5.112  72.554  1.00  0.00    -0.282 A  
HETATM   26  C   UNL     1     -10.676   5.272  73.934  1.00  0.00    -0.320 A  
HETATM   27  C   UNL     1      -9.929   7.324  72.196  1.00  0.00    -0.191 A  
HETATM   28  C   UNL     1     -10.150   6.457  74.444  1.00  0.00    -0.367 A  
HETATM   29  C   UNL     1      -9.782   7.483  73.576  1.00  0.00    -0.358 A  
ENDBRANCH  23  24
BRANCH  23  30
HETATM   30  C   UNL     1      -9.513   5.048  69.562  1.00  0.00    -0.207 A  
HETATM   31  C   UNL     1      -7.556   3.281  68.580  1.00  0.00    -0.052 A  
HETATM   32  C   UNL     1      -7.272   4.101  69.669  1.00  0.00    -0.049 A  
HETATM   33  C   UNL     1      -9.766   4.251  68.435  1.00  0.00    -0.165 A  
HETATM   34  C   UNL     1      -8.798   3.366  67.953  1.00  0.00    -0.152 A  
HETATM   35  C   UNL     1      -8.242   4.980  70.156  1.00  0.00    -0.081 A  
ENDBRANCH  23  30
ENDBRANCH  22  23
ENDBRANCH  19  22
ENDBRANCH  15  16
ENDBRANCH  14  15
ENDBRANCH  13  14
ENDBRANCH  11  13
ENDBRANCH   8  11
ENDBRANCH   2   5
TORSDOF 10
ENDMDL
MODEL       79
REMARK 921   NORMALIZED FREE ENERGY PREDICTED BY IDOCK:   -5.07 KCAL/MOL
REMARK 922        TOTAL FREE ENERGY PREDICTED BY IDOCK:  -10.96 KCAL/MOL
REMARK 923 INTER-LIGAND FREE ENERGY PREDICTED BY IDOCK:   -8.88 KCAL/MOL
REMARK 924 INTRA-LIGAND FREE ENERGY PREDICTED BY IDOCK:   -2.08 KCAL/MOL
REMARK 927      BINDING AFFINITY PREDICTED BY RF-SCORE:    0.00 PKD
ROOT
HETATM    1  C   UNL     1     -10.208   6.589  74.076  1.00  0.00    -0.374 C  
HETATM    2  C   UNL     1      -9.931   5.275  73.315  1.00  0.00    -0.185 C  
HETATM    3  C   UNL     1     -10.888   4.203  73.881  1.00  0.00    -0.321 C  
HETATM    4  C   UNL     1      -8.476   4.861  73.623  1.00  0.00    -0.105 C  
ENDROOT
BRANCH   2   5
HETATM    5  C   UNL     1     -10.139   5.401  71.799  1.00  0.00    -0.251 A  
HETATM    6  C   UNL     1      -9.299   4.781  70.863  1.00  0.00    -0.209 A  
HETATM    7  C   UNL     1      -9.501   4.935  69.484  1.00  0.00    -0.216 A  
HETATM    8  C   UNL     1     -10.551   5.722  69.008  1.00  0.00    -0.351 A  
HETATM    9  C   UNL     1     -11.200   6.181  71.300  1.00  0.00    -0.348 A  
HETATM   10  C   UNL     1     -11.403   6.340  69.929  1.00  0.00    -0.504 A  
BRANCH   8  11
HETATM   11  C   UNL     1     -10.721   5.883  67.536  1.00  0.00    -0.276 C  
HETATM   12  O   UNL     1     -10.538   4.918  66.796  1.00  0.00    -0.226 OA 
BRANCH  11  13
HETATM   13  C   UNL     1     -11.118   7.250  67.015  1.00  0.00    -0.066 C  
BRANCH  13  14
HETATM   14  C   UNL     1     -10.045   8.300  67.288  1.00  0.00    -0.315 C  
BRANCH  14  15
HETATM   15  C   UNL     1     -10.583   9.728  67.177  1.00  0.00    -0.229 C  
BRANCH  15  16
HETATM   16  N   UNL     1      -9.663  10.797  67.597  1.00  0.00    -0.164 NA 
HETATM   17  C   UNL     1      -9.160  11.666  66.521  1.00  0.00    -0.197 C  
HETATM   18  C   UNL     1     -10.154  12.710  65.997  1.00  0.00    -0.274 C  
HETATM   19  C   UNL     1     -10.839  13.507  67.115  1.00  0.00    -0.284 C  
HETATM   20  C   UNL     1     -11.393  12.524  68.149  1.00  0.00    -0.343 C  
HETATM   21  C   UNL     1     -10.267  11.616  68.663  1.00  0.00    -0.206 C  
BRANCH  19  22
HETATM   22  O   UNL     1      -9.994  14.378  67.867  1.00  0.00    -0.222 OA 
BRANCH  22  23
HETATM   23  C   UNL     1      -9.149  15.314  67.194  1.00  0.00    -0.210 C  
BRANCH  23  24
HETATM   24  C   UNL     1      -7.784  15.253  67.883  1.00  0.00    -0.147 A  
HETATM   25  C   UNL     1      -6.753  16.155  67.555  1.00  0.00    -0.198 A  
HETATM   26  C   UNL     1      -5.516  16.100  68.202  1.00  0.00    -0.111 A  
HETATM   27  C   UNL     1      -7.530  14.286  68.866  1.00  0.00    -0.123 A  
HETATM   28  C   UNL     1      -5.290  15.140  69.187  1.00  0.00    -0.094 A  
HETATM   29  C   UNL     1      -6.294  14.232  69.514  1.00  0.00    -0.127 A  
ENDBRANCH  23  24
BRANCH  23  30
HETATM   30  C   UNL     1      -9.723  16.724  67.159  1.00  0.00    -0.251 A  
HETATM   31  C   UNL     1     -10.669  19.373  67.115  1.00  0.00    -0.593 A  
HETATM   32  C   UNL     1     -10.292  18.788  68.320  1.00  0.00    -0.391 A  
HETATM   33  C   UNL     1     -10.154  17.312  65.960  1.00  0.00    -0.275 A  
HETATM   34  C   UNL     1     -10.614  18.631  65.936  1.00  0.00    -0.365 A  
HETATM   35  C   UNL     1      -9.824  17.472  68.344  1.00  0.00    -0.325 A  
ENDBRANCH  23  30
ENDBRANCH  22  23
ENDBRANCH  19  22
ENDBRANCH  15  16
ENDBRANCH  14  15
ENDBRANCH  13  14
ENDBRANCH  11  13
ENDBRANCH   8  11
ENDBRANCH   2   5
TORSDOF 10
ENDMDL
MODEL       80
REMARK 921   NORMALIZED FREE ENERGY PREDICTED BY IDOCK:   -5.04 KCAL/MOL
REMARK 922        TOTAL FREE ENERGY PREDICTED BY IDOCK:  -10.92 KCAL/MOL
REMARK 923 INTER-LIGAND FREE ENERGY PREDICTED BY IDOCK:   -8.32 KCAL/MOL
REMARK 924 INTRA-LIGAND FREE ENERGY PREDICTED BY IDOCK:   -2.60 KCAL/MOL
REMARK 927      BINDING AFFINITY PREDICTED BY RF-SCORE:    0.00 PKD
ROOT
HETATM    1  C   UNL     1      -7.408  12.000  69.801  1.00  0.00     0.690 C  
HETATM    2  C   UNL     1      -7.485  10.513  69.391  1.00  0.00    -0.141 C  
HETATM    3  C   UNL     1      -8.744   9.915  70.057  1.00  0.00    -0.188 C  
HETATM    4  C   UNL     1      -6.234   9.812  69.963  1.00  0.00    -0.059 C  
ENDROOT
BRANCH   2   5
HETATM    5  C   UNL     1      -7.561  10.309  67.872  1.00  0.00    -0.089 A  
HETATM    6  C   UNL     1      -6.496  10.611  67.011  1.00  0.00    -0.079 A  
HETATM    7  C   UNL     1      -6.605  10.436  65.623  1.00  0.00    -0.129 A  
HETATM    8  C   UNL     1      -7.791   9.960  65.063  1.00  0.00    -0.131 A  
HETATM    9  C   UNL     1      -8.746   9.819  67.289  1.00  0.00    -0.135 A  
HETATM   10  C   UNL     1      -8.860   9.646  65.909  1.00  0.00    -0.180 A  
BRANCH   8  11
HETATM   11  C   UNL     1      -7.879   9.809  63.582  1.00  0.00    -0.142 C  
HETATM   12  O   UNL     1      -6.863   9.561  62.937  1.00  0.00    -0.098 OA 
BRANCH  11  13
HETATM   13  C   UNL     1      -9.241   9.972  62.935  1.00  0.00    -0.311 C  
BRANCH  13  14
HETATM   14  C   UNL     1      -9.740  11.412  63.009  1.00  0.00    -0.393 C  
BRANCH  14  15
HETATM   15  C   UNL     1     -10.972  11.559  63.904  1.00  0.00    -0.401 C  
BRANCH  15  16
HETATM   16  N   UNL     1     -11.413  12.936  64.172  1.00  0.00    -0.370 NA 
HETATM   17  C   UNL     1     -12.507  13.079  65.146  1.00  0.00    -0.496 C  
HETATM   18  C   UNL     1     -12.107  12.907  66.617  1.00  0.00    -0.360 C  
HETATM   19  C   UNL     1     -10.871  13.728  67.007  1.00  0.00    -0.284 C  
HETATM   20  C   UNL     1      -9.764  13.465  65.984  1.00  0.00    -0.228 C  
HETATM   21  C   UNL     1     -10.273  13.781  64.570  1.00  0.00    -0.175 C  
BRANCH  19  22
HETATM   22  O   UNL     1     -11.036  15.146  66.997  1.00  0.00    -0.329 OA 
BRANCH  22  23
HETATM   23  C   UNL     1     -10.365  15.953  67.968  1.00  0.00    -0.262 C  
BRANCH  23  24
HETATM   24  C   UNL     1     -11.046  15.689  69.312  1.00  0.00    -0.293 A  
HETATM   25  C   UNL     1     -10.305  15.578  70.505  1.00  0.00    -0.036 A  
HETATM   26  C   UNL     1     -10.940  15.353  71.728  1.00  0.00    -0.095 A  
HETATM   27  C   UNL     1     -12.440  15.548  69.383  1.00  0.00    -0.030 A  
HETATM   28  C   UNL     1     -12.327  15.231  71.778  1.00  0.00    -0.429 A  
HETATM   29  C   UNL     1     -13.075  15.323  70.607  1.00  0.00    -0.407 A  
ENDBRANCH  23  24
BRANCH  23  30
HETATM   30  C   UNL     1     -10.341  17.431  67.606  1.00  0.00    -0.355 A  
HETATM   31  C   UNL     1     -10.176  20.166  66.963  1.00  0.00    -0.558 A  
HETATM   32  C   UNL     1     -10.098  19.756  68.291  1.00  0.00    -0.575 A  
HETATM   33  C   UNL     1     -10.468  17.865  66.277  1.00  0.00    -0.320 A  
HETATM   34  C   UNL     1     -10.376  19.222  65.956  1.00  0.00    -0.556 A  
HETATM   35  C   UNL     1     -10.181  18.399  68.613  1.00  0.00    -0.370 A  
ENDBRANCH  23  30
ENDBRANCH  22  23
ENDBRANCH  19  22
ENDBRANCH  15  16
ENDBRANCH  14  15
ENDBRANCH  13  14
ENDBRANCH  11  13
ENDBRANCH   8  11
ENDBRANCH   2   5
TORSDOF 10
ENDMDL
MODEL       81
REMARK 921   NORMALIZED FREE ENERGY PREDICTED BY IDOCK:   -5.04 KCAL/MOL
REMARK 922        TOTAL FREE ENERGY PREDICTED BY IDOCK:  -10.91 KCAL/MOL
REMARK 923 INTER-LIGAND FREE ENERGY PREDICTED BY IDOCK:   -9.48 KCAL/MOL
REMARK 924 INTRA-LIGAND FREE ENERGY PREDICTED BY IDOCK:   -1.42 KCAL/MOL
REMARK 927      BINDING AFFINITY PREDICTED BY RF-SCORE:    0.00 PKD
ROOT
HETATM    1  C   UNL     1     -10.840   7.060  73.417  1.00  0.00    -0.332 C  
HETATM    2  C   UNL     1     -11.399   6.851  71.992  1.00  0.00    -0.301 C  
HETATM    3  C   UNL     1     -12.906   6.540  72.129  1.00  0.00    -0.038 C  
HETATM    4  C   UNL     1     -10.684   5.621  71.393  1.00  0.00    -0.310 C  
ENDROOT
BRANCH   2   5
HETATM    5  C   UNL     1     -11.207   8.073  71.084  1.00  0.00    -0.287 A  
HETATM    6  C   UNL     1     -10.349   8.068  69.975  1.00  0.00    -0.218 A  
HETATM    7  C   UNL     1     -10.177   9.208  69.177  1.00  0.00    -0.215 A  
HETATM    8  C   UNL     1     -10.857  10.389  69.478  1.00  0.00    -0.295 A  
HETATM    9  C   UNL     1     -11.894   9.270  71.365  1.00  0.00    -0.428 A  
HETATM   10  C   UNL     1     -11.723  10.409  70.576  1.00  0.00    -0.434 A  
BRANCH   8  11
HETATM   11  C   UNL     1     -10.631  11.589  68.623  1.00  0.00    -0.208 C  
HETATM   12  O   UNL     1      -9.560  12.189  68.691  1.00  0.00    -0.165 OA 
BRANCH  11  13
HETATM   13  C   UNL     1     -11.751  12.017  67.696  1.00  0.00    -0.365 C  
BRANCH  13  14
HETATM   14  C   UNL     1     -11.968  13.527  67.720  1.00  0.00    -0.369 C  
BRANCH  14  15
HETATM   15  C   UNL     1     -11.381  14.221  66.489  1.00  0.00    -0.346 C  
BRANCH  15  16
HETATM   16  N   UNL     1     -11.025  15.639  66.658  1.00  0.00    -0.264 NA 
HETATM   17  C   UNL     1     -10.998  16.130  68.045  1.00  0.00    -0.338 C  
HETATM   18  C   UNL     1      -9.775  15.711  68.870  1.00  0.00    -0.220 C  
HETATM   19  C   UNL     1      -8.445  15.950  68.144  1.00  0.00    -0.167 C  
HETATM   20  C   UNL     1      -8.537  15.347  66.740  1.00  0.00    -0.308 C  
HETATM   21  C   UNL     1      -9.742  15.938  65.996  1.00  0.00    -0.343 C  
BRANCH  19  22
HETATM   22  O   UNL     1      -8.094  17.316  67.923  1.00  0.00    -0.201 OA 
BRANCH  22  23
HETATM   23  C   UNL     1      -6.723  17.685  67.751  1.00  0.00    -0.183 C  
BRANCH  23  24
HETATM   24  C   UNL     1      -6.275  18.349  69.054  1.00  0.00    -0.238 A  
HETATM   25  C   UNL     1      -6.562  19.700  69.329  1.00  0.00    -0.379 A  
HETATM   26  C   UNL     1      -6.162  20.291  70.530  1.00  0.00    -0.297 A  
HETATM   27  C   UNL     1      -5.561  17.615  70.013  1.00  0.00    -0.247 A  
HETATM   28  C   UNL     1      -5.467  19.541  71.475  1.00  0.00    -0.363 A  
HETATM   29  C   UNL     1      -5.163  18.207  71.214  1.00  0.00    -0.193 A  
ENDBRANCH  23  24
BRANCH  23  30
HETATM   30  C   UNL     1      -6.487  18.569  66.535  1.00  0.00    -0.217 A  
HETATM   31  C   UNL     1      -5.987  20.282  64.359  1.00  0.00    -0.317 A  
HETATM   32  C   UNL     1      -6.897  20.655  65.345  1.00  0.00    -0.168 A  
HETATM   33  C   UNL     1      -5.611  18.187  65.506  1.00  0.00    -0.211 A  
HETATM   34  C   UNL     1      -5.355  19.042  64.431  1.00  0.00    -0.271 A  
HETATM   35  C   UNL     1      -7.148  19.805  66.425  1.00  0.00    -0.248 A  
ENDBRANCH  23  30
ENDBRANCH  22  23
ENDBRANCH  19  22
ENDBRANCH  15  16
ENDBRANCH  14  15
ENDBRANCH  13  14
ENDBRANCH  11  13
ENDBRANCH   8  11
ENDBRANCH   2   5
TORSDOF 10
ENDMDL
MODEL       82
REMARK 921   NORMALIZED FREE ENERGY PREDICTED BY IDOCK:   -5.01 KCAL/MOL
REMARK 922        TOTAL FREE ENERGY PREDICTED BY IDOCK:  -10.87 KCAL/MOL
REMARK 923 INTER-LIGAND FREE ENERGY PREDICTED BY IDOCK:   -8.22 KCAL/MOL
REMARK 924 INTRA-LIGAND FREE ENERGY PREDICTED BY IDOCK:   -2.65 KCAL/MOL
REMARK 927      BINDING AFFINITY PREDICTED BY RF-SCORE:    0.00 PKD
ROOT
HETATM    1  C   UNL     1      -9.244   5.744  73.025  1.00  0.00    -0.140 C  
HETATM    2  C   UNL     1     -10.437   5.033  72.350  1.00  0.00    -0.275 C  
HETATM    3  C   UNL     1     -11.637   6.005  72.390  1.00  0.00    -0.349 C  
HETATM    4  C   UNL     1     -10.772   3.788  73.199  1.00  0.00    -0.267 C  
ENDROOT
BRANCH   2   5
HETATM    5  C   UNL     1     -10.153   4.626  70.898  1.00  0.00    -0.257 A  
HETATM    6  C   UNL     1      -9.643   3.368  70.547  1.00  0.00    -0.231 A  
HETATM    7  C   UNL     1      -9.372   3.034  69.212  1.00  0.00    -0.217 A  
HETATM    8  C   UNL     1      -9.600   3.960  68.194  1.00  0.00    -0.182 A  
HETATM    9  C   UNL     1     -10.388   5.542  69.855  1.00  0.00    -0.368 A  
HETATM   10  C   UNL     1     -10.116   5.216  68.525  1.00  0.00    -0.214 A  
BRANCH   8  11
HETATM   11  C   UNL     1      -9.277   3.579  66.789  1.00  0.00    -0.181 C  
HETATM   12  O   UNL     1      -9.160   2.391  66.494  1.00  0.00    -0.134 OA 
BRANCH  11  13
HETATM   13  C   UNL     1      -9.108   4.694  65.776  1.00  0.00    -0.139 C  
BRANCH  13  14
HETATM   14  C   UNL     1      -7.703   5.289  65.809  1.00  0.00    -0.091 C  
BRANCH  14  15
HETATM   15  C   UNL     1      -7.585   6.556  64.960  1.00  0.00    -0.092 C  
BRANCH  15  16
HETATM   16  N   UNL     1      -7.319   7.802  65.696  1.00  0.00    -0.071 NA 
HETATM   17  C   UNL     1      -7.236   9.023  64.877  1.00  0.00    -0.095 C  
HETATM   18  C   UNL     1      -8.578   9.582  64.390  1.00  0.00    -0.213 C  
HETATM   19  C   UNL     1      -9.625   9.701  65.505  1.00  0.00    -0.283 C  
HETATM   20  C   UNL     1      -9.695   8.369  66.256  1.00  0.00    -0.278 C  
HETATM   21  C   UNL     1      -8.302   7.989  66.778  1.00  0.00    -0.116 C  
BRANCH  19  22
HETATM   22  O   UNL     1      -9.348  10.667  66.519  1.00  0.00    -0.162 OA 
BRANCH  22  23
HETATM   23  C   UNL     1     -10.423  11.337  67.183  1.00  0.00    -0.222 C  
BRANCH  23  24
HETATM   24  C   UNL     1     -10.104  12.833  67.141  1.00  0.00    -0.234 A  
HETATM   25  C   UNL     1      -9.520  13.493  68.240  1.00  0.00    -0.212 A  
HETATM   26  C   UNL     1      -9.219  14.856  68.185  1.00  0.00    -0.186 A  
HETATM   27  C   UNL     1     -10.393  13.587  65.994  1.00  0.00    -0.303 A  
HETATM   28  C   UNL     1      -9.501  15.583  67.030  1.00  0.00    -0.238 A  
HETATM   29  C   UNL     1     -10.092  14.950  65.939  1.00  0.00    -0.348 A  
ENDBRANCH  23  24
BRANCH  23  30
HETATM   30  C   UNL     1     -10.662  10.831  68.598  1.00  0.00    -0.242 A  
HETATM   31  C   UNL     1     -11.187   9.814  71.169  1.00  0.00    -0.444 A  
HETATM   32  C   UNL     1     -12.131  10.613  70.529  1.00  0.00    -0.448 A  
HETATM   33  C   UNL     1      -9.702  10.065  69.277  1.00  0.00    -0.227 A  
HETATM   34  C   UNL     1      -9.966   9.551  70.549  1.00  0.00    -0.335 A  
HETATM   35  C   UNL     1     -11.871  11.121  69.254  1.00  0.00    -0.422 A  
ENDBRANCH  23  30
ENDBRANCH  22  23
ENDBRANCH  19  22
ENDBRANCH  15  16
ENDBRANCH  14  15
ENDBRANCH  13  14
ENDBRANCH  11  13
ENDBRANCH   8  11
ENDBRANCH   2   5
TORSDOF 10
ENDMDL
MODEL       83
REMARK 921   NORMALIZED FREE ENERGY PREDICTED BY IDOCK:   -5.00 KCAL/MOL
REMARK 922        TOTAL FREE ENERGY PREDICTED BY IDOCK:  -10.86 KCAL/MOL
REMARK 923 INTER-LIGAND FREE ENERGY PREDICTED BY IDOCK:   -9.05 KCAL/MOL
REMARK 924 INTRA-LIGAND FREE ENERGY PREDICTED BY IDOCK:   -1.81 KCAL/MOL
REMARK 927      BINDING AFFINITY PREDICTED BY RF-SCORE:    0.00 PKD
ROOT
HETATM    1  C   UNL     1     -13.463   7.138  71.697  1.00  0.00    -0.397 C  
HETATM    2  C   UNL     1     -12.177   7.992  71.653  1.00  0.00    -0.340 C  
HETATM    3  C   UNL     1     -11.374   7.684  72.937  1.00  0.00    -0.394 C  
HETATM    4  C   UNL     1     -12.607   9.474  71.674  1.00  0.00    -0.476 C  
ENDROOT
BRANCH   2   5
HETATM    5  C   UNL     1     -11.306   7.708  70.422  1.00  0.00    -0.235 A  
HETATM    6  C   UNL     1     -10.564   8.703  69.771  1.00  0.00    -0.224 A  
HETATM    7  C   UNL     1      -9.795   8.416  68.633  1.00  0.00    -0.180 A  
HETATM    8  C   UNL     1      -9.759   7.121  68.114  1.00  0.00    -0.147 A  
HETATM    9  C   UNL     1     -11.247   6.405  69.891  1.00  0.00    -0.485 A  
HETATM   10  C   UNL     1     -10.487   6.115  68.757  1.00  0.00    -0.295 A  
BRANCH   8  11
HETATM   11  C   UNL     1      -8.951   6.858  66.889  1.00  0.00    -0.122 C  
HETATM   12  O   UNL     1      -8.212   5.877  66.850  1.00  0.00    -0.105 OA 
BRANCH  11  13
HETATM   13  C   UNL     1      -9.084   7.830  65.733  1.00  0.00    -0.063 C  
BRANCH  13  14
HETATM   14  C   UNL     1      -7.797   8.614  65.495  1.00  0.00    -0.099 C  
BRANCH  14  15
HETATM   15  C   UNL     1      -7.482   9.582  66.638  1.00  0.00    -0.093 C  
BRANCH  15  16
HETATM   16  N   UNL     1      -7.599  11.013  66.320  1.00  0.00    -0.137 NA 
HETATM   17  C   UNL     1      -8.919  11.455  65.842  1.00  0.00    -0.177 C  
HETATM   18  C   UNL     1     -10.001  11.593  66.921  1.00  0.00    -0.225 C  
HETATM   19  C   UNL     1      -9.532  12.386  68.148  1.00  0.00    -0.214 C  
HETATM   20  C   UNL     1      -8.193  11.815  68.620  1.00  0.00    -0.091 C  
HETATM   21  C   UNL     1      -7.179  11.839  67.467  1.00  0.00    -0.123 C  
BRANCH  19  22
HETATM   22  O   UNL     1      -9.272  13.772  67.931  1.00  0.00    -0.185 OA 
BRANCH  22  23
HETATM   23  C   UNL     1     -10.346  14.716  67.954  1.00  0.00    -0.237 C  
BRANCH  23  24
HETATM   24  C   UNL     1      -9.728  16.096  67.722  1.00  0.00    -0.229 A  
HETATM   25  C   UNL     1      -8.594  16.526  68.438  1.00  0.00    -0.213 A  
HETATM   26  C   UNL     1      -8.029  17.782  68.205  1.00  0.00    -0.282 A  
HETATM   27  C   UNL     1     -10.288  16.972  66.780  1.00  0.00    -0.302 A  
HETATM   28  C   UNL     1      -8.592  18.631  67.255  1.00  0.00    -0.276 A  
HETATM   29  C   UNL     1      -9.722  18.228  66.547  1.00  0.00    -0.343 A  
ENDBRANCH  23  24
BRANCH  23  30
HETATM   30  C   UNL     1     -11.172  14.654  69.232  1.00  0.00    -0.306 A  
HETATM   31  C   UNL     1     -12.606  14.477  71.646  1.00  0.00    -0.419 A  
HETATM   32  C   UNL     1     -12.459  13.352  70.838  1.00  0.00    -0.439 A  
HETATM   33  C   UNL     1     -11.372  15.789  70.033  1.00  0.00    -0.354 A  
HETATM   34  C   UNL     1     -12.075  15.699  71.237  1.00  0.00    -0.463 A  
HETATM   35  C   UNL     1     -11.749  13.439  69.638  1.00  0.00    -0.375 A  
ENDBRANCH  23  30
ENDBRANCH  22  23
ENDBRANCH  19  22
ENDBRANCH  15  16
ENDBRANCH  14  15
ENDBRANCH  13  14
ENDBRANCH  11  13
ENDBRANCH   8  11
ENDBRANCH   2   5
TORSDOF 10
ENDMDL
MODEL       84
REMARK 921   NORMALIZED FREE ENERGY PREDICTED BY IDOCK:   -4.98 KCAL/MOL
REMARK 922        TOTAL FREE ENERGY PREDICTED BY IDOCK:  -10.82 KCAL/MOL
REMARK 923 INTER-LIGAND FREE ENERGY PREDICTED BY IDOCK:   -8.97 KCAL/MOL
REMARK 924 INTRA-LIGAND FREE ENERGY PREDICTED BY IDOCK:   -1.85 KCAL/MOL
REMARK 927      BINDING AFFINITY PREDICTED BY RF-SCORE:    0.00 PKD
ROOT
HETATM    1  C   UNL     1      -5.481  13.001  69.989  1.00  0.00    -0.112 C  
HETATM    2  C   UNL     1      -6.039  13.473  68.628  1.00  0.00    -0.086 C  
HETATM    3  C   UNL     1      -7.491  12.959  68.521  1.00  0.00    -0.123 C  
HETATM    4  C   UNL     1      -5.188  12.807  67.526  1.00  0.00    -0.072 C  
ENDROOT
BRANCH   2   5
HETATM    5  C   UNL     1      -6.021  14.999  68.466  1.00  0.00    -0.094 A  
HETATM    6  C   UNL     1      -5.362  15.851  69.364  1.00  0.00    -0.113 A  
HETATM    7  C   UNL     1      -5.383  17.244  69.201  1.00  0.00    -0.155 A  
HETATM    8  C   UNL     1      -6.075  17.818  68.134  1.00  0.00    -0.172 A  
HETATM    9  C   UNL     1      -6.703  15.597  67.389  1.00  0.00    -0.218 A  
HETATM   10  C   UNL     1      -6.731  16.983  67.225  1.00  0.00    -0.195 A  
BRANCH   8  11
HETATM   11  C   UNL     1      -6.097  19.304  68.007  1.00  0.00    -0.211 C  
HETATM   12  O   UNL     1      -5.126  19.885  67.528  1.00  0.00    -0.172 OA 
BRANCH  11  13
HETATM   13  C   UNL     1      -7.337  20.036  68.481  1.00  0.00    -0.263 C  
BRANCH  13  14
HETATM   14  C   UNL     1      -8.272  20.384  67.327  1.00  0.00    -0.390 C  
BRANCH  14  15
HETATM   15  C   UNL     1      -8.810  19.140  66.614  1.00  0.00    -0.324 C  
BRANCH  15  16
HETATM   16  N   UNL     1     -10.228  18.827  66.849  1.00  0.00    -0.362 NA 
HETATM   17  C   UNL     1     -10.771  17.702  66.071  1.00  0.00    -0.117 C  
HETATM   18  C   UNL     1     -10.368  16.305  66.560  1.00  0.00    -0.310 C  
HETATM   19  C   UNL     1     -10.563  16.115  68.070  1.00  0.00    -0.304 C  
HETATM   20  C   UNL     1      -9.908  17.289  68.802  1.00  0.00    -0.306 C  
HETATM   21  C   UNL     1     -10.485  18.614  68.284  1.00  0.00    -0.270 C  
BRANCH  19  22
HETATM   22  O   UNL     1     -11.915  16.118  68.528  1.00  0.00    -0.214 OA 
BRANCH  22  23
HETATM   23  C   UNL     1     -12.527  14.902  68.968  1.00  0.00     0.092 C  
BRANCH  23  24
HETATM   24  C   UNL     1     -12.428  14.883  70.494  1.00  0.00    -0.419 A  
HETATM   25  C   UNL     1     -13.225  14.022  71.273  1.00  0.00    -0.373 A  
HETATM   26  C   UNL     1     -13.114  14.002  72.666  1.00  0.00    -0.553 A  
HETATM   27  C   UNL     1     -11.531  15.735  71.156  1.00  0.00    -0.466 A  
HETATM   28  C   UNL     1     -12.206  14.846  73.302  1.00  0.00    -0.439 A  
HETATM   29  C   UNL     1     -11.420  15.714  72.548  1.00  0.00    -0.401 A  
ENDBRANCH  23  24
BRANCH  23  30
HETATM   30  C   UNL     1     -11.921  13.661  68.328  1.00  0.00    -0.385 A  
HETATM   31  C   UNL     1     -10.870  11.296  67.223  1.00  0.00    -0.317 A  
HETATM   32  C   UNL     1     -10.465  11.715  68.488  1.00  0.00    -0.236 A  
HETATM   33  C   UNL     1     -12.281  13.251  67.035  1.00  0.00    -0.310 A  
HETATM   34  C   UNL     1     -11.767  12.072  66.490  1.00  0.00    -0.330 A  
HETATM   35  C   UNL     1     -10.985  12.890  69.037  1.00  0.00    -0.244 A  
ENDBRANCH  23  30
ENDBRANCH  22  23
ENDBRANCH  19  22
ENDBRANCH  15  16
ENDBRANCH  14  15
ENDBRANCH  13  14
ENDBRANCH  11  13
ENDBRANCH   8  11
ENDBRANCH   2   5
TORSDOF 10
ENDMDL
MODEL       85
REMARK 921   NORMALIZED FREE ENERGY PREDICTED BY IDOCK:   -4.96 KCAL/MOL
REMARK 922        TOTAL FREE ENERGY PREDICTED BY IDOCK:  -10.79 KCAL/MOL
REMARK 923 INTER-LIGAND FREE ENERGY PREDICTED BY IDOCK:   -7.51 KCAL/MOL
REMARK 924 INTRA-LIGAND FREE ENERGY PREDICTED BY IDOCK:   -3.28 KCAL/MOL
REMARK 927      BINDING AFFINITY PREDICTED BY RF-SCORE:    0.00 PKD
ROOT
HETATM    1  C   UNL     1     -10.836   8.636  71.820  1.00  0.00    -0.395 C  
HETATM    2  C   UNL     1     -11.269   7.208  71.422  1.00  0.00    -0.278 C  
HETATM    3  C   UNL     1     -12.781   7.254  71.110  1.00  0.00    -0.349 C  
HETATM    4  C   UNL     1     -11.036   6.298  72.647  1.00  0.00    -0.298 C  
ENDROOT
BRANCH   2   5
HETATM    5  C   UNL     1     -10.508   6.666  70.205  1.00  0.00    -0.248 A  
HETATM    6  C   UNL     1      -9.123   6.448  70.209  1.00  0.00    -0.155 A  
HETATM    7  C   UNL     1      -8.453   5.973  69.072  1.00  0.00    -0.117 A  
HETATM    8  C   UNL     1      -9.158   5.711  67.896  1.00  0.00    -0.107 A  
HETATM    9  C   UNL     1     -11.204   6.384  69.013  1.00  0.00    -0.402 A  
HETATM   10  C   UNL     1     -10.541   5.915  67.878  1.00  0.00    -0.322 A  
BRANCH   8  11
HETATM   11  C   UNL     1      -8.410   5.230  66.700  1.00  0.00    -0.108 C  
HETATM   12  O   UNL     1      -7.449   4.478  66.847  1.00  0.00    -0.080 OA 
BRANCH  11  13
HETATM   13  C   UNL     1      -8.879   5.701  65.337  1.00  0.00    -0.112 C  
BRANCH  13  14
HETATM   14  C   UNL     1      -7.776   6.426  64.572  1.00  0.00    -0.108 C  
BRANCH  14  15
HETATM   15  C   UNL     1      -8.285   7.683  63.862  1.00  0.00     0.032 C  
BRANCH  15  16
HETATM   16  N   UNL     1      -7.862   8.966  64.443  1.00  0.00    -0.121 NA 
HETATM   17  C   UNL     1      -8.302  10.171  63.721  1.00  0.00    -0.171 C  
HETATM   18  C   UNL     1      -9.774  10.555  63.913  1.00  0.00    -0.384 C  
HETATM   19  C   UNL     1     -10.207  10.570  65.385  1.00  0.00    -0.270 C  
HETATM   20  C   UNL     1      -9.774   9.255  66.038  1.00  0.00    -0.359 C  
HETATM   21  C   UNL     1      -8.262   9.057  65.858  1.00  0.00    -0.117 C  
BRANCH  19  22
HETATM   22  O   UNL     1      -9.616  11.584  66.198  1.00  0.00    -0.211 OA 
BRANCH  22  23
HETATM   23  C   UNL     1      -9.914  11.647  67.595  1.00  0.00    -0.188 C  
BRANCH  23  24
HETATM   24  C   UNL     1     -10.492  13.038  67.862  1.00  0.00    -0.234 A  
HETATM   25  C   UNL     1     -11.029  13.384  69.118  1.00  0.00    -0.213 A  
HETATM   26  C   UNL     1     -11.539  14.663  69.354  1.00  0.00    -0.342 A  
HETATM   27  C   UNL     1     -10.500  14.008  66.849  1.00  0.00    -0.276 A  
HETATM   28  C   UNL     1     -11.524  15.615  68.338  1.00  0.00    -0.374 A  
HETATM   29  C   UNL     1     -11.010  15.286  67.086  1.00  0.00    -0.331 A  
ENDBRANCH  23  24
BRANCH  23  30
HETATM   30  C   UNL     1      -8.715  11.334  68.479  1.00  0.00    -0.156 A  
HETATM   31  C   UNL     1      -6.528  10.853  70.184  1.00  0.00    -0.145 A  
HETATM   32  C   UNL     1      -6.496  11.923  69.294  1.00  0.00    -0.111 A  
HETATM   33  C   UNL     1      -8.710  10.230  69.347  1.00  0.00    -0.168 A  
HETATM   34  C   UNL     1      -7.629   9.997  70.201  1.00  0.00    -0.168 A  
HETATM   35  C   UNL     1      -7.580  12.162  68.445  1.00  0.00    -0.128 A  
ENDBRANCH  23  30
ENDBRANCH  22  23
ENDBRANCH  19  22
ENDBRANCH  15  16
ENDBRANCH  14  15
ENDBRANCH  13  14
ENDBRANCH  11  13
ENDBRANCH   8  11
ENDBRANCH   2   5
TORSDOF 10
ENDMDL
MODEL       86
REMARK 921   NORMALIZED FREE ENERGY PREDICTED BY IDOCK:   -4.96 KCAL/MOL
REMARK 922        TOTAL FREE ENERGY PREDICTED BY IDOCK:  -10.78 KCAL/MOL
REMARK 923 INTER-LIGAND FREE ENERGY PREDICTED BY IDOCK:   -9.44 KCAL/MOL
REMARK 924 INTRA-LIGAND FREE ENERGY PREDICTED BY IDOCK:   -1.35 KCAL/MOL
REMARK 927      BINDING AFFINITY PREDICTED BY RF-SCORE:    0.00 PKD
ROOT
HETATM    1  C   UNL     1      -9.482   1.641  68.242  1.00  0.00    -0.236 C  
HETATM    2  C   UNL     1      -8.711   2.771  68.957  1.00  0.00    -0.133 C  
HETATM    3  C   UNL     1      -7.311   2.223  69.312  1.00  0.00    -0.043 C  
HETATM    4  C   UNL     1      -9.469   3.093  70.263  1.00  0.00    -0.224 C  
ENDROOT
BRANCH   2   5
HETATM    5  C   UNL     1      -8.565   4.037  68.101  1.00  0.00    -0.111 A  
HETATM    6  C   UNL     1      -7.595   5.017  68.353  1.00  0.00    -0.078 A  
HETATM    7  C   UNL     1      -7.503   6.175  67.566  1.00  0.00    -0.082 A  
HETATM    8  C   UNL     1      -8.389   6.381  66.509  1.00  0.00    -0.115 A  
HETATM    9  C   UNL     1      -9.443   4.257  67.022  1.00  0.00    -0.205 A  
HETATM   10  C   UNL     1      -9.358   5.409  66.239  1.00  0.00    -0.163 A  
BRANCH   8  11
HETATM   11  C   UNL     1      -8.277   7.635  65.709  1.00  0.00    -0.133 C  
HETATM   12  O   UNL     1      -8.017   7.567  64.509  1.00  0.00    -0.132 OA 
BRANCH  11  13
HETATM   13  C   UNL     1      -8.494   8.952  66.427  1.00  0.00    -0.123 C  
BRANCH  13  14
HETATM   14  C   UNL     1      -9.975   9.261  66.620  1.00  0.00    -0.333 C  
BRANCH  14  15
HETATM   15  C   UNL     1     -10.388  10.581  65.965  1.00  0.00    -0.211 C  
BRANCH  15  16
HETATM   16  N   UNL     1     -11.535  11.271  66.575  1.00  0.00    -0.308 NA 
HETATM   17  C   UNL     1     -11.538  11.331  68.045  1.00  0.00    -0.272 C  
HETATM   18  C   UNL     1     -10.577  12.353  68.666  1.00  0.00    -0.243 C  
HETATM   19  C   UNL     1     -10.681  13.744  68.029  1.00  0.00    -0.250 C  
HETATM   20  C   UNL     1     -10.598  13.595  66.508  1.00  0.00    -0.282 C  
HETATM   21  C   UNL     1     -11.685  12.627  66.018  1.00  0.00    -0.417 C  
BRANCH  19  22
HETATM   22  O   UNL     1     -11.906  14.442  68.252  1.00  0.00    -0.325 OA 
BRANCH  22  23
HETATM   23  C   UNL     1     -11.921  15.626  69.054  1.00  0.00    -0.304 C  
BRANCH  23  24
HETATM   24  C   UNL     1     -10.600  16.352  68.796  1.00  0.00    -0.310 A  
HETATM   25  C   UNL     1     -10.531  17.479  67.953  1.00  0.00    -0.384 A  
HETATM   26  C   UNL     1      -9.321  18.144  67.737  1.00  0.00    -0.268 A  
HETATM   27  C   UNL     1      -9.416  15.905  69.400  1.00  0.00    -0.248 A  
HETATM   28  C   UNL     1      -8.160  17.691  68.359  1.00  0.00    -0.285 A  
HETATM   29  C   UNL     1      -8.207  16.570  69.185  1.00  0.00    -0.159 A  
ENDBRANCH  23  24
BRANCH  23  30
HETATM   30  C   UNL     1     -12.155  15.347  70.532  1.00  0.00    -0.411 A  
HETATM   31  C   UNL     1     -12.675  14.918  73.264  1.00  0.00    -0.624 A  
HETATM   32  C   UNL     1     -12.019  16.075  72.853  1.00  0.00    -0.611 A  
HETATM   33  C   UNL     1     -12.771  14.164  70.968  1.00  0.00    -0.433 A  
HETATM   34  C   UNL     1     -13.039  13.955  72.324  1.00  0.00    -0.512 A  
HETATM   35  C   UNL     1     -11.757  16.288  71.497  1.00  0.00    -0.467 A  
ENDBRANCH  23  30
ENDBRANCH  22  23
ENDBRANCH  19  22
ENDBRANCH  15  16
ENDBRANCH  14  15
ENDBRANCH  13  14
ENDBRANCH  11  13
ENDBRANCH   8  11
ENDBRANCH   2   5
TORSDOF 10
ENDMDL
MODEL       87
REMARK 921   NORMALIZED FREE ENERGY PREDICTED BY IDOCK:   -4.96 KCAL/MOL
REMARK 922        TOTAL FREE ENERGY PREDICTED BY IDOCK:  -10.78 KCAL/MOL
REMARK 923 INTER-LIGAND FREE ENERGY PREDICTED BY IDOCK:   -9.67 KCAL/MOL
REMARK 924 INTRA-LIGAND FREE ENERGY PREDICTED BY IDOCK:   -1.12 KCAL/MOL
REMARK 927      BINDING AFFINITY PREDICTED BY RF-SCORE:    0.00 PKD
ROOT
HETATM    1  C   UNL     1      -8.689   5.047  69.957  1.00  0.00    -0.119 C  
HETATM    2  C   UNL     1      -9.329   5.144  71.359  1.00  0.00    -0.189 C  
HETATM    3  C   UNL     1      -8.180   5.275  72.383  1.00  0.00    -0.118 C  
HETATM    4  C   UNL     1     -10.082   3.821  71.614  1.00  0.00    -0.149 C  
ENDROOT
BRANCH   2   5
HETATM    5  C   UNL     1     -10.285   6.336  71.504  1.00  0.00    -0.233 A  
HETATM    6  C   UNL     1      -9.849   7.620  71.861  1.00  0.00    -0.205 A  
HETATM    7  C   UNL     1     -10.751   8.684  72.009  1.00  0.00    -0.427 A  
HETATM    8  C   UNL     1     -12.117   8.484  71.809  1.00  0.00    -0.391 A  
HETATM    9  C   UNL     1     -11.666   6.156  71.294  1.00  0.00    -0.211 A  
HETATM   10  C   UNL     1     -12.568   7.211  71.444  1.00  0.00    -0.432 A  
BRANCH   8  11
HETATM   11  C   UNL     1     -13.049   9.632  71.998  1.00  0.00    -0.445 C  
HETATM   12  O   UNL     1     -14.225   9.417  72.287  1.00  0.00    -0.318 OA 
BRANCH  11  13
HETATM   13  C   UNL     1     -12.492  11.031  71.823  1.00  0.00    -0.195 C  
BRANCH  13  14
HETATM   14  C   UNL     1     -13.547  12.103  72.075  1.00  0.00    -0.263 C  
BRANCH  14  15
HETATM   15  C   UNL     1     -12.953  13.379  72.675  1.00  0.00    -0.119 C  
BRANCH  15  16
HETATM   16  N   UNL     1     -13.147  14.609  71.892  1.00  0.00    -0.314 NA 
HETATM   17  C   UNL     1     -12.136  15.660  72.090  1.00  0.00    -0.448 C  
HETATM   18  C   UNL     1     -10.788  15.418  71.399  1.00  0.00    -0.044 C  
HETATM   19  C   UNL     1     -10.928  15.018  69.925  1.00  0.00    -0.261 C  
HETATM   20  C   UNL     1     -11.942  13.877  69.820  1.00  0.00    -0.398 C  
HETATM   21  C   UNL     1     -13.274  14.300  70.456  1.00  0.00    -0.009 C  
BRANCH  19  22
HETATM   22  O   UNL     1     -11.436  16.027  69.051  1.00  0.00    -0.348 OA 
BRANCH  22  23
HETATM   23  C   UNL     1     -10.754  16.329  67.831  1.00  0.00    -0.329 C  
BRANCH  23  24
HETATM   24  C   UNL     1      -9.477  15.487  67.817  1.00  0.00    -0.204 A  
HETATM   25  C   UNL     1      -9.406  14.268  67.114  1.00  0.00    -0.233 A  
HETATM   26  C   UNL     1      -8.229  13.516  67.095  1.00  0.00    -0.126 A  
HETATM   27  C   UNL     1      -8.339  15.916  68.515  1.00  0.00    -0.182 A  
HETATM   28  C   UNL     1      -7.105  13.968  67.783  1.00  0.00    -0.183 A  
HETATM   29  C   UNL     1      -7.162  15.163  68.496  1.00  0.00    -0.118 A  
ENDBRANCH  23  24
BRANCH  23  30
HETATM   30  C   UNL     1     -10.475  17.814  67.651  1.00  0.00    -0.393 A  
HETATM   31  C   UNL     1     -10.081  20.578  67.299  1.00  0.00    -0.439 A  
HETATM   32  C   UNL     1     -10.372  19.770  66.203  1.00  0.00    -0.627 A  
HETATM   33  C   UNL     1     -10.133  18.635  68.737  1.00  0.00    -0.398 A  
HETATM   34  C   UNL     1      -9.947  20.009  68.565  1.00  0.00    -0.454 A  
HETATM   35  C   UNL     1     -10.566  18.397  66.376  1.00  0.00    -0.342 A  
ENDBRANCH  23  30
ENDBRANCH  22  23
ENDBRANCH  19  22
ENDBRANCH  15  16
ENDBRANCH  14  15
ENDBRANCH  13  14
ENDBRANCH  11  13
ENDBRANCH   8  11
ENDBRANCH   2   5
TORSDOF 10
ENDMDL
MODEL       88
REMARK 921   NORMALIZED FREE ENERGY PREDICTED BY IDOCK:   -4.95 KCAL/MOL
REMARK 922        TOTAL FREE ENERGY PREDICTED BY IDOCK:  -10.78 KCAL/MOL
REMARK 923 INTER-LIGAND FREE ENERGY PREDICTED BY IDOCK:   -7.90 KCAL/MOL
REMARK 924 INTRA-LIGAND FREE ENERGY PREDICTED BY IDOCK:   -2.88 KCAL/MOL
REMARK 927      BINDING AFFINITY PREDICTED BY RF-SCORE:    0.00 PKD
ROOT
HETATM    1  C   UNL     1      -7.909   5.219  74.049  1.00  0.00    -0.097 C  
HETATM    2  C   UNL     1      -9.043   5.997  73.346  1.00  0.00    -0.131 C  
HETATM    3  C   UNL     1      -8.841   7.495  73.663  1.00  0.00    -0.271 C  
HETATM    4  C   UNL     1     -10.376   5.528  73.966  1.00  0.00    -0.297 C  
ENDROOT
BRANCH   2   5
HETATM    5  C   UNL     1      -9.061   5.792  71.825  1.00  0.00    -0.150 A  
HETATM    6  C   UNL     1      -7.927   5.970  71.021  1.00  0.00    -0.116 A  
HETATM    7  C   UNL     1      -7.982   5.798  69.630  1.00  0.00    -0.100 A  
HETATM    8  C   UNL     1      -9.182   5.448  69.009  1.00  0.00    -0.149 A  
HETATM    9  C   UNL     1     -10.260   5.427  71.182  1.00  0.00    -0.287 A  
HETATM   10  C   UNL     1     -10.321   5.258  69.798  1.00  0.00    -0.369 A  
BRANCH   8  11
HETATM   11  C   UNL     1      -9.209   5.298  67.526  1.00  0.00    -0.114 C  
HETATM   12  O   UNL     1     -10.224   4.870  66.979  1.00  0.00    -0.206 OA 
BRANCH  11  13
HETATM   13  C   UNL     1      -7.964   5.686  66.754  1.00  0.00    -0.102 C  
BRANCH  13  14
HETATM   14  C   UNL     1      -8.188   6.929  65.897  1.00  0.00    -0.129 C  
BRANCH  14  15
HETATM   15  C   UNL     1      -7.505   8.170  66.477  1.00  0.00    -0.088 C  
BRANCH  15  16
HETATM   16  N   UNL     1      -8.327   9.388  66.534  1.00  0.00    -0.118 NA 
HETATM   17  C   UNL     1      -9.732   9.232  66.123  1.00  0.00    -0.279 C  
HETATM   18  C   UNL     1     -10.648   8.551  67.148  1.00  0.00    -0.314 C  
HETATM   19  C   UNL     1     -10.518   9.139  68.559  1.00  0.00    -0.204 C  
HETATM   20  C   UNL     1      -9.034   9.199  68.931  1.00  0.00    -0.139 C  
HETATM   21  C   UNL     1      -8.262  10.000  67.873  1.00  0.00    -0.113 C  
BRANCH  19  22
HETATM   22  O   UNL     1     -10.980  10.480  68.720  1.00  0.00    -0.220 OA 
BRANCH  22  23
HETATM   23  C   UNL     1     -11.076  11.053  70.026  1.00  0.00    -0.161 C  
BRANCH  23  24
HETATM   24  C   UNL     1     -11.951  10.115  70.859  1.00  0.00    -0.461 A  
HETATM   25  C   UNL     1     -11.395   9.059  71.607  1.00  0.00    -0.430 A  
HETATM   26  C   UNL     1     -12.202   8.218  72.376  1.00  0.00    -0.412 A  
HETATM   27  C   UNL     1     -13.343  10.289  70.893  1.00  0.00    -0.242 A  
HETATM   28  C   UNL     1     -13.581   8.418  72.408  1.00  0.00    -0.255 A  
HETATM   29  C   UNL     1     -14.150   9.448  71.664  1.00  0.00    -0.163 A  
ENDBRANCH  23  24
BRANCH  23  30
HETATM   30  C   UNL     1     -11.599  12.483  70.017  1.00  0.00    -0.207 A  
HETATM   31  C   UNL     1     -12.650  15.091  69.918  1.00  0.00    -0.201 A  
HETATM   32  C   UNL     1     -11.906  14.599  68.849  1.00  0.00    -0.344 A  
HETATM   33  C   UNL     1     -12.309  13.013  71.106  1.00  0.00    -0.270 A  
HETATM   34  C   UNL     1     -12.840  14.304  71.053  1.00  0.00    -0.427 A  
HETATM   35  C   UNL     1     -11.381  13.305  68.898  1.00  0.00    -0.333 A  
ENDBRANCH  23  30
ENDBRANCH  22  23
ENDBRANCH  19  22
ENDBRANCH  15  16
ENDBRANCH  14  15
ENDBRANCH  13  14
ENDBRANCH  11  13
ENDBRANCH   8  11
ENDBRANCH   2   5
TORSDOF 10
ENDMDL
MODEL       89
REMARK 921   NORMALIZED FREE ENERGY PREDICTED BY IDOCK:   -4.94 KCAL/MOL
REMARK 922        TOTAL FREE ENERGY PREDICTED BY IDOCK:  -10.75 KCAL/MOL
REMARK 923 INTER-LIGAND FREE ENERGY PREDICTED BY IDOCK:   -8.39 KCAL/MOL
REMARK 924 INTRA-LIGAND FREE ENERGY PREDICTED BY IDOCK:   -2.37 KCAL/MOL
REMARK 927      BINDING AFFINITY PREDICTED BY RF-SCORE:    0.00 PKD
ROOT
HETATM    1  C   UNL     1     -13.822  15.513  71.410  1.00  0.00    -0.501 C  
HETATM    2  C   UNL     1     -12.583  14.592  71.388  1.00  0.00    -0.411 C  
HETATM    3  C   UNL     1     -12.956  13.299  72.147  1.00  0.00    -0.395 C  
HETATM    4  C   UNL     1     -11.456  15.317  72.154  1.00  0.00    -0.499 C  
ENDROOT
BRANCH   2   5
HETATM    5  C   UNL     1     -12.119  14.239  69.968  1.00  0.00    -0.400 A  
HETATM    6  C   UNL     1     -11.913  15.206  68.974  1.00  0.00    -0.295 A  
HETATM    7  C   UNL     1     -11.511  14.849  67.678  1.00  0.00    -0.366 A  
HETATM    8  C   UNL     1     -11.313  13.508  67.345  1.00  0.00    -0.338 A  
HETATM    9  C   UNL     1     -11.903  12.893  69.617  1.00  0.00    -0.387 A  
HETATM   10  C   UNL     1     -11.506  12.532  68.328  1.00  0.00    -0.355 A  
BRANCH   8  11
HETATM   11  C   UNL     1     -10.910  13.164  65.952  1.00  0.00    -0.273 C  
HETATM   12  O   UNL     1     -10.423  14.032  65.230  1.00  0.00    -0.336 OA 
BRANCH  11  13
HETATM   13  C   UNL     1     -11.124  11.737  65.486  1.00  0.00    -0.336 C  
BRANCH  13  14
HETATM   14  C   UNL     1      -9.804  11.007  65.257  1.00  0.00    -0.309 C  
BRANCH  14  15
HETATM   15  C   UNL     1      -8.733  11.403  66.276  1.00  0.00    -0.173 C  
BRANCH  15  16
HETATM   16  N   UNL     1      -7.928  10.301  66.825  1.00  0.00    -0.112 NA 
HETATM   17  C   UNL     1      -7.044  10.653  67.948  1.00  0.00    -0.086 C  
HETATM   18  C   UNL     1      -7.739  10.837  69.303  1.00  0.00    -0.129 C  
HETATM   19  C   UNL     1      -8.693   9.688  69.653  1.00  0.00    -0.197 C  
HETATM   20  C   UNL     1      -9.620   9.439  68.461  1.00  0.00    -0.154 C  
HETATM   21  C   UNL     1      -8.787   9.164  67.201  1.00  0.00    -0.119 C  
BRANCH  19  22
HETATM   22  O   UNL     1      -8.081   8.423  69.900  1.00  0.00    -0.113 OA 
BRANCH  22  23
HETATM   23  C   UNL     1      -8.803   7.399  70.589  1.00  0.00    -0.150 C  
BRANCH  23  24
HETATM   24  C   UNL     1      -8.186   7.285  71.984  1.00  0.00    -0.108 A  
HETATM   25  C   UNL     1      -8.717   7.986  73.084  1.00  0.00    -0.300 A  
HETATM   26  C   UNL     1      -8.155   7.861  74.357  1.00  0.00    -0.293 A  
HETATM   27  C   UNL     1      -7.064   6.470  72.198  1.00  0.00    -0.081 A  
HETATM   28  C   UNL     1      -7.050   7.035  74.550  1.00  0.00    -0.106 A  
HETATM   29  C   UNL     1      -6.503   6.345  73.471  1.00  0.00    -0.065 A  
ENDBRANCH  23  24
BRANCH  23  30
HETATM   30  C   UNL     1      -8.816   6.070  69.846  1.00  0.00    -0.138 A  
HETATM   31  C   UNL     1      -8.960   3.634  68.446  1.00  0.00    -0.176 A  
HETATM   32  C   UNL     1      -9.567   3.758  69.693  1.00  0.00    -0.242 A  
HETATM   33  C   UNL     1      -8.167   5.912  68.611  1.00  0.00    -0.109 A  
HETATM   34  C   UNL     1      -8.247   4.706  67.911  1.00  0.00    -0.099 A  
HETATM   35  C   UNL     1      -9.495   4.967  70.390  1.00  0.00    -0.233 A  
ENDBRANCH  23  30
ENDBRANCH  22  23
ENDBRANCH  19  22
ENDBRANCH  15  16
ENDBRANCH  14  15
ENDBRANCH  13  14
ENDBRANCH  11  13
ENDBRANCH   8  11
ENDBRANCH   2   5
TORSDOF 10
ENDMDL
MODEL       90
REMARK 921   NORMALIZED FREE ENERGY PREDICTED BY IDOCK:   -4.90 KCAL/MOL
REMARK 922        TOTAL FREE ENERGY PREDICTED BY IDOCK:  -10.69 KCAL/MOL
REMARK 923 INTER-LIGAND FREE ENERGY PREDICTED BY IDOCK:   -8.95 KCAL/MOL
REMARK 924 INTRA-LIGAND FREE ENERGY PREDICTED BY IDOCK:   -1.74 KCAL/MOL
REMARK 927      BINDING AFFINITY PREDICTED BY RF-SCORE:    0.00 PKD
ROOT
HETATM    1  C   UNL     1      -8.727   4.634  62.882  1.00  0.00    -0.123 C  
HETATM    2  C   UNL     1      -8.230   4.120  64.250  1.00  0.00    -0.096 C  
HETATM    3  C   UNL     1      -6.692   4.269  64.268  1.00  0.00    -0.044 C  
HETATM    4  C   UNL     1      -8.590   2.622  64.338  1.00  0.00    -0.092 C  
ENDROOT
BRANCH   2   5
HETATM    5  C   UNL     1      -8.834   4.883  65.437  1.00  0.00    -0.149 A  
HETATM    6  C   UNL     1     -10.179   4.761  65.812  1.00  0.00    -0.251 A  
HETATM    7  C   UNL     1     -10.708   5.490  66.888  1.00  0.00    -0.310 A  
HETATM    8  C   UNL     1      -9.898   6.368  67.610  1.00  0.00    -0.138 A  
HETATM    9  C   UNL     1      -8.030   5.765  66.185  1.00  0.00    -0.102 A  
HETATM   10  C   UNL     1      -8.552   6.495  67.254  1.00  0.00    -0.111 A  
BRANCH   8  11
HETATM   11  C   UNL     1     -10.500   7.145  68.732  1.00  0.00    -0.202 C  
HETATM   12  O   UNL     1     -11.105   6.553  69.623  1.00  0.00    -0.309 OA 
BRANCH  11  13
HETATM   13  C   UNL     1     -10.332   8.652  68.718  1.00  0.00    -0.228 C  
BRANCH  13  14
HETATM   14  C   UNL     1     -10.578   9.241  67.332  1.00  0.00    -0.324 C  
BRANCH  14  15
HETATM   15  C   UNL     1      -9.557  10.321  66.967  1.00  0.00    -0.171 C  
BRANCH  15  16
HETATM   16  N   UNL     1     -10.108  11.564  66.406  1.00  0.00    -0.210 NA 
HETATM   17  C   UNL     1     -11.493  11.880  66.791  1.00  0.00    -0.316 C  
HETATM   18  C   UNL     1     -11.675  12.426  68.213  1.00  0.00    -0.398 C  
HETATM   19  C   UNL     1     -10.704  13.565  68.551  1.00  0.00    -0.255 C  
HETATM   20  C   UNL     1      -9.284  13.125  68.186  1.00  0.00    -0.215 C  
HETATM   21  C   UNL     1      -9.230  12.708  66.709  1.00  0.00    -0.225 C  
BRANCH  19  22
HETATM   22  O   UNL     1     -10.896  14.782  67.831  1.00  0.00    -0.258 OA 
BRANCH  22  23
HETATM   23  C   UNL     1     -11.425  15.933  68.495  1.00  0.00    -0.377 C  
BRANCH  23  24
HETATM   24  C   UNL     1     -10.329  17.000  68.474  1.00  0.00    -0.359 A  
HETATM   25  C   UNL     1     -10.630  18.362  68.280  1.00  0.00    -0.240 A  
HETATM   26  C   UNL     1      -9.622  19.329  68.279  1.00  0.00    -0.438 A  
HETATM   27  C   UNL     1      -8.985  16.637  68.647  1.00  0.00    -0.246 A  
HETATM   28  C   UNL     1      -8.295  18.949  68.468  1.00  0.00    -0.384 A  
HETATM   29  C   UNL     1      -7.977  17.605  68.647  1.00  0.00    -0.275 A  
ENDBRANCH  23  24
BRANCH  23  30
HETATM   30  C   UNL     1     -11.924  15.637  69.902  1.00  0.00    -0.376 A  
HETATM   31  C   UNL     1     -12.851  14.970  72.474  1.00  0.00    -0.446 A  
HETATM   32  C   UNL     1     -13.719  14.924  71.386  1.00  0.00    -0.527 A  
HETATM   33  C   UNL     1     -11.075  15.725  71.017  1.00  0.00    -0.327 A  
HETATM   34  C   UNL     1     -11.532  15.384  72.292  1.00  0.00    -0.506 A  
HETATM   35  C   UNL     1     -13.261  15.258  70.109  1.00  0.00     0.078 A  
ENDBRANCH  23  30
ENDBRANCH  22  23
ENDBRANCH  19  22
ENDBRANCH  15  16
ENDBRANCH  14  15
ENDBRANCH  13  14
ENDBRANCH  11  13
ENDBRANCH   8  11
ENDBRANCH   2   5
TORSDOF 10
ENDMDL
MODEL       91
REMARK 921   NORMALIZED FREE ENERGY PREDICTED BY IDOCK:   -4.90 KCAL/MOL
REMARK 922        TOTAL FREE ENERGY PREDICTED BY IDOCK:  -10.69 KCAL/MOL
REMARK 923 INTER-LIGAND FREE ENERGY PREDICTED BY IDOCK:   -8.57 KCAL/MOL
REMARK 924 INTRA-LIGAND FREE ENERGY PREDICTED BY IDOCK:   -2.12 KCAL/MOL
REMARK 927      BINDING AFFINITY PREDICTED BY RF-SCORE:    0.00 PKD
ROOT
HETATM    1  C   UNL     1     -10.644  19.033  65.755  1.00  0.00    -0.388 C  
HETATM    2  C   UNL     1      -9.858  18.601  67.011  1.00  0.00    -0.351 C  
HETATM    3  C   UNL     1     -10.392  19.433  68.199  1.00  0.00    -0.525 C  
HETATM    4  C   UNL     1      -8.376  18.960  66.774  1.00  0.00    -0.289 C  
ENDROOT
BRANCH   2   5
HETATM    5  C   UNL     1     -10.000  17.106  67.326  1.00  0.00    -0.274 A  
HETATM    6  C   UNL     1      -9.254  16.117  66.670  1.00  0.00    -0.273 A  
HETATM    7  C   UNL     1      -9.423  14.756  66.963  1.00  0.00    -0.241 A  
HETATM    8  C   UNL     1     -10.354  14.352  67.921  1.00  0.00    -0.232 A  
HETATM    9  C   UNL     1     -10.925  16.679  68.298  1.00  0.00    -0.341 A  
HETATM   10  C   UNL     1     -11.100  15.326  68.592  1.00  0.00    -0.282 A  
BRANCH   8  11
HETATM   11  C   UNL     1     -10.525  12.895  68.190  1.00  0.00    -0.237 C  
HETATM   12  O   UNL     1      -9.591  12.125  67.974  1.00  0.00    -0.191 OA 
BRANCH  11  13
HETATM   13  C   UNL     1     -11.863  12.428  68.727  1.00  0.00    -0.358 C  
BRANCH  13  14
HETATM   14  C   UNL     1     -11.822  12.183  70.232  1.00  0.00    -0.339 C  
BRANCH  14  15
HETATM   15  C   UNL     1     -12.562  10.906  70.637  1.00  0.00    -0.346 C  
BRANCH  15  16
HETATM   16  N   UNL     1     -11.843  10.011  71.558  1.00  0.00    -0.364 NA 
HETATM   17  C   UNL     1     -12.608   8.854  72.051  1.00  0.00    -0.394 C  
HETATM   18  C   UNL     1     -12.785   7.705  71.050  1.00  0.00    -0.156 C  
HETATM   19  C   UNL     1     -11.475   7.287  70.372  1.00  0.00    -0.248 C  
HETATM   20  C   UNL     1     -10.783   8.540  69.828  1.00  0.00    -0.213 C  
HETATM   21  C   UNL     1     -10.575   9.556  70.960  1.00  0.00    -0.322 C  
BRANCH  19  22
HETATM   22  O   UNL     1     -10.499   6.681  71.220  1.00  0.00    -0.211 OA 
BRANCH  22  23
HETATM   23  C   UNL     1      -9.857   5.468  70.821  1.00  0.00    -0.188 C  
BRANCH  23  24
HETATM   24  C   UNL     1     -10.187   4.421  71.887  1.00  0.00    -0.216 A  
HETATM   25  C   UNL     1     -10.846   4.769  73.082  1.00  0.00    -0.340 A  
HETATM   26  C   UNL     1     -11.157   3.802  74.041  1.00  0.00    -0.156 A  
HETATM   27  C   UNL     1      -9.835   3.077  71.693  1.00  0.00    -0.214 A  
HETATM   28  C   UNL     1     -10.811   2.471  73.822  1.00  0.00    -0.282 A  
HETATM   29  C   UNL     1     -10.146   2.111  72.652  1.00  0.00    -0.210 A  
ENDBRANCH  23  24
BRANCH  23  30
HETATM   30  C   UNL     1      -8.359   5.625  70.602  1.00  0.00    -0.118 A  
HETATM   31  C   UNL     1      -5.574   5.802  70.244  1.00  0.00    -0.012 A  
HETATM   32  C   UNL     1      -6.119   5.885  71.523  1.00  0.00    -0.038 A  
HETATM   33  C   UNL     1      -7.797   5.592  69.316  1.00  0.00    -0.089 A  
HETATM   34  C   UNL     1      -6.413   5.670  69.139  1.00  0.00    -0.042 A  
HETATM   35  C   UNL     1      -7.502   5.800  71.702  1.00  0.00    -0.094 A  
ENDBRANCH  23  30
ENDBRANCH  22  23
ENDBRANCH  19  22
ENDBRANCH  15  16
ENDBRANCH  14  15
ENDBRANCH  13  14
ENDBRANCH  11  13
ENDBRANCH   8  11
ENDBRANCH   2   5
TORSDOF 10
ENDMDL
MODEL       92
REMARK 921   NORMALIZED FREE ENERGY PREDICTED BY IDOCK:   -4.89 KCAL/MOL
REMARK 922        TOTAL FREE ENERGY PREDICTED BY IDOCK:  -10.67 KCAL/MOL
REMARK 923 INTER-LIGAND FREE ENERGY PREDICTED BY IDOCK:   -8.64 KCAL/MOL
REMARK 924 INTRA-LIGAND FREE ENERGY PREDICTED BY IDOCK:   -2.03 KCAL/MOL
REMARK 927      BINDING AFFINITY PREDICTED BY RF-SCORE:    0.00 PKD
ROOT
HETATM    1  C   UNL     1     -11.898  15.125  72.476  1.00  0.00    -0.485 C  
HETATM    2  C   UNL     1     -12.845  14.437  71.468  1.00  0.00    -0.411 C  
HETATM    3  C   UNL     1     -14.124  15.298  71.374  1.00  0.00    -0.595 C  
HETATM    4  C   UNL     1     -13.211  13.055  72.049  1.00  0.00    -0.543 C  
ENDROOT
BRANCH   2   5
HETATM    5  C   UNL     1     -12.227  14.280  70.072  1.00  0.00    -0.417 A  
HETATM    6  C   UNL     1     -11.990  15.368  69.219  1.00  0.00    -0.335 A  
HETATM    7  C   UNL     1     -11.446  15.190  67.939  1.00  0.00    -0.344 A  
HETATM    8  C   UNL     1     -11.133  13.911  67.478  1.00  0.00    -0.302 A  
HETATM    9  C   UNL     1     -11.893  12.999  69.593  1.00  0.00    -0.385 A  
HETATM   10  C   UNL     1     -11.355  12.816  68.318  1.00  0.00    -0.335 A  
BRANCH   8  11
HETATM   11  C   UNL     1     -10.579  13.757  66.102  1.00  0.00    -0.291 C  
HETATM   12  O   UNL     1     -10.626  14.704  65.320  1.00  0.00    -0.336 OA 
BRANCH  11  13
HETATM   13  C   UNL     1      -9.974  12.417  65.730  1.00  0.00    -0.270 C  
BRANCH  13  14
HETATM   14  C   UNL     1      -8.568  12.247  66.298  1.00  0.00     0.125 C  
BRANCH  14  15
HETATM   15  C   UNL     1      -8.228  10.784  66.589  1.00  0.00    -0.140 C  
BRANCH  15  16
HETATM   16  N   UNL     1      -9.261  10.012  67.298  1.00  0.00    -0.141 NA 
HETATM   17  C   UNL     1     -10.062   9.101  66.466  1.00  0.00    -0.287 C  
HETATM   18  C   UNL     1      -9.362   7.802  66.046  1.00  0.00    -0.102 C  
HETATM   19  C   UNL     1      -8.684   7.076  67.215  1.00  0.00    -0.120 C  
HETATM   20  C   UNL     1      -7.818   8.079  67.981  1.00  0.00    -0.126 C  
HETATM   21  C   UNL     1      -8.674   9.272  68.430  1.00  0.00    -0.129 C  
BRANCH  19  22
HETATM   22  O   UNL     1      -9.560   6.534  68.203  1.00  0.00    -0.125 OA 
BRANCH  22  23
HETATM   23  C   UNL     1      -9.026   5.819  69.321  1.00  0.00    -0.119 C  
BRANCH  23  24
HETATM   24  C   UNL     1      -8.559   4.460  68.795  1.00  0.00    -0.102 A  
HETATM   25  C   UNL     1      -7.219   4.044  68.918  1.00  0.00    -0.054 A  
HETATM   26  C   UNL     1      -6.808   2.794  68.449  1.00  0.00    -0.047 A  
HETATM   27  C   UNL     1      -9.468   3.593  68.171  1.00  0.00    -0.215 A  
HETATM   28  C   UNL     1      -7.730   1.941  67.845  1.00  0.00    -0.058 A  
HETATM   29  C   UNL     1      -9.056   2.343  67.703  1.00  0.00    -0.215 A  
ENDBRANCH  23  24
BRANCH  23  30
HETATM   30  C   UNL     1     -10.008   5.691  70.477  1.00  0.00    -0.265 A  
HETATM   31  C   UNL     1     -11.739   5.506  72.688  1.00  0.00    -0.240 A  
HETATM   32  C   UNL     1     -10.648   4.647  72.582  1.00  0.00    -0.259 A  
HETATM   33  C   UNL     1     -11.140   6.517  70.574  1.00  0.00    -0.375 A  
HETATM   34  C   UNL     1     -11.993   6.432  71.677  1.00  0.00    -0.347 A  
HETATM   35  C   UNL     1      -9.790   4.736  71.483  1.00  0.00    -0.253 A  
ENDBRANCH  23  30
ENDBRANCH  22  23
ENDBRANCH  19  22
ENDBRANCH  15  16
ENDBRANCH  14  15
ENDBRANCH  13  14
ENDBRANCH  11  13
ENDBRANCH   8  11
ENDBRANCH   2   5
TORSDOF 10
ENDMDL
MODEL       93
REMARK 921   NORMALIZED FREE ENERGY PREDICTED BY IDOCK:   -4.88 KCAL/MOL
REMARK 922        TOTAL FREE ENERGY PREDICTED BY IDOCK:  -10.66 KCAL/MOL
REMARK 923 INTER-LIGAND FREE ENERGY PREDICTED BY IDOCK:   -8.61 KCAL/MOL
REMARK 924 INTRA-LIGAND FREE ENERGY PREDICTED BY IDOCK:   -2.05 KCAL/MOL
REMARK 927      BINDING AFFINITY PREDICTED BY RF-SCORE:    0.00 PKD
ROOT
HETATM    1  C   UNL     1      -9.600  15.252  69.777  1.00  0.00    -0.140 C  
HETATM    2  C   UNL     1     -10.799  14.697  68.976  1.00  0.00    -0.252 C  
HETATM    3  C   UNL     1     -11.437  15.883  68.220  1.00  0.00    -0.320 C  
HETATM    4  C   UNL     1     -11.818  14.145  69.996  1.00  0.00    -0.388 C  
ENDROOT
BRANCH   2   5
HETATM    5  C   UNL     1     -10.401  13.604  67.975  1.00  0.00    -0.250 A  
HETATM    6  C   UNL     1     -11.023  13.453  66.728  1.00  0.00    -0.298 A  
HETATM    7  C   UNL     1     -10.653  12.429  65.844  1.00  0.00    -0.289 A  
HETATM    8  C   UNL     1      -9.651  11.523  66.195  1.00  0.00    -0.248 A  
HETATM    9  C   UNL     1      -9.383  12.688  68.306  1.00  0.00    -0.195 A  
HETATM   10  C   UNL     1      -9.014  11.665  67.431  1.00  0.00    -0.166 A  
BRANCH   8  11
HETATM   11  C   UNL     1      -9.300  10.432  65.241  1.00  0.00    -0.214 C  
HETATM   12  O   UNL     1      -9.954  10.296  64.209  1.00  0.00    -0.328 OA 
BRANCH  11  13
HETATM   13  C   UNL     1      -8.135   9.530  65.597  1.00  0.00    -0.112 C  
BRANCH  13  14
HETATM   14  C   UNL     1      -8.239   8.168  64.918  1.00  0.00    -0.150 C  
BRANCH  14  15
HETATM   15  C   UNL     1      -8.556   7.044  65.908  1.00  0.00    -0.145 C  
BRANCH  15  16
HETATM   16  N   UNL     1      -9.950   6.968  66.371  1.00  0.00    -0.076 NA 
HETATM   17  C   UNL     1     -10.387   5.655  66.873  1.00  0.00    -0.259 C  
HETATM   18  C   UNL     1      -9.887   5.284  68.275  1.00  0.00    -0.206 C  
HETATM   19  C   UNL     1     -10.100   6.400  69.306  1.00  0.00    -0.172 C  
HETATM   20  C   UNL     1      -9.554   7.710  68.732  1.00  0.00    -0.153 C  
HETATM   21  C   UNL     1     -10.221   8.006  67.382  1.00  0.00    -0.261 C  
BRANCH  19  22
HETATM   22  O   UNL     1     -11.457   6.693  69.636  1.00  0.00    -0.338 OA 
BRANCH  22  23
HETATM   23  C   UNL     1     -11.876   6.709  71.003  1.00  0.00    -0.372 C  
BRANCH  23  24
HETATM   24  C   UNL     1     -12.345   8.133  71.306  1.00  0.00    -0.285 A  
HETATM   25  C   UNL     1     -13.346   8.391  72.263  1.00  0.00    -0.298 A  
HETATM   26  C   UNL     1     -13.755   9.697  72.543  1.00  0.00    -0.272 A  
HETATM   27  C   UNL     1     -11.782   9.223  70.627  1.00  0.00    -0.276 A  
HETATM   28  C   UNL     1     -13.171  10.767  71.867  1.00  0.00    -0.524 A  
HETATM   29  C   UNL     1     -12.190  10.529  70.908  1.00  0.00    -0.490 A  
ENDBRANCH  23  24
BRANCH  23  30
HETATM   30  C   UNL     1     -10.798   6.232  71.966  1.00  0.00    -0.286 A  
HETATM   31  C   UNL     1      -8.740   5.312  73.650  1.00  0.00    -0.110 A  
HETATM   32  C   UNL     1      -9.590   4.402  73.027  1.00  0.00    -0.156 A  
HETATM   33  C   UNL     1      -9.963   7.137  72.641  1.00  0.00    -0.208 A  
HETATM   34  C   UNL     1      -8.935   6.680  73.469  1.00  0.00    -0.143 A  
HETATM   35  C   UNL     1     -10.614   4.858  72.193  1.00  0.00    -0.232 A  
ENDBRANCH  23  30
ENDBRANCH  22  23
ENDBRANCH  19  22
ENDBRANCH  15  16
ENDBRANCH  14  15
ENDBRANCH  13  14
ENDBRANCH  11  13
ENDBRANCH   8  11
ENDBRANCH   2   5
TORSDOF 10
ENDMDL
MODEL       94
REMARK 921   NORMALIZED FREE ENERGY PREDICTED BY IDOCK:   -4.88 KCAL/MOL
REMARK 922        TOTAL FREE ENERGY PREDICTED BY IDOCK:  -10.66 KCAL/MOL
REMARK 923 INTER-LIGAND FREE ENERGY PREDICTED BY IDOCK:   -8.61 KCAL/MOL
REMARK 924 INTRA-LIGAND FREE ENERGY PREDICTED BY IDOCK:   -2.05 KCAL/MOL
REMARK 927      BINDING AFFINITY PREDICTED BY RF-SCORE:    0.00 PKD
ROOT
HETATM    1  C   UNL     1      -5.128   3.218  70.439  1.00  0.00    -0.004 C  
HETATM    2  C   UNL     1      -6.525   3.361  69.797  1.00  0.00    -0.033 C  
HETATM    3  C   UNL     1      -7.001   1.944  69.406  1.00  0.00    -0.033 C  
HETATM    4  C   UNL     1      -6.358   4.205  68.515  1.00  0.00    -0.036 C  
ENDROOT
BRANCH   2   5
HETATM    5  C   UNL     1      -7.555   4.010  70.731  1.00  0.00    -0.047 A  
HETATM    6  C   UNL     1      -8.903   4.172  70.381  1.00  0.00    -0.137 A  
HETATM    7  C   UNL     1      -9.815   4.790  71.248  1.00  0.00    -0.256 A  
HETATM    8  C   UNL     1      -9.395   5.270  72.489  1.00  0.00    -0.154 A  
HETATM    9  C   UNL     1      -7.152   4.489  71.993  1.00  0.00    -0.057 A  
HETATM   10  C   UNL     1      -8.056   5.109  72.857  1.00  0.00    -0.105 A  
BRANCH   8  11
HETATM   11  C   UNL     1     -10.387   5.944  73.374  1.00  0.00    -0.231 C  
HETATM   12  O   UNL     1     -11.008   5.281  74.204  1.00  0.00    -0.251 OA 
BRANCH  11  13
HETATM   13  C   UNL     1     -10.584   7.437  73.206  1.00  0.00    -0.442 C  
BRANCH  13  14
HETATM   14  C   UNL     1     -11.810   7.760  72.358  1.00  0.00    -0.371 C  
BRANCH  14  15
HETATM   15  C   UNL     1     -11.440   8.184  70.934  1.00  0.00    -0.271 C  
BRANCH  15  16
HETATM   16  N   UNL     1     -10.675   9.435  70.814  1.00  0.00    -0.279 NA 
HETATM   17  C   UNL     1      -9.755   9.513  69.668  1.00  0.00    -0.200 C  
HETATM   18  C   UNL     1     -10.415   9.770  68.307  1.00  0.00    -0.255 C  
HETATM   19  C   UNL     1     -11.413  10.935  68.331  1.00  0.00    -0.304 C  
HETATM   20  C   UNL     1     -12.373  10.736  69.507  1.00  0.00    -0.208 C  
HETATM   21  C   UNL     1     -11.577  10.601  70.813  1.00  0.00    -0.292 C  
BRANCH  19  22
HETATM   22  O   UNL     1     -10.854  12.231  68.543  1.00  0.00    -0.219 OA 
BRANCH  22  23
HETATM   23  C   UNL     1     -10.202  12.915  67.470  1.00  0.00    -0.213 C  
BRANCH  23  24
HETATM   24  C   UNL     1     -10.172  14.399  67.843  1.00  0.00    -0.232 A  
HETATM   25  C   UNL     1     -10.777  14.873  69.023  1.00  0.00    -0.247 A  
HETATM   26  C   UNL     1     -10.730  16.228  69.362  1.00  0.00    -0.318 A  
HETATM   27  C   UNL     1      -9.535  15.327  67.007  1.00  0.00    -0.235 A  
HETATM   28  C   UNL     1     -10.079  17.131  68.524  1.00  0.00    -0.329 A  
HETATM   29  C   UNL     1      -9.487  16.681  67.346  1.00  0.00    -0.232 A  
ENDBRANCH  23  24
BRANCH  23  30
HETATM   30  C   UNL     1     -10.853  12.667  66.116  1.00  0.00    -0.301 A  
HETATM   31  C   UNL     1     -12.052  12.331  63.593  1.00  0.00    -0.648 A  
HETATM   32  C   UNL     1     -12.785  12.871  64.647  1.00  0.00    -0.403 A  
HETATM   33  C   UNL     1     -10.144  12.079  65.057  1.00  0.00    -0.293 A  
HETATM   34  C   UNL     1     -10.736  11.921  63.802  1.00  0.00    -0.476 A  
HETATM   35  C   UNL     1     -12.191  13.036  65.901  1.00  0.00    -0.493 A  
ENDBRANCH  23  30
ENDBRANCH  22  23
ENDBRANCH  19  22
ENDBRANCH  15  16
ENDBRANCH  14  15
ENDBRANCH  13  14
ENDBRANCH  11  13
ENDBRANCH   8  11
ENDBRANCH   2   5
TORSDOF 10
ENDMDL
MODEL       95
REMARK 921   NORMALIZED FREE ENERGY PREDICTED BY IDOCK:   -4.87 KCAL/MOL
REMARK 922        TOTAL FREE ENERGY PREDICTED BY IDOCK:  -10.65 KCAL/MOL
REMARK 923 INTER-LIGAND FREE ENERGY PREDICTED BY IDOCK:   -8.62 KCAL/MOL
REMARK 924 INTRA-LIGAND FREE ENERGY PREDICTED BY IDOCK:   -2.03 KCAL/MOL
REMARK 927      BINDING AFFINITY PREDICTED BY RF-SCORE:    0.00 PKD
ROOT
HETATM    1  C   UNL     1     -10.019  18.634  68.521  1.00  0.00    -0.430 C  
HETATM    2  C   UNL     1      -9.830  18.268  67.033  1.00  0.00    -0.331 C  
HETATM    3  C   UNL     1      -8.313  18.285  66.742  1.00  0.00    -0.269 C  
HETATM    4  C   UNL     1     -10.514  19.372  66.197  1.00  0.00    -0.600 C  
ENDROOT
BRANCH   2   5
HETATM    5  C   UNL     1     -10.407  16.893  66.672  1.00  0.00    -0.299 A  
HETATM    6  C   UNL     1     -10.541  16.448  65.349  1.00  0.00    -0.338 A  
HETATM    7  C   UNL     1     -11.094  15.195  65.050  1.00  0.00    -0.428 A  
HETATM    8  C   UNL     1     -11.536  14.357  66.075  1.00  0.00    -0.364 A  
HETATM    9  C   UNL     1     -10.848  16.028  67.693  1.00  0.00    -0.311 A  
HETATM   10  C   UNL     1     -11.403  14.781  67.400  1.00  0.00    -0.361 A  
BRANCH   8  11
HETATM   11  C   UNL     1     -12.142  13.041  65.719  1.00  0.00    -0.454 C  
HETATM   12  O   UNL     1     -13.120  13.006  64.976  1.00  0.00    -0.761 OA 
BRANCH  11  13
HETATM   13  C   UNL     1     -11.510  11.792  66.301  1.00  0.00    -0.296 C  
BRANCH  13  14
HETATM   14  C   UNL     1     -10.070  11.608  65.832  1.00  0.00    -0.267 C  
BRANCH  14  15
HETATM   15  C   UNL     1      -9.163  11.054  66.933  1.00  0.00    -0.155 C  
BRANCH  15  16
HETATM   16  N   UNL     1      -8.450   9.808  66.612  1.00  0.00    -0.124 NA 
HETATM   17  C   UNL     1      -7.726   9.180  67.730  1.00  0.00    -0.093 C  
HETATM   18  C   UNL     1      -8.600   8.434  68.746  1.00  0.00    -0.135 C  
HETATM   19  C   UNL     1      -9.602   7.475  68.091  1.00  0.00    -0.148 C  
HETATM   20  C   UNL     1     -10.357   8.228  66.993  1.00  0.00    -0.393 C  
HETATM   21  C   UNL     1      -9.360   8.830  65.992  1.00  0.00    -0.232 C  
BRANCH  19  22
HETATM   22  O   UNL     1      -9.039   6.344  67.425  1.00  0.00    -0.113 OA 
BRANCH  22  23
HETATM   23  C   UNL     1      -9.661   5.062  67.539  1.00  0.00    -0.145 C  
BRANCH  23  24
HETATM   24  C   UNL     1      -8.929   4.312  68.654  1.00  0.00    -0.156 A  
HETATM   25  C   UNL     1      -9.514   3.209  69.307  1.00  0.00    -0.179 A  
HETATM   26  C   UNL     1      -8.830   2.523  70.313  1.00  0.00    -0.142 A  
HETATM   27  C   UNL     1      -7.647   4.715  69.054  1.00  0.00    -0.060 A  
HETATM   28  C   UNL     1      -7.550   2.930  70.685  1.00  0.00    -0.039 A  
HETATM   29  C   UNL     1      -6.963   4.027  70.060  1.00  0.00    -0.041 A  
ENDBRANCH  23  24
BRANCH  23  30
HETATM   30  C   UNL     1      -9.680   4.286  66.230  1.00  0.00    -0.225 A  
HETATM   31  C   UNL     1      -9.736   2.747  63.874  1.00  0.00    -0.142 A  
HETATM   32  C   UNL     1      -8.643   2.668  64.733  1.00  0.00    -0.097 A  
HETATM   33  C   UNL     1     -10.751   4.391  65.328  1.00  0.00    -0.150 A  
HETATM   34  C   UNL     1     -10.784   3.620  64.164  1.00  0.00    -0.221 A  
HETATM   35  C   UNL     1      -8.613   3.432  65.902  1.00  0.00    -0.118 A  
ENDBRANCH  23  30
ENDBRANCH  22  23
ENDBRANCH  19  22
ENDBRANCH  15  16
ENDBRANCH  14  15
ENDBRANCH  13  14
ENDBRANCH  11  13
ENDBRANCH   8  11
ENDBRANCH   2   5
TORSDOF 10
ENDMDL
MODEL       96
REMARK 921   NORMALIZED FREE ENERGY PREDICTED BY IDOCK:   -4.87 KCAL/MOL
REMARK 922        TOTAL FREE ENERGY PREDICTED BY IDOCK:  -10.64 KCAL/MOL
REMARK 923 INTER-LIGAND FREE ENERGY PREDICTED BY IDOCK:   -9.73 KCAL/MOL
REMARK 924 INTRA-LIGAND FREE ENERGY PREDICTED BY IDOCK:   -0.91 KCAL/MOL
REMARK 927      BINDING AFFINITY PREDICTED BY RF-SCORE:    0.00 PKD
ROOT
HETATM    1  C   UNL     1      -6.244   3.678  63.280  1.00  0.00    -0.018 C  
HETATM    2  C   UNL     1      -7.558   4.108  63.970  1.00  0.00    -0.071 C  
HETATM    3  C   UNL     1      -7.489   3.625  65.436  1.00  0.00    -0.077 C  
HETATM    4  C   UNL     1      -8.714   3.377  63.254  1.00  0.00    -0.093 C  
ENDROOT
BRANCH   2   5
HETATM    5  C   UNL     1      -7.786   5.625  63.938  1.00  0.00    -0.112 A  
HETATM    6  C   UNL     1      -7.999   6.385  65.097  1.00  0.00    -0.116 A  
HETATM    7  C   UNL     1      -8.228   7.767  65.034  1.00  0.00    -0.123 A  
HETATM    8  C   UNL     1      -8.258   8.421  63.802  1.00  0.00    -0.106 A  
HETATM    9  C   UNL     1      -7.808   6.305  62.706  1.00  0.00    -0.099 A  
HETATM   10  C   UNL     1      -8.039   7.680  62.637  1.00  0.00    -0.105 A  
BRANCH   8  11
HETATM   11  C   UNL     1      -8.529   9.887  63.771  1.00  0.00    -0.181 C  
HETATM   12  O   UNL     1      -7.618  10.667  63.498  1.00  0.00    -0.021 OA 
BRANCH  11  13
HETATM   13  C   UNL     1      -9.938  10.352  64.082  1.00  0.00    -0.337 C  
BRANCH  13  14
HETATM   14  C   UNL     1     -10.082  11.865  63.954  1.00  0.00    -0.396 C  
BRANCH  14  15
HETATM   15  C   UNL     1     -11.538  12.325  64.063  1.00  0.00    -0.417 C  
BRANCH  15  16
HETATM   16  N   UNL     1     -12.118  12.308  65.415  1.00  0.00    -0.518 NA 
HETATM   17  C   UNL     1     -11.195  11.947  66.503  1.00  0.00    -0.327 C  
HETATM   18  C   UNL     1     -10.210  13.044  66.925  1.00  0.00    -0.244 C  
HETATM   19  C   UNL     1     -10.884  14.402  67.163  1.00  0.00    -0.292 C  
HETATM   20  C   UNL     1     -11.766  14.730  65.956  1.00  0.00    -0.248 C  
HETATM   21  C   UNL     1     -12.771  13.594  65.719  1.00  0.00    -0.416 C  
BRANCH  19  22
HETATM   22  O   UNL     1     -11.769  14.470  68.280  1.00  0.00    -0.312 OA 
BRANCH  22  23
HETATM   23  C   UNL     1     -11.759  15.618  69.134  1.00  0.00    -0.390 C  
BRANCH  23  24
HETATM   24  C   UNL     1     -10.374  16.255  69.003  1.00  0.00    -0.264 A  
HETATM   25  C   UNL     1      -9.203  15.550  69.346  1.00  0.00    -0.280 A  
HETATM   26  C   UNL     1      -7.943  16.137  69.207  1.00  0.00    -0.194 A  
HETATM   27  C   UNL     1     -10.241  17.569  68.533  1.00  0.00    -0.378 A  
HETATM   28  C   UNL     1      -7.833  17.439  68.724  1.00  0.00    -0.250 A  
HETATM   29  C   UNL     1      -8.981  18.155  68.393  1.00  0.00    -0.305 A  
ENDBRANCH  23  24
BRANCH  23  30
HETATM   30  C   UNL     1     -12.118  15.295  70.578  1.00  0.00    -0.395 A  
HETATM   31  C   UNL     1     -12.878  14.776  73.237  1.00  0.00    -0.621 A  
HETATM   32  C   UNL     1     -12.284  15.991  72.906  1.00  0.00    -0.621 A  
HETATM   33  C   UNL     1     -12.672  14.056  70.938  1.00  0.00    -0.420 A  
HETATM   34  C   UNL     1     -13.059  13.802  72.256  1.00  0.00    -0.500 A  
HETATM   35  C   UNL     1     -11.904  16.249  71.586  1.00  0.00    -0.482 A  
ENDBRANCH  23  30
ENDBRANCH  22  23
ENDBRANCH  19  22
ENDBRANCH  15  16
ENDBRANCH  14  15
ENDBRANCH  13  14
ENDBRANCH  11  13
ENDBRANCH   8  11
ENDBRANCH   2   5
TORSDOF 10
ENDMDL
MODEL       97
REMARK 921   NORMALIZED FREE ENERGY PREDICTED BY IDOCK:   -4.87 KCAL/MOL
REMARK 922        TOTAL FREE ENERGY PREDICTED BY IDOCK:  -10.64 KCAL/MOL
REMARK 923 INTER-LIGAND FREE ENERGY PREDICTED BY IDOCK:   -8.91 KCAL/MOL
REMARK 924 INTRA-LIGAND FREE ENERGY PREDICTED BY IDOCK:   -1.73 KCAL/MOL
REMARK 927      BINDING AFFINITY PREDICTED BY RF-SCORE:    0.00 PKD
ROOT
HETATM    1  C   UNL     1      -5.242   3.079  72.209  1.00  0.00     0.000 C  
HETATM    2  C   UNL     1      -6.298   2.996  71.085  1.00  0.00    -0.019 C  
HETATM    3  C   UNL     1      -6.528   1.500  70.777  1.00  0.00    -0.024 C  
HETATM    4  C   UNL     1      -5.697   3.679  69.837  1.00  0.00    -0.017 C  
ENDROOT
BRANCH   2   5
HETATM    5  C   UNL     1      -7.632   3.654  71.461  1.00  0.00    -0.056 A  
HETATM    6  C   UNL     1      -8.653   3.888  70.529  1.00  0.00    -0.108 A  
HETATM    7  C   UNL     1      -9.853   4.514  70.899  1.00  0.00    -0.269 A  
HETATM    8  C   UNL     1     -10.055   4.928  72.216  1.00  0.00    -0.247 A  
HETATM    9  C   UNL     1      -7.860   4.068  72.788  1.00  0.00    -0.079 A  
HETATM   10  C   UNL     1      -9.050   4.694  73.160  1.00  0.00    -0.122 A  
BRANCH   8  11
HETATM   11  C   UNL     1     -11.333   5.611  72.568  1.00  0.00    -0.294 C  
HETATM   12  O   UNL     1     -12.324   4.939  72.842  1.00  0.00     0.020 OA 
BRANCH  11  13
HETATM   13  C   UNL     1     -11.345   7.127  72.572  1.00  0.00    -0.318 C  
BRANCH  13  14
HETATM   14  C   UNL     1     -12.087   7.695  71.366  1.00  0.00    -0.342 C  
BRANCH  14  15
HETATM   15  C   UNL     1     -11.136   8.148  70.255  1.00  0.00    -0.221 C  
BRANCH  15  16
HETATM   16  N   UNL     1     -10.511   9.466  70.441  1.00  0.00    -0.235 NA 
HETATM   17  C   UNL     1      -9.884  10.051  69.245  1.00  0.00    -0.214 C  
HETATM   18  C   UNL     1     -10.854  10.643  68.214  1.00  0.00    -0.287 C  
HETATM   19  C   UNL     1     -11.901  11.576  68.836  1.00  0.00    -0.341 C  
HETATM   20  C   UNL     1     -12.550  10.863  70.025  1.00  0.00    -0.253 C  
HETATM   21  C   UNL     1     -11.470  10.422  71.023  1.00  0.00    -0.219 C  
BRANCH  19  22
HETATM   22  O   UNL     1     -11.402  12.797  69.382  1.00  0.00    -0.250 OA 
BRANCH  22  23
HETATM   23  C   UNL     1     -12.206  13.978  69.350  1.00  0.00    -0.292 C  
BRANCH  23  24
HETATM   24  C   UNL     1     -11.506  14.966  68.415  1.00  0.00    -0.338 A  
HETATM   25  C   UNL     1     -10.905  14.543  67.214  1.00  0.00    -0.297 A  
HETATM   26  C   UNL     1     -10.282  15.457  66.360  1.00  0.00    -0.296 A  
HETATM   27  C   UNL     1     -11.446  16.329  68.742  1.00  0.00    -0.289 A  
HETATM   28  C   UNL     1     -10.247  16.809  66.696  1.00  0.00    -0.310 A  
HETATM   29  C   UNL     1     -10.824  17.242  67.887  1.00  0.00    -0.283 A  
ENDBRANCH  23  24
BRANCH  23  30
HETATM   30  C   UNL     1     -12.466  14.565  70.731  1.00  0.00    -0.420 A  
HETATM   31  C   UNL     1     -12.987  15.539  73.319  1.00  0.00    -0.654 A  
HETATM   32  C   UNL     1     -14.040  15.276  72.448  1.00  0.00    -0.622 A  
HETATM   33  C   UNL     1     -11.413  14.883  71.604  1.00  0.00    -0.288 A  
HETATM   34  C   UNL     1     -11.672  15.357  72.892  1.00  0.00    -0.508 A  
HETATM   35  C   UNL     1     -13.783  14.794  71.161  1.00  0.00    -0.413 A  
ENDBRANCH  23  30
ENDBRANCH  22  23
ENDBRANCH  19  22
ENDBRANCH  15  16
ENDBRANCH  14  15
ENDBRANCH  13  14
ENDBRANCH  11  13
ENDBRANCH   8  11
ENDBRANCH   2   5
TORSDOF 10
ENDMDL
MODEL       98
REMARK 921   NORMALIZED FREE ENERGY PREDICTED BY IDOCK:   -4.86 KCAL/MOL
REMARK 922        TOTAL FREE ENERGY PREDICTED BY IDOCK:  -10.63 KCAL/MOL
REMARK 923 INTER-LIGAND FREE ENERGY PREDICTED BY IDOCK:   -9.10 KCAL/MOL
REMARK 924 INTRA-LIGAND FREE ENERGY PREDICTED BY IDOCK:   -1.53 KCAL/MOL
REMARK 927      BINDING AFFINITY PREDICTED BY RF-SCORE:    0.00 PKD
ROOT
HETATM    1  C   UNL     1     -10.294   6.700  74.088  1.00  0.00    -0.347 C  
HETATM    2  C   UNL     1     -10.049   5.497  73.152  1.00  0.00    -0.201 C  
HETATM    3  C   UNL     1     -11.216   4.506  73.358  1.00  0.00    -0.404 C  
HETATM    4  C   UNL     1      -8.734   4.824  73.601  1.00  0.00    -0.106 C  
ENDROOT
BRANCH   2   5
HETATM    5  C   UNL     1      -9.966   5.892  71.672  1.00  0.00    -0.213 A  
HETATM    6  C   UNL     1     -11.100   6.059  70.865  1.00  0.00    -0.352 A  
HETATM    7  C   UNL     1     -10.991   6.397  69.509  1.00  0.00    -0.421 A  
HETATM    8  C   UNL     1      -9.735   6.570  68.924  1.00  0.00    -0.134 A  
HETATM    9  C   UNL     1      -8.708   6.083  71.067  1.00  0.00    -0.132 A  
HETATM   10  C   UNL     1      -8.594   6.416  69.717  1.00  0.00    -0.138 A  
BRANCH   8  11
HETATM   11  C   UNL     1      -9.656   6.906  67.474  1.00  0.00    -0.128 C  
HETATM   12  O   UNL     1     -10.553   6.540  66.717  1.00  0.00    -0.260 OA 
BRANCH  11  13
HETATM   13  C   UNL     1      -8.454   7.697  66.996  1.00  0.00    -0.125 C  
BRANCH  13  14
HETATM   14  C   UNL     1      -8.676   8.293  65.610  1.00  0.00    -0.188 C  
BRANCH  14  15
HETATM   15  C   UNL     1      -8.856   9.813  65.649  1.00  0.00    -0.154 C  
BRANCH  15  16
HETATM   16  N   UNL     1     -10.103  10.297  66.259  1.00  0.00    -0.232 NA 
HETATM   17  C   UNL     1      -9.997  10.750  67.656  1.00  0.00    -0.173 C  
HETATM   18  C   UNL     1      -9.349  12.126  67.857  1.00  0.00    -0.192 C  
HETATM   19  C   UNL     1      -9.931  13.208  66.938  1.00  0.00    -0.245 C  
HETATM   20  C   UNL     1      -9.938  12.681  65.501  1.00  0.00    -0.237 C  
HETATM   21  C   UNL     1     -10.711  11.356  65.434  1.00  0.00    -0.253 C  
BRANCH  19  22
HETATM   22  O   UNL     1     -11.288  13.574  67.190  1.00  0.00    -0.298 OA 
BRANCH  22  23
HETATM   23  C   UNL     1     -11.587  14.796  67.870  1.00  0.00    -0.351 C  
BRANCH  23  24
HETATM   24  C   UNL     1     -10.326  15.660  67.802  1.00  0.00    -0.266 A  
HETATM   25  C   UNL     1      -9.500  15.849  68.927  1.00  0.00    -0.234 A  
HETATM   26  C   UNL     1      -8.343  16.627  68.849  1.00  0.00    -0.230 A  
HETATM   27  C   UNL     1      -9.964  16.291  66.602  1.00  0.00    -0.274 A  
HETATM   28  C   UNL     1      -7.994  17.232  67.643  1.00  0.00    -0.195 A  
HETATM   29  C   UNL     1      -8.806  17.068  66.524  1.00  0.00    -0.295 A  
ENDBRANCH  23  24
BRANCH  23  30
HETATM   30  C   UNL     1     -12.073  14.586  69.296  1.00  0.00    -0.325 A  
HETATM   31  C   UNL     1     -12.856  14.175  71.968  1.00  0.00    -0.423 A  
HETATM   32  C   UNL     1     -12.474  13.093  71.179  1.00  0.00    -0.378 A  
HETATM   33  C   UNL     1     -12.509  15.658  70.090  1.00  0.00    -0.311 A  
HETATM   34  C   UNL     1     -12.887  15.456  71.420  1.00  0.00    -0.508 A  
HETATM   35  C   UNL     1     -12.087  13.295  69.852  1.00  0.00    -0.377 A  
ENDBRANCH  23  30
ENDBRANCH  22  23
ENDBRANCH  19  22
ENDBRANCH  15  16
ENDBRANCH  14  15
ENDBRANCH  13  14
ENDBRANCH  11  13
ENDBRANCH   8  11
ENDBRANCH   2   5
TORSDOF 10
ENDMDL
MODEL       99
REMARK 921   NORMALIZED FREE ENERGY PREDICTED BY IDOCK:   -4.85 KCAL/MOL
REMARK 922        TOTAL FREE ENERGY PREDICTED BY IDOCK:  -10.62 KCAL/MOL
REMARK 923 INTER-LIGAND FREE ENERGY PREDICTED BY IDOCK:   -7.32 KCAL/MOL
REMARK 924 INTRA-LIGAND FREE ENERGY PREDICTED BY IDOCK:   -3.30 KCAL/MOL
REMARK 927      BINDING AFFINITY PREDICTED BY RF-SCORE:    0.00 PKD
ROOT
HETATM    1  C   UNL     1      -7.151  10.178  65.542  1.00  0.00    -0.138 C  
HETATM    2  C   UNL     1      -8.181   9.170  64.988  1.00  0.00    -0.150 C  
HETATM    3  C   UNL     1      -7.775   8.849  63.533  1.00  0.00    -0.128 C  
HETATM    4  C   UNL     1      -9.556   9.873  64.982  1.00  0.00    -0.364 C  
ENDROOT
BRANCH   2   5
HETATM    5  C   UNL     1      -8.251   7.871  65.801  1.00  0.00    -0.130 A  
HETATM    6  C   UNL     1      -9.401   7.071  65.858  1.00  0.00     0.067 A  
HETATM    7  C   UNL     1      -9.442   5.900  66.629  1.00  0.00    -0.165 A  
HETATM    8  C   UNL     1      -8.327   5.506  67.371  1.00  0.00    -0.103 A  
HETATM    9  C   UNL     1      -7.133   7.450  66.547  1.00  0.00    -0.074 A  
HETATM   10  C   UNL     1      -7.169   6.288  67.319  1.00  0.00    -0.078 A  
BRANCH   8  11
HETATM   11  C   UNL     1      -8.414   4.269  68.199  1.00  0.00    -0.094 C  
HETATM   12  O   UNL     1      -8.376   3.169  67.652  1.00  0.00    -0.079 OA 
BRANCH  11  13
HETATM   13  C   UNL     1      -8.548   4.432  69.701  1.00  0.00    -0.101 C  
BRANCH  13  14
HETATM   14  C   UNL     1      -9.136   5.788  70.079  1.00  0.00    -0.157 C  
BRANCH  14  15
HETATM   15  C   UNL     1      -8.102   6.716  70.720  1.00  0.00    -0.119 C  
BRANCH  15  16
HETATM   16  N   UNL     1      -8.600   8.027  71.163  1.00  0.00    -0.126 NA 
HETATM   17  C   UNL     1      -7.651   9.145  71.043  1.00  0.00    -0.096 C  
HETATM   18  C   UNL     1      -7.445   9.688  69.624  1.00  0.00    -0.102 C  
HETATM   19  C   UNL     1      -8.761   9.963  68.886  1.00  0.00    -0.140 C  
HETATM   20  C   UNL     1      -9.656   8.727  69.000  1.00  0.00    -0.162 C  
HETATM   21  C   UNL     1      -9.861   8.365  70.478  1.00  0.00    -0.184 C  
BRANCH  19  22
HETATM   22  O   UNL     1      -9.557  11.028  69.406  1.00  0.00    -0.060 OA 
BRANCH  22  23
HETATM   23  C   UNL     1     -10.910  11.190  68.973  1.00  0.00    -0.231 C  
BRANCH  23  24
HETATM   24  C   UNL     1     -10.869  12.038  67.701  1.00  0.00    -0.273 A  
HETATM   25  C   UNL     1      -9.815  12.938  67.448  1.00  0.00    -0.207 A  
HETATM   26  C   UNL     1      -9.781  13.695  66.275  1.00  0.00    -0.295 A  
HETATM   27  C   UNL     1     -11.894  11.936  66.749  1.00  0.00    -0.170 A  
HETATM   28  C   UNL     1     -10.802  13.567  65.335  1.00  0.00    -0.299 A  
HETATM   29  C   UNL     1     -11.859  12.692  65.575  1.00  0.00    -0.479 A  
ENDBRANCH  23  24
BRANCH  23  30
HETATM   30  C   UNL     1     -11.815  11.786  70.043  1.00  0.00    -0.422 A  
HETATM   31  C   UNL     1     -13.411  12.842  72.105  1.00  0.00    -0.619 A  
HETATM   32  C   UNL     1     -13.406  11.472  71.860  1.00  0.00    -0.408 A  
HETATM   33  C   UNL     1     -11.870  13.170  70.271  1.00  0.00    -0.299 A  
HETATM   34  C   UNL     1     -12.654  13.694  71.302  1.00  0.00    -0.435 A  
HETATM   35  C   UNL     1     -12.616  10.946  70.834  1.00  0.00    -0.494 A  
ENDBRANCH  23  30
ENDBRANCH  22  23
ENDBRANCH  19  22
ENDBRANCH  15  16
ENDBRANCH  14  15
ENDBRANCH  13  14
ENDBRANCH  11  13
ENDBRANCH   8  11
ENDBRANCH   2   5
TORSDOF 10
ENDMDL
MODEL      100
REMARK 921   NORMALIZED FREE ENERGY PREDICTED BY IDOCK:   -4.85 KCAL/MOL
REMARK 922        TOTAL FREE ENERGY PREDICTED BY IDOCK:  -10.62 KCAL/MOL
REMARK 923 INTER-LIGAND FREE ENERGY PREDICTED BY IDOCK:   -7.59 KCAL/MOL
REMARK 924 INTRA-LIGAND FREE ENERGY PREDICTED BY IDOCK:   -3.03 KCAL/MOL
REMARK 927      BINDING AFFINITY PREDICTED BY RF-SCORE:    0.00 PKD
ROOT
HETATM    1  C   UNL     1     -12.272  14.558  64.467  1.00  0.00    -0.483 C  
HETATM    2  C   UNL     1     -11.425  14.006  65.633  1.00  0.00    -0.319 C  
HETATM    3  C   UNL     1     -10.527  12.886  65.061  1.00  0.00    -0.337 C  
HETATM    4  C   UNL     1     -12.399  13.391  66.661  1.00  0.00    -0.324 C  
ENDROOT
BRANCH   2   5
HETATM    5  C   UNL     1     -10.550  15.074  66.302  1.00  0.00    -0.309 A  
HETATM    6  C   UNL     1      -9.587  15.815  65.603  1.00  0.00    -0.299 A  
HETATM    7  C   UNL     1      -8.786  16.769  66.248  1.00  0.00    -0.334 A  
HETATM    8  C   UNL     1      -8.928  16.999  67.617  1.00  0.00    -0.221 A  
HETATM    9  C   UNL     1     -10.686  15.329  67.681  1.00  0.00    -0.282 A  
HETATM   10  C   UNL     1      -9.889  16.275  68.328  1.00  0.00    -0.227 A  
BRANCH   8  11
HETATM   11  C   UNL     1      -8.043  18.003  68.274  1.00  0.00    -0.291 C  
HETATM   12  O   UNL     1      -8.266  19.202  68.118  1.00  0.00    -0.295 OA 
BRANCH  11  13
HETATM   13  C   UNL     1      -6.893  17.487  69.117  1.00  0.00    -0.232 C  
BRANCH  13  14
HETATM   14  C   UNL     1      -5.796  16.857  68.263  1.00  0.00    -0.129 C  
BRANCH  14  15
HETATM   15  C   UNL     1      -5.543  15.391  68.625  1.00  0.00    -0.093 C  
BRANCH  15  16
HETATM   16  N   UNL     1      -6.735  14.595  68.956  1.00  0.00    -0.096 NA 
HETATM   17  C   UNL     1      -7.212  13.689  67.899  1.00  0.00    -0.148 C  
HETATM   18  C   UNL     1      -6.393  12.407  67.709  1.00  0.00    -0.109 C  
HETATM   19  C   UNL     1      -6.114  11.668  69.024  1.00  0.00    -0.057 C  
HETATM   20  C   UNL     1      -5.556  12.668  70.040  1.00  0.00    -0.126 C  
HETATM   21  C   UNL     1      -6.530  13.842  70.206  1.00  0.00     0.004 C  
BRANCH  19  22
HETATM   22  O   UNL     1      -7.251  11.098  69.672  1.00  0.00    -0.110 OA 
BRANCH  22  23
HETATM   23  C   UNL     1      -7.502   9.694  69.576  1.00  0.00    -0.096 C  
BRANCH  23  24
HETATM   24  C   UNL     1      -8.510   9.501  68.442  1.00  0.00    -0.119 A  
HETATM   25  C   UNL     1      -8.383   8.447  67.515  1.00  0.00    -0.129 A  
HETATM   26  C   UNL     1      -9.319   8.272  66.493  1.00  0.00    -0.263 A  
HETATM   27  C   UNL     1      -9.593  10.380  68.300  1.00  0.00    -0.152 A  
HETATM   28  C   UNL     1     -10.396   9.148  66.379  1.00  0.00    -0.235 A  
HETATM   29  C   UNL     1     -10.529  10.204  67.278  1.00  0.00    -0.313 A  
ENDBRANCH  23  24
BRANCH  23  30
HETATM   30  C   UNL     1      -7.973   9.078  70.886  1.00  0.00    -0.194 A  
HETATM   31  C   UNL     1      -8.815   8.045  73.364  1.00  0.00    -0.334 A  
HETATM   32  C   UNL     1      -7.458   8.214  73.104  1.00  0.00    -0.175 A  
HETATM   33  C   UNL     1      -9.335   8.855  71.146  1.00  0.00    -0.326 A  
HETATM   34  C   UNL     1      -9.754   8.352  72.380  1.00  0.00    -0.376 A  
HETATM   35  C   UNL     1      -7.038   8.725  71.874  1.00  0.00    -0.057 A  
ENDBRANCH  23  30
ENDBRANCH  22  23
ENDBRANCH  19  22
ENDBRANCH  15  16
ENDBRANCH  14  15
ENDBRANCH  13  14
ENDBRANCH  11  13
ENDBRANCH   8  11
ENDBRANCH   2   5
TORSDOF 10
ENDMDL
MODEL      101
REMARK 921   NORMALIZED FREE ENERGY PREDICTED BY IDOCK:   -4.81 KCAL/MOL
REMARK 922        TOTAL FREE ENERGY PREDICTED BY IDOCK:  -10.55 KCAL/MOL
REMARK 923 INTER-LIGAND FREE ENERGY PREDICTED BY IDOCK:  -10.90 KCAL/MOL
REMARK 924 INTRA-LIGAND FREE ENERGY PREDICTED BY IDOCK:    0.35 KCAL/MOL
REMARK 927      BINDING AFFINITY PREDICTED BY RF-SCORE:    0.00 PKD
ROOT
HETATM    1  C   UNL     1      -7.931  19.009  66.626  1.00  0.00    -0.282 C  
HETATM    2  C   UNL     1      -9.456  18.776  66.708  1.00  0.00    -0.335 C  
HETATM    3  C   UNL     1     -10.144  19.969  66.008  1.00  0.00    -0.559 C  
HETATM    4  C   UNL     1      -9.843  18.779  68.203  1.00  0.00    -0.396 C  
ENDROOT
BRANCH   2   5
HETATM    5  C   UNL     1      -9.901  17.465  66.046  1.00  0.00    -0.201 A  
HETATM    6  C   UNL     1     -10.970  17.396  65.141  1.00  0.00     0.211 A  
HETATM    7  C   UNL     1     -11.368  16.179  64.570  1.00  0.00    -0.273 A  
HETATM    8  C   UNL     1     -10.707  14.995  64.901  1.00  0.00    -0.420 A  
HETATM    9  C   UNL     1      -9.239  16.262  66.358  1.00  0.00    -0.332 A  
HETATM   10  C   UNL     1      -9.634  15.047  65.796  1.00  0.00    -0.327 A  
BRANCH   8  11
HETATM   11  C   UNL     1     -11.174  13.715  64.294  1.00  0.00    -0.336 C  
HETATM   12  O   UNL     1     -12.348  13.601  63.949  1.00  0.00    -0.646 OA 
BRANCH  11  13
HETATM   13  C   UNL     1     -10.160  12.600  64.129  1.00  0.00    -0.293 C  
BRANCH  13  14
HETATM   14  C   UNL     1     -10.820  11.225  64.114  1.00  0.00    -0.407 C  
BRANCH  14  15
HETATM   15  C   UNL     1     -10.026  10.187  64.909  1.00  0.00    -0.288 C  
BRANCH  15  16
HETATM   16  N   UNL     1      -9.477  10.643  66.196  1.00  0.00    -0.173 NA 
HETATM   17  C   UNL     1     -10.166  11.788  66.814  1.00  0.00    -0.211 C  
HETATM   18  C   UNL     1     -11.507  11.468  67.485  1.00  0.00    -0.355 C  
HETATM   19  C   UNL     1     -11.439  10.257  68.423  1.00  0.00    -0.091 C  
HETATM   20  C   UNL     1     -10.776   9.095  67.678  1.00  0.00    -0.257 C  
HETATM   21  C   UNL     1      -9.399   9.528  67.156  1.00  0.00    -0.143 C  
BRANCH  19  22
HETATM   22  O   UNL     1     -10.648  10.423  69.600  1.00  0.00    -0.229 OA 
BRANCH  22  23
HETATM   23  C   UNL     1     -11.280  10.620  70.867  1.00  0.00     0.163 C  
BRANCH  23  24
HETATM   24  C   UNL     1     -12.130   9.377  71.136  1.00  0.00    -0.406 A  
HETATM   25  C   UNL     1     -11.562   8.088  71.164  1.00  0.00    -0.307 A  
HETATM   26  C   UNL     1     -12.345   6.962  71.426  1.00  0.00    -0.421 A  
HETATM   27  C   UNL     1     -13.509   9.497  71.363  1.00  0.00    -0.405 A  
HETATM   28  C   UNL     1     -13.710   7.105  71.663  1.00  0.00    -0.406 A  
HETATM   29  C   UNL     1     -14.291   8.370  71.626  1.00  0.00    -0.536 A  
ENDBRANCH  23  24
BRANCH  23  30
HETATM   30  C   UNL     1     -12.090  11.907  70.940  1.00  0.00    -0.237 A  
HETATM   31  C   UNL     1     -13.531  14.311  71.184  1.00  0.00    -0.335 A  
HETATM   32  C   UNL     1     -13.856  13.220  71.986  1.00  0.00    -0.452 A  
HETATM   33  C   UNL     1     -11.809  13.001  70.106  1.00  0.00    -0.324 A  
HETATM   34  C   UNL     1     -12.518  14.198  70.234  1.00  0.00    -0.416 A  
HETATM   35  C   UNL     1     -13.142  12.024  71.864  1.00  0.00    -0.475 A  
ENDBRANCH  23  30
ENDBRANCH  22  23
ENDBRANCH  19  22
ENDBRANCH  15  16
ENDBRANCH  14  15
ENDBRANCH  13  14
ENDBRANCH  11  13
ENDBRANCH   8  11
ENDBRANCH   2   5
TORSDOF 10
ENDMDL
MODEL      102
REMARK 921   NORMALIZED FREE ENERGY PREDICTED BY IDOCK:   -4.81 KCAL/MOL
REMARK 922        TOTAL FREE ENERGY PREDICTED BY IDOCK:  -10.55 KCAL/MOL
REMARK 923 INTER-LIGAND FREE ENERGY PREDICTED BY IDOCK:   -8.82 KCAL/MOL
REMARK 924 INTRA-LIGAND FREE ENERGY PREDICTED BY IDOCK:   -1.73 KCAL/MOL
REMARK 927      BINDING AFFINITY PREDICTED BY RF-SCORE:    0.00 PKD
ROOT
HETATM    1  C   UNL     1      -8.926  19.809  66.268  1.00  0.00    -0.431 C  
HETATM    2  C   UNL     1      -9.314  19.120  67.594  1.00  0.00    -0.357 C  
HETATM    3  C   UNL     1     -10.301  20.054  68.329  1.00  0.00    -0.494 C  
HETATM    4  C   UNL     1      -8.027  18.986  68.438  1.00  0.00    -0.375 C  
ENDROOT
BRANCH   2   5
HETATM    5  C   UNL     1      -9.963  17.744  67.392  1.00  0.00    -0.323 A  
HETATM    6  C   UNL     1      -9.813  17.000  66.213  1.00  0.00    -0.310 A  
HETATM    7  C   UNL     1     -10.438  15.755  66.048  1.00  0.00    -0.350 A  
HETATM    8  C   UNL     1     -11.238  15.229  67.064  1.00  0.00    -0.275 A  
HETATM    9  C   UNL     1     -10.763  17.190  68.409  1.00  0.00    -0.347 A  
HETATM   10  C   UNL     1     -11.391  15.954  68.249  1.00  0.00    -0.342 A  
BRANCH   8  11
HETATM   11  C   UNL     1     -11.907  13.914  66.845  1.00  0.00    -0.423 C  
HETATM   12  O   UNL     1     -12.645  13.764  65.873  1.00  0.00    -0.472 OA 
BRANCH  11  13
HETATM   13  C   UNL     1     -11.640  12.809  67.848  1.00  0.00    -0.400 C  
BRANCH  13  14
HETATM   14  C   UNL     1     -11.248  11.502  67.167  1.00  0.00    -0.365 C  
BRANCH  14  15
HETATM   15  C   UNL     1     -11.160  10.334  68.152  1.00  0.00    -0.264 C  
BRANCH  15  16
HETATM   16  N   UNL     1     -10.101   9.347  67.887  1.00  0.00    -0.183 NA 
HETATM   17  C   UNL     1      -8.887   9.476  68.710  1.00  0.00    -0.132 C  
HETATM   18  C   UNL     1      -9.012   8.974  70.154  1.00  0.00    -0.200 C  
HETATM   19  C   UNL     1      -9.637   7.576  70.255  1.00  0.00    -0.165 C  
HETATM   20  C   UNL     1     -10.926   7.553  69.430  1.00  0.00    -0.099 C  
HETATM   21  C   UNL     1     -10.629   7.975  67.984  1.00  0.00    -0.128 C  
BRANCH  19  22
HETATM   22  O   UNL     1      -8.856   6.505  69.725  1.00  0.00    -0.141 OA 
BRANCH  22  23
HETATM   23  C   UNL     1      -8.369   5.476  70.590  1.00  0.00    -0.117 C  
BRANCH  23  24
HETATM   24  C   UNL     1      -8.492   4.158  69.823  1.00  0.00    -0.087 A  
HETATM   25  C   UNL     1      -7.887   2.974  70.290  1.00  0.00    -0.047 A  
HETATM   26  C   UNL     1      -8.020   1.773  69.589  1.00  0.00    -0.052 A  
HETATM   27  C   UNL     1      -9.217   4.102  68.624  1.00  0.00    -0.203 A  
HETATM   28  C   UNL     1      -8.757   1.736  68.408  1.00  0.00    -0.108 A  
HETATM   29  C   UNL     1      -9.350   2.900  67.924  1.00  0.00    -0.256 A  
ENDBRANCH  23  24
BRANCH  23  30
HETATM   30  C   UNL     1      -9.081   5.436  71.935  1.00  0.00    -0.151 A  
HETATM   31  C   UNL     1     -10.390   5.239  74.418  1.00  0.00    -0.302 A  
HETATM   32  C   UNL     1     -11.066   4.913  73.245  1.00  0.00    -0.410 A  
HETATM   33  C   UNL     1      -8.430   5.809  73.122  1.00  0.00    -0.117 A  
HETATM   34  C   UNL     1      -9.076   5.702  74.356  1.00  0.00    -0.123 A  
HETATM   35  C   UNL     1     -10.418   5.012  72.012  1.00  0.00    -0.269 A  
ENDBRANCH  23  30
ENDBRANCH  22  23
ENDBRANCH  19  22
ENDBRANCH  15  16
ENDBRANCH  14  15
ENDBRANCH  13  14
ENDBRANCH  11  13
ENDBRANCH   8  11
ENDBRANCH   2   5
TORSDOF 10
ENDMDL
MODEL      103
REMARK 921   NORMALIZED FREE ENERGY PREDICTED BY IDOCK:   -4.80 KCAL/MOL
REMARK 922        TOTAL FREE ENERGY PREDICTED BY IDOCK:  -10.53 KCAL/MOL
REMARK 923 INTER-LIGAND FREE ENERGY PREDICTED BY IDOCK:   -8.09 KCAL/MOL
REMARK 924 INTRA-LIGAND FREE ENERGY PREDICTED BY IDOCK:   -2.44 KCAL/MOL
REMARK 927      BINDING AFFINITY PREDICTED BY RF-SCORE:    0.00 PKD
ROOT
HETATM    1  C   UNL     1      -6.937   3.876  67.756  1.00  0.00    -0.055 C  
HETATM    2  C   UNL     1      -7.774   2.834  68.531  1.00  0.00    -0.054 C  
HETATM    3  C   UNL     1      -6.850   1.635  68.837  1.00  0.00    -0.029 C  
HETATM    4  C   UNL     1      -8.910   2.367  67.595  1.00  0.00    -0.164 C  
ENDROOT
BRANCH   2   5
HETATM    5  C   UNL     1      -8.355   3.382  69.841  1.00  0.00    -0.081 A  
HETATM    6  C   UNL     1      -9.583   4.057  69.904  1.00  0.00    -0.281 A  
HETATM    7  C   UNL     1     -10.077   4.568  71.114  1.00  0.00    -0.218 A  
HETATM    8  C   UNL     1      -9.345   4.419  72.292  1.00  0.00    -0.168 A  
HETATM    9  C   UNL     1      -7.638   3.232  71.043  1.00  0.00    -0.040 A  
HETATM   10  C   UNL     1      -8.123   3.741  72.249  1.00  0.00    -0.077 A  
BRANCH   8  11
HETATM   11  C   UNL     1      -9.889   4.996  73.555  1.00  0.00    -0.151 C  
HETATM   12  O   UNL     1     -10.569   4.292  74.299  1.00  0.00    -0.240 OA 
BRANCH  11  13
HETATM   13  C   UNL     1      -9.570   6.445  73.865  1.00  0.00    -0.199 C  
BRANCH  13  14
HETATM   14  C   UNL     1     -10.745   7.368  73.556  1.00  0.00    -0.347 C  
BRANCH  14  15
HETATM   15  C   UNL     1     -10.399   8.419  72.499  1.00  0.00    -0.301 C  
BRANCH  15  16
HETATM   16  N   UNL     1     -11.107   8.298  71.215  1.00  0.00    -0.244 NA 
HETATM   17  C   UNL     1     -12.121   9.330  70.944  1.00  0.00    -0.233 C  
HETATM   18  C   UNL     1     -11.573  10.701  70.528  1.00  0.00    -0.444 C  
HETATM   19  C   UNL     1     -10.520  10.617  69.416  1.00  0.00    -0.225 C  
HETATM   20  C   UNL     1      -9.470   9.576  69.812  1.00  0.00    -0.228 C  
HETATM   21  C   UNL     1     -10.151   8.230  70.095  1.00  0.00    -0.191 C  
BRANCH  19  22
HETATM   22  O   UNL     1     -10.991  10.181  68.142  1.00  0.00    -0.255 OA 
BRANCH  22  23
HETATM   23  C   UNL     1     -10.070   9.977  67.067  1.00  0.00    -0.219 C  
BRANCH  23  24
HETATM   24  C   UNL     1     -10.563  10.824  65.893  1.00  0.00    -0.216 A  
HETATM   25  C   UNL     1     -10.000  10.701  64.608  1.00  0.00    -0.401 A  
HETATM   26  C   UNL     1     -10.471  11.469  63.539  1.00  0.00    -0.486 A  
HETATM   27  C   UNL     1     -11.599  11.753  66.076  1.00  0.00    -0.206 A  
HETATM   28  C   UNL     1     -11.510  12.375  63.740  1.00  0.00    -0.544 A  
HETATM   29  C   UNL     1     -12.069  12.520  65.007  1.00  0.00    -0.504 A  
ENDBRANCH  23  24
BRANCH  23  30
HETATM   30  C   UNL     1      -9.896   8.511  66.697  1.00  0.00    -0.342 A  
HETATM   31  C   UNL     1      -9.494   5.790  66.105  1.00  0.00    -0.144 A  
HETATM   32  C   UNL     1      -8.504   6.722  65.804  1.00  0.00    -0.150 A  
HETATM   33  C   UNL     1     -10.902   7.565  66.947  1.00  0.00    -0.174 A  
HETATM   34  C   UNL     1     -10.699   6.213  66.663  1.00  0.00    -0.301 A  
HETATM   35  C   UNL     1      -8.703   8.074  66.095  1.00  0.00    -0.177 A  
ENDBRANCH  23  30
ENDBRANCH  22  23
ENDBRANCH  19  22
ENDBRANCH  15  16
ENDBRANCH  14  15
ENDBRANCH  13  14
ENDBRANCH  11  13
ENDBRANCH   8  11
ENDBRANCH   2   5
TORSDOF 10
ENDMDL
MODEL      104
REMARK 921   NORMALIZED FREE ENERGY PREDICTED BY IDOCK:   -4.79 KCAL/MOL
REMARK 922        TOTAL FREE ENERGY PREDICTED BY IDOCK:  -10.52 KCAL/MOL
REMARK 923 INTER-LIGAND FREE ENERGY PREDICTED BY IDOCK:   -8.54 KCAL/MOL
REMARK 924 INTRA-LIGAND FREE ENERGY PREDICTED BY IDOCK:   -1.97 KCAL/MOL
REMARK 927      BINDING AFFINITY PREDICTED BY RF-SCORE:    0.00 PKD
ROOT
HETATM    1  C   UNL     1     -11.464   6.504  70.217  1.00  0.00    -0.474 C  
HETATM    2  C   UNL     1      -9.956   6.334  69.930  1.00  0.00    -0.206 C  
HETATM    3  C   UNL     1      -9.665   4.818  69.867  1.00  0.00    -0.274 C  
HETATM    4  C   UNL     1      -9.188   6.943  71.122  1.00  0.00    -0.154 C  
ENDROOT
BRANCH   2   5
HETATM    5  C   UNL     1      -9.514   6.997  68.618  1.00  0.00    -0.135 A  
HETATM    6  C   UNL     1      -8.396   6.568  67.889  1.00  0.00    -0.115 A  
HETATM    7  C   UNL     1      -8.004   7.210  66.705  1.00  0.00    -0.108 A  
HETATM    8  C   UNL     1      -8.722   8.306  66.226  1.00  0.00    -0.173 A  
HETATM    9  C   UNL     1     -10.233   8.097  68.112  1.00  0.00    -0.253 A  
HETATM   10  C   UNL     1      -9.845   8.741  66.937  1.00  0.00    -0.295 A  
BRANCH   8  11
HETATM   11  C   UNL     1      -8.262   8.979  64.978  1.00  0.00    -0.153 C  
HETATM   12  O   UNL     1      -8.642   8.558  63.887  1.00  0.00    -0.087 OA 
BRANCH  11  13
HETATM   13  C   UNL     1      -7.333  10.169  65.118  1.00  0.00    -0.141 C  
BRANCH  13  14
HETATM   14  C   UNL     1      -6.960  10.435  66.573  1.00  0.00    -0.112 C  
BRANCH  14  15
HETATM   15  C   UNL     1      -6.719  11.920  66.852  1.00  0.00    -0.076 C  
BRANCH  15  16
HETATM   16  N   UNL     1      -7.622  12.546  67.830  1.00  0.00    -0.125 NA 
HETATM   17  C   UNL     1      -7.340  13.955  68.149  1.00  0.00    -0.123 C  
HETATM   18  C   UNL     1      -7.768  14.972  67.084  1.00  0.00    -0.202 C  
HETATM   19  C   UNL     1      -9.207  14.765  66.594  1.00  0.00    -0.275 C  
HETATM   20  C   UNL     1      -9.389  13.293  66.217  1.00  0.00    -0.134 C  
HETATM   21  C   UNL     1      -9.028  12.399  67.411  1.00  0.00    -0.185 C  
BRANCH  19  22
HETATM   22  O   UNL     1     -10.234  15.018  67.552  1.00  0.00    -0.232 OA 
BRANCH  22  23
HETATM   23  C   UNL     1      -9.976  15.867  68.673  1.00  0.00    -0.214 C  
BRANCH  23  24
HETATM   24  C   UNL     1     -11.068  15.582  69.705  1.00  0.00    -0.300 A  
HETATM   25  C   UNL     1     -12.032  14.576  69.499  1.00  0.00    -0.363 A  
HETATM   26  C   UNL     1     -13.015  14.314  70.456  1.00  0.00    -0.259 A  
HETATM   27  C   UNL     1     -11.134  16.329  70.891  1.00  0.00    -0.161 A  
HETATM   28  C   UNL     1     -13.053  15.057  71.634  1.00  0.00    -0.447 A  
HETATM   29  C   UNL     1     -12.117  16.066  71.848  1.00  0.00    -0.590 A  
ENDBRANCH  23  24
BRANCH  23  30
HETATM   30  C   UNL     1      -9.892  17.341  68.303  1.00  0.00    -0.304 A  
HETATM   31  C   UNL     1      -9.827  20.089  67.702  1.00  0.00    -0.548 A  
HETATM   32  C   UNL     1     -10.895  19.306  67.271  1.00  0.00    -0.554 A  
HETATM   33  C   UNL     1      -8.800  18.135  68.687  1.00  0.00    -0.277 A  
HETATM   34  C   UNL     1      -8.772  19.501  68.397  1.00  0.00    -0.389 A  
HETATM   35  C   UNL     1     -10.928  17.941  67.567  1.00  0.00    -0.104 A  
ENDBRANCH  23  30
ENDBRANCH  22  23
ENDBRANCH  19  22
ENDBRANCH  15  16
ENDBRANCH  14  15
ENDBRANCH  13  14
ENDBRANCH  11  13
ENDBRANCH   8  11
ENDBRANCH   2   5
TORSDOF 10
ENDMDL
MODEL      105
REMARK 921   NORMALIZED FREE ENERGY PREDICTED BY IDOCK:   -4.79 KCAL/MOL
REMARK 922        TOTAL FREE ENERGY PREDICTED BY IDOCK:  -10.52 KCAL/MOL
REMARK 923 INTER-LIGAND FREE ENERGY PREDICTED BY IDOCK:   -7.44 KCAL/MOL
REMARK 924 INTRA-LIGAND FREE ENERGY PREDICTED BY IDOCK:   -3.08 KCAL/MOL
REMARK 927      BINDING AFFINITY PREDICTED BY RF-SCORE:    0.00 PKD
ROOT
HETATM    1  C   UNL     1     -12.932   7.176  71.339  1.00  0.00    -0.419 C  
HETATM    2  C   UNL     1     -11.521   6.570  71.495  1.00  0.00    -0.351 C  
HETATM    3  C   UNL     1     -11.598   5.498  72.604  1.00  0.00    -0.293 C  
HETATM    4  C   UNL     1     -10.581   7.704  71.957  1.00  0.00    -0.264 C  
ENDROOT
BRANCH   2   5
HETATM    5  C   UNL     1     -10.992   5.934  70.202  1.00  0.00    -0.412 A  
HETATM    6  C   UNL     1      -9.991   4.952  70.192  1.00  0.00    -0.325 A  
HETATM    7  C   UNL     1      -9.512   4.407  68.992  1.00  0.00    -0.237 A  
HETATM    8  C   UNL     1     -10.022   4.841  67.767  1.00  0.00    -0.169 A  
HETATM    9  C   UNL     1     -11.502   6.350  68.957  1.00  0.00    -0.203 A  
HETATM   10  C   UNL     1     -11.026   5.814  67.759  1.00  0.00    -0.138 A  
BRANCH   8  11
HETATM   11  C   UNL     1      -9.471   4.257  66.510  1.00  0.00    -0.185 C  
HETATM   12  O   UNL     1      -9.424   3.035  66.380  1.00  0.00    -0.119 OA 
BRANCH  11  13
HETATM   13  C   UNL     1      -8.990   5.214  65.438  1.00  0.00    -0.157 C  
BRANCH  13  14
HETATM   14  C   UNL     1      -7.649   5.847  65.797  1.00  0.00    -0.087 C  
BRANCH  14  15
HETATM   15  C   UNL     1      -7.535   7.292  65.307  1.00  0.00    -0.089 C  
BRANCH  15  16
HETATM   16  N   UNL     1      -7.323   8.309  66.349  1.00  0.00    -0.079 NA 
HETATM   17  C   UNL     1      -6.751   9.585  65.889  1.00  0.00    -0.082 C  
HETATM   18  C   UNL     1      -7.723  10.519  65.157  1.00  0.00    -0.062 C  
HETATM   19  C   UNL     1      -9.051  10.712  65.902  1.00  0.00    -0.180 C  
HETATM   20  C   UNL     1      -9.608   9.337  66.278  1.00  0.00    -0.313 C  
HETATM   21  C   UNL     1      -8.568   8.559  67.097  1.00  0.00    -0.122 C  
BRANCH  19  22
HETATM   22  O   UNL     1      -8.973  11.417  67.141  1.00  0.00    -0.156 OA 
BRANCH  22  23
HETATM   23  C   UNL     1      -9.825  12.539  67.382  1.00  0.00    -0.201 C  
BRANCH  23  24
HETATM   24  C   UNL     1      -8.914  13.750  67.594  1.00  0.00    -0.194 A  
HETATM   25  C   UNL     1      -7.856  13.722  68.524  1.00  0.00    -0.132 A  
HETATM   26  C   UNL     1      -7.020  14.828  68.697  1.00  0.00    -0.110 A  
HETATM   27  C   UNL     1      -9.117  14.926  66.858  1.00  0.00    -0.271 A  
HETATM   28  C   UNL     1      -7.231  15.981  67.945  1.00  0.00    -0.147 A  
HETATM   29  C   UNL     1      -8.280  16.031  67.030  1.00  0.00    -0.255 A  
ENDBRANCH  23  24
BRANCH  23  30
HETATM   30  C   UNL     1     -10.788  12.324  68.542  1.00  0.00    -0.267 A  
HETATM   31  C   UNL     1     -12.472  11.940  70.763  1.00  0.00    -0.384 A  
HETATM   32  C   UNL     1     -11.581  10.940  70.383  1.00  0.00    -0.418 A  
HETATM   33  C   UNL     1     -11.726  13.301  68.909  1.00  0.00    -0.369 A  
HETATM   34  C   UNL     1     -12.555  13.115  70.018  1.00  0.00    -0.014 A  
HETATM   35  C   UNL     1     -10.746  11.128  69.279  1.00  0.00    -0.241 A  
ENDBRANCH  23  30
ENDBRANCH  22  23
ENDBRANCH  19  22
ENDBRANCH  15  16
ENDBRANCH  14  15
ENDBRANCH  13  14
ENDBRANCH  11  13
ENDBRANCH   8  11
ENDBRANCH   2   5
TORSDOF 10
ENDMDL
MODEL      106
REMARK 921   NORMALIZED FREE ENERGY PREDICTED BY IDOCK:   -4.79 KCAL/MOL
REMARK 922        TOTAL FREE ENERGY PREDICTED BY IDOCK:  -10.51 KCAL/MOL
REMARK 923 INTER-LIGAND FREE ENERGY PREDICTED BY IDOCK:   -8.81 KCAL/MOL
REMARK 924 INTRA-LIGAND FREE ENERGY PREDICTED BY IDOCK:   -1.71 KCAL/MOL
REMARK 927      BINDING AFFINITY PREDICTED BY RF-SCORE:    0.00 PKD
ROOT
HETATM    1  C   UNL     1      -8.061  18.204  66.406  1.00  0.00    -0.291 C  
HETATM    2  C   UNL     1      -9.492  17.818  66.841  1.00  0.00    -0.271 C  
HETATM    3  C   UNL     1     -10.400  19.040  66.579  1.00  0.00    -0.512 C  
HETATM    4  C   UNL     1      -9.453  17.537  68.359  1.00  0.00    -0.292 C  
ENDROOT
BRANCH   2   5
HETATM    5  C   UNL     1     -10.042  16.598  66.089  1.00  0.00    -0.361 A  
HETATM    6  C   UNL     1     -10.976  16.705  65.049  1.00  0.00    -0.172 A  
HETATM    7  C   UNL     1     -11.479  15.570  64.396  1.00  0.00    -0.264 A  
HETATM    8  C   UNL     1     -11.060  14.295  64.778  1.00  0.00    -0.398 A  
HETATM    9  C   UNL     1      -9.623  15.304  66.451  1.00  0.00    -0.317 A  
HETATM   10  C   UNL     1     -10.122  14.171  65.807  1.00  0.00    -0.352 A  
BRANCH   8  11
HETATM   11  C   UNL     1     -11.633  13.109  64.078  1.00  0.00    -0.428 C  
HETATM   12  O   UNL     1     -12.853  12.988  63.991  1.00  0.00    -0.657 OA 
BRANCH  11  13
HETATM   13  C   UNL     1     -10.667  12.095  63.499  1.00  0.00    -0.509 C  
BRANCH  13  14
HETATM   14  C   UNL     1     -10.555  10.848  64.372  1.00  0.00    -0.343 C  
BRANCH  14  15
HETATM   15  C   UNL     1      -9.103  10.414  64.586  1.00  0.00    -0.222 C  
BRANCH  15  16
HETATM   16  N   UNL     1      -8.699  10.190  65.983  1.00  0.00    -0.137 NA 
HETATM   17  C   UNL     1      -9.794  10.127  66.964  1.00  0.00    -0.191 C  
HETATM   18  C   UNL     1     -10.596   8.819  66.974  1.00  0.00    -0.283 C  
HETATM   19  C   UNL     1      -9.711   7.568  67.011  1.00  0.00    -0.198 C  
HETATM   20  C   UNL     1      -8.647   7.685  65.916  1.00  0.00    -0.164 C  
HETATM   21  C   UNL     1      -7.854   8.988  66.096  1.00  0.00    -0.102 C  
BRANCH  19  22
HETATM   22  O   UNL     1      -8.965   7.368  68.212  1.00  0.00    -0.131 OA 
BRANCH  22  23
HETATM   23  C   UNL     1      -9.164   8.234  69.332  1.00  0.00    -0.155 C  
BRANCH  23  24
HETATM   24  C   UNL     1      -7.799   8.831  69.678  1.00  0.00    -0.090 A  
HETATM   25  C   UNL     1      -7.665  10.169  70.100  1.00  0.00    -0.086 A  
HETATM   26  C   UNL     1      -6.415  10.699  70.429  1.00  0.00    -0.102 A  
HETATM   27  C   UNL     1      -6.638   8.050  69.579  1.00  0.00    -0.038 A  
HETATM   28  C   UNL     1      -5.277   9.900  70.338  1.00  0.00    -0.042 A  
HETATM   29  C   UNL     1      -5.389   8.580  69.909  1.00  0.00    -0.029 A  
ENDBRANCH  23  24
BRANCH  23  30
HETATM   30  C   UNL     1      -9.814   7.539  70.520  1.00  0.00    -0.183 A  
HETATM   31  C   UNL     1     -11.117   6.324  72.698  1.00  0.00    -0.298 A  
HETATM   32  C   UNL     1     -10.636   7.626  72.811  1.00  0.00    -0.381 A  
HETATM   33  C   UNL     1     -10.261   6.210  70.440  1.00  0.00    -0.256 A  
HETATM   34  C   UNL     1     -10.917   5.610  71.518  1.00  0.00    -0.268 A  
HETATM   35  C   UNL     1      -9.987   8.230  71.731  1.00  0.00    -0.284 A  
ENDBRANCH  23  30
ENDBRANCH  22  23
ENDBRANCH  19  22
ENDBRANCH  15  16
ENDBRANCH  14  15
ENDBRANCH  13  14
ENDBRANCH  11  13
ENDBRANCH   8  11
ENDBRANCH   2   5
TORSDOF 10
ENDMDL
MODEL      107
REMARK 921   NORMALIZED FREE ENERGY PREDICTED BY IDOCK:   -4.78 KCAL/MOL
REMARK 922        TOTAL FREE ENERGY PREDICTED BY IDOCK:  -10.50 KCAL/MOL
REMARK 923 INTER-LIGAND FREE ENERGY PREDICTED BY IDOCK:   -8.88 KCAL/MOL
REMARK 924 INTRA-LIGAND FREE ENERGY PREDICTED BY IDOCK:   -1.62 KCAL/MOL
REMARK 927      BINDING AFFINITY PREDICTED BY RF-SCORE:    0.00 PKD
ROOT
HETATM    1  C   UNL     1      -8.186  19.474  66.674  1.00  0.00    -0.329 C  
HETATM    2  C   UNL     1      -8.892  18.521  67.663  1.00  0.00    -0.284 C  
HETATM    3  C   UNL     1      -9.897  19.364  68.480  1.00  0.00    -0.509 C  
HETATM    4  C   UNL     1      -7.813  17.964  68.617  1.00  0.00    -0.294 C  
ENDROOT
BRANCH   2   5
HETATM    5  C   UNL     1      -9.633  17.371  66.968  1.00  0.00    -0.273 A  
HETATM    6  C   UNL     1     -10.269  17.517  65.727  1.00  0.00    -0.184 A  
HETATM    7  C   UNL     1     -10.958  16.453  65.127  1.00  0.00    -0.242 A  
HETATM    8  C   UNL     1     -11.033  15.214  65.765  1.00  0.00    -0.350 A  
HETATM    9  C   UNL     1      -9.710  16.110  67.589  1.00  0.00    -0.233 A  
HETATM   10  C   UNL     1     -10.398  15.048  66.999  1.00  0.00    -0.269 A  
BRANCH   8  11
HETATM   11  C   UNL     1     -11.795  14.112  65.109  1.00  0.00    -0.372 C  
HETATM   12  O   UNL     1     -13.009  14.028  65.283  1.00  0.00    -0.743 OA 
BRANCH  11  13
HETATM   13  C   UNL     1     -11.022  13.134  64.246  1.00  0.00    -0.428 C  
BRANCH  13  14
HETATM   14  C   UNL     1     -10.830  11.789  64.939  1.00  0.00    -0.353 C  
BRANCH  14  15
HETATM   15  C   UNL     1      -9.419  11.619  65.506  1.00  0.00    -0.195 C  
BRANCH  15  16
HETATM   16  N   UNL     1      -9.337  11.189  66.910  1.00  0.00    -0.173 NA 
HETATM   17  C   UNL     1     -10.479  10.404  67.406  1.00  0.00    -0.249 C  
HETATM   18  C   UNL     1     -10.524   8.941  66.947  1.00  0.00    -0.304 C  
HETATM   19  C   UNL     1      -9.190   8.208  67.136  1.00  0.00    -0.145 C  
HETATM   20  C   UNL     1      -8.071   9.059  66.531  1.00  0.00    -0.111 C  
HETATM   21  C   UNL     1      -8.081  10.459  67.161  1.00  0.00    -0.115 C  
BRANCH  19  22
HETATM   22  O   UNL     1      -8.783   7.993  68.488  1.00  0.00    -0.131 OA 
BRANCH  22  23
HETATM   23  C   UNL     1      -8.766   6.670  69.030  1.00  0.00    -0.129 C  
BRANCH  23  24
HETATM   24  C   UNL     1      -8.984   5.709  67.860  1.00  0.00    -0.108 A  
HETATM   25  C   UNL     1      -7.901   5.120  67.179  1.00  0.00    -0.096 A  
HETATM   26  C   UNL     1      -8.113   4.231  66.122  1.00  0.00    -0.102 A  
HETATM   27  C   UNL     1     -10.283   5.392  67.437  1.00  0.00    -0.247 A  
HETATM   28  C   UNL     1      -9.412   3.919  65.728  1.00  0.00    -0.178 A  
HETATM   29  C   UNL     1     -10.495   4.502  66.381  1.00  0.00    -0.102 A  
ENDBRANCH  23  24
BRANCH  23  30
HETATM   30  C   UNL     1      -9.779   6.467  70.148  1.00  0.00    -0.180 A  
HETATM   31  C   UNL     1     -11.734   6.056  72.130  1.00  0.00    -0.335 A  
HETATM   32  C   UNL     1     -11.826   7.152  71.277  1.00  0.00    -0.355 A  
HETATM   33  C   UNL     1      -9.674   5.396  71.049  1.00  0.00    -0.235 A  
HETATM   34  C   UNL     1     -10.650   5.185  72.027  1.00  0.00    -0.266 A  
HETATM   35  C   UNL     1     -10.855   7.359  70.293  1.00  0.00    -0.260 A  
ENDBRANCH  23  30
ENDBRANCH  22  23
ENDBRANCH  19  22
ENDBRANCH  15  16
ENDBRANCH  14  15
ENDBRANCH  13  14
ENDBRANCH  11  13
ENDBRANCH   8  11
ENDBRANCH   2   5
TORSDOF 10
ENDMDL
MODEL      108
REMARK 921   NORMALIZED FREE ENERGY PREDICTED BY IDOCK:   -4.78 KCAL/MOL
REMARK 922        TOTAL FREE ENERGY PREDICTED BY IDOCK:  -10.50 KCAL/MOL
REMARK 923 INTER-LIGAND FREE ENERGY PREDICTED BY IDOCK:   -8.53 KCAL/MOL
REMARK 924 INTRA-LIGAND FREE ENERGY PREDICTED BY IDOCK:   -1.97 KCAL/MOL
REMARK 927      BINDING AFFINITY PREDICTED BY RF-SCORE:    0.00 PKD
ROOT
HETATM    1  C   UNL     1      -8.511  19.178  66.540  1.00  0.00    -0.324 C  
HETATM    2  C   UNL     1      -9.985  18.724  66.457  1.00  0.00    -0.415 C  
HETATM    3  C   UNL     1     -10.708  19.678  65.480  1.00  0.00    -0.323 C  
HETATM    4  C   UNL     1     -10.598  18.888  67.864  1.00  0.00    -0.425 C  
ENDROOT
BRANCH   2   5
HETATM    5  C   UNL     1     -10.144  17.277  65.973  1.00  0.00    -0.275 A  
HETATM    6  C   UNL     1     -11.091  16.897  65.011  1.00  0.00     0.004 A  
HETATM    7  C   UNL     1     -11.228  15.561  64.606  1.00  0.00    -0.381 A  
HETATM    8  C   UNL     1     -10.420  14.569  65.164  1.00  0.00    -0.439 A  
HETATM    9  C   UNL     1      -9.330  16.264  66.514  1.00  0.00    -0.298 A  
HETATM   10  C   UNL     1      -9.465  14.932  66.118  1.00  0.00    -0.328 A  
BRANCH   8  11
HETATM   11  C   UNL     1     -10.610  13.156  64.728  1.00  0.00    -0.372 C  
HETATM   12  O   UNL     1     -11.350  12.909  63.778  1.00  0.00    -0.414 OA 
BRANCH  11  13
HETATM   13  C   UNL     1      -9.868  12.075  65.490  1.00  0.00    -0.251 C  
BRANCH  13  14
HETATM   14  C   UNL     1     -10.492  11.809  66.856  1.00  0.00    -0.256 C  
BRANCH  14  15
HETATM   15  C   UNL     1      -9.445  11.467  67.920  1.00  0.00    -0.178 C  
BRANCH  15  16
HETATM   16  N   UNL     1      -9.709  10.259  68.717  1.00  0.00    -0.169 NA 
HETATM   17  C   UNL     1     -10.465   9.196  68.036  1.00  0.00    -0.224 C  
HETATM   18  C   UNL     1      -9.670   8.367  67.019  1.00  0.00    -0.268 C  
HETATM   19  C   UNL     1      -8.328   7.865  67.568  1.00  0.00    -0.124 C  
HETATM   20  C   UNL     1      -7.580   9.045  68.193  1.00  0.00    -0.092 C  
HETATM   21  C   UNL     1      -8.456   9.711  69.264  1.00  0.00    -0.150 C  
BRANCH  19  22
HETATM   22  O   UNL     1      -8.406   6.898  68.615  1.00  0.00    -0.120 OA 
BRANCH  22  23
HETATM   23  C   UNL     1      -9.386   5.858  68.560  1.00  0.00    -0.120 C  
BRANCH  23  24
HETATM   24  C   UNL     1     -10.162   5.910  69.877  1.00  0.00    -0.280 A  
HETATM   25  C   UNL     1     -11.442   6.493  69.955  1.00  0.00    -0.476 A  
HETATM   26  C   UNL     1     -12.149   6.521  71.160  1.00  0.00    -0.318 A  
HETATM   27  C   UNL     1      -9.607   5.373  71.048  1.00  0.00    -0.224 A  
HETATM   28  C   UNL     1     -11.585   5.968  72.308  1.00  0.00    -0.359 A  
HETATM   29  C   UNL     1     -10.314   5.400  72.252  1.00  0.00    -0.260 A  
ENDBRANCH  23  24
BRANCH  23  30
HETATM   30  C   UNL     1      -8.789   4.484  68.289  1.00  0.00    -0.126 A  
HETATM   31  C   UNL     1      -7.727   1.953  67.672  1.00  0.00    -0.059 A  
HETATM   32  C   UNL     1      -9.101   2.113  67.830  1.00  0.00    -0.213 A  
HETATM   33  C   UNL     1      -7.402   4.296  68.175  1.00  0.00    -0.064 A  
HETATM   34  C   UNL     1      -6.875   3.041  67.858  1.00  0.00    -0.049 A  
HETATM   35  C   UNL     1      -9.629   3.369  68.139  1.00  0.00    -0.158 A  
ENDBRANCH  23  30
ENDBRANCH  22  23
ENDBRANCH  19  22
ENDBRANCH  15  16
ENDBRANCH  14  15
ENDBRANCH  13  14
ENDBRANCH  11  13
ENDBRANCH   8  11
ENDBRANCH   2   5
TORSDOF 10
ENDMDL
MODEL      109
REMARK 921   NORMALIZED FREE ENERGY PREDICTED BY IDOCK:   -4.78 KCAL/MOL
REMARK 922        TOTAL FREE ENERGY PREDICTED BY IDOCK:  -10.50 KCAL/MOL
REMARK 923 INTER-LIGAND FREE ENERGY PREDICTED BY IDOCK:   -7.37 KCAL/MOL
REMARK 924 INTRA-LIGAND FREE ENERGY PREDICTED BY IDOCK:   -3.12 KCAL/MOL
REMARK 927      BINDING AFFINITY PREDICTED BY RF-SCORE:    0.00 PKD
ROOT
HETATM    1  C   UNL     1     -12.977  13.673  65.138  1.00  0.00    -0.277 C  
HETATM    2  C   UNL     1     -11.612  13.543  65.848  1.00  0.00    -0.359 C  
HETATM    3  C   UNL     1     -10.599  13.013  64.809  1.00  0.00    -0.380 C  
HETATM    4  C   UNL     1     -11.774  12.496  66.971  1.00  0.00    -0.437 C  
ENDROOT
BRANCH   2   5
HETATM    5  C   UNL     1     -11.105  14.871  66.428  1.00  0.00    -0.342 A  
HETATM    6  C   UNL     1     -11.406  15.294  67.731  1.00  0.00    -0.331 A  
HETATM    7  C   UNL     1     -10.947  16.524  68.225  1.00  0.00    -0.346 A  
HETATM    8  C   UNL     1     -10.179  17.366  67.418  1.00  0.00    -0.326 A  
HETATM    9  C   UNL     1     -10.319  15.728  65.635  1.00  0.00    -0.411 A  
HETATM   10  C   UNL     1      -9.863  16.954  66.120  1.00  0.00    -0.318 A  
BRANCH   8  11
HETATM   11  C   UNL     1      -9.730  18.677  67.968  1.00  0.00    -0.321 C  
HETATM   12  O   UNL     1     -10.453  19.664  67.850  1.00  0.00    -0.426 OA 
BRANCH  11  13
HETATM   13  C   UNL     1      -8.380  18.729  68.657  1.00  0.00    -0.360 C  
BRANCH  13  14
HETATM   14  C   UNL     1      -7.407  17.701  68.086  1.00  0.00    -0.228 C  
BRANCH  14  15
HETATM   15  C   UNL     1      -6.610  16.983  69.177  1.00  0.00    -0.230 C  
BRANCH  15  16
HETATM   16  N   UNL     1      -7.150  15.689  69.623  1.00  0.00    -0.187 NA 
HETATM   17  C   UNL     1      -8.014  14.991  68.658  1.00  0.00    -0.153 C  
HETATM   18  C   UNL     1      -7.285  14.301  67.497  1.00  0.00    -0.197 C  
HETATM   19  C   UNL     1      -6.106  13.433  67.955  1.00  0.00    -0.129 C  
HETATM   20  C   UNL     1      -5.225  14.258  68.896  1.00  0.00    -0.087 C  
HETATM   21  C   UNL     1      -6.065  14.794  70.064  1.00  0.00    -0.150 C  
BRANCH  19  22
HETATM   22  O   UNL     1      -6.445  12.271  68.713  1.00  0.00    -0.070 OA 
BRANCH  22  23
HETATM   23  C   UNL     1      -6.116  10.971  68.217  1.00  0.00    -0.049 C  
BRANCH  23  24
HETATM   24  C   UNL     1      -7.265  10.542  67.303  1.00  0.00    -0.090 A  
HETATM   25  C   UNL     1      -7.146  10.584  65.900  1.00  0.00    -0.134 A  
HETATM   26  C   UNL     1      -8.196  10.174  65.075  1.00  0.00    -0.152 A  
HETATM   27  C   UNL     1      -8.475  10.092  67.851  1.00  0.00    -0.118 A  
HETATM   28  C   UNL     1      -9.385   9.717  65.640  1.00  0.00    -0.285 A  
HETATM   29  C   UNL     1      -9.525   9.682  67.026  1.00  0.00    -0.195 A  
ENDBRANCH  23  24
BRANCH  23  30
HETATM   30  C   UNL     1      -5.840   9.960  69.321  1.00  0.00    -0.034 A  
HETATM   31  C   UNL     1      -5.452   8.078  71.376  1.00  0.00    -0.034 A  
HETATM   32  C   UNL     1      -5.896   9.362  71.682  1.00  0.00    -0.054 A  
HETATM   33  C   UNL     1      -5.346   8.678  69.036  1.00  0.00    -0.036 A  
HETATM   34  C   UNL     1      -5.162   7.740  70.055  1.00  0.00    -0.023 A  
HETATM   35  C   UNL     1      -6.087  10.298  70.662  1.00  0.00    -0.103 A  
ENDBRANCH  23  30
ENDBRANCH  22  23
ENDBRANCH  19  22
ENDBRANCH  15  16
ENDBRANCH  14  15
ENDBRANCH  13  14
ENDBRANCH  11  13
ENDBRANCH   8  11
ENDBRANCH   2   5
TORSDOF 10
ENDMDL
MODEL      110
REMARK 921   NORMALIZED FREE ENERGY PREDICTED BY IDOCK:   -4.74 KCAL/MOL
REMARK 922        TOTAL FREE ENERGY PREDICTED BY IDOCK:  -10.44 KCAL/MOL
REMARK 923 INTER-LIGAND FREE ENERGY PREDICTED BY IDOCK:   -7.83 KCAL/MOL
REMARK 924 INTRA-LIGAND FREE ENERGY PREDICTED BY IDOCK:   -2.62 KCAL/MOL
REMARK 927      BINDING AFFINITY PREDICTED BY RF-SCORE:    0.00 PKD
ROOT
HETATM    1  C   UNL     1      -7.768   5.986  74.549  1.00  0.00    -0.096 C  
HETATM    2  C   UNL     1      -8.740   6.579  73.506  1.00  0.00    -0.133 C  
HETATM    3  C   UNL     1      -8.306   8.038  73.247  1.00  0.00    -0.269 C  
HETATM    4  C   UNL     1     -10.149   6.578  74.136  1.00  0.00    -0.374 C  
ENDROOT
BRANCH   2   5
HETATM    5  C   UNL     1      -8.749   5.803  72.182  1.00  0.00    -0.133 A  
HETATM    6  C   UNL     1      -7.697   5.866  71.257  1.00  0.00    -0.110 A  
HETATM    7  C   UNL     1      -7.745   5.164  70.044  1.00  0.00    -0.067 A  
HETATM    8  C   UNL     1      -8.857   4.384  69.724  1.00  0.00    -0.129 A  
HETATM    9  C   UNL     1      -9.857   5.001  71.847  1.00  0.00    -0.236 A  
HETATM   10  C   UNL     1      -9.911   4.303  70.639  1.00  0.00    -0.218 A  
BRANCH   8  11
HETATM   11  C   UNL     1      -8.885   3.671  68.415  1.00  0.00    -0.114 C  
HETATM   12  O   UNL     1      -9.863   2.988  68.118  1.00  0.00    -0.025 OA 
BRANCH  11  13
HETATM   13  C   UNL     1      -7.686   3.826  67.501  1.00  0.00    -0.078 C  
BRANCH  13  14
HETATM   14  C   UNL     1      -8.022   4.634  66.251  1.00  0.00    -0.103 C  
BRANCH  14  15
HETATM   15  C   UNL     1      -7.526   6.080  66.339  1.00  0.00    -0.086 C  
BRANCH  15  16
HETATM   16  N   UNL     1      -8.507   7.118  65.987  1.00  0.00    -0.140 NA 
HETATM   17  C   UNL     1      -9.889   6.868  66.429  1.00  0.00    -0.034 C  
HETATM   18  C   UNL     1     -10.157   7.102  67.921  1.00  0.00    -0.211 C  
HETATM   19  C   UNL     1      -9.620   8.446  68.428  1.00  0.00    -0.148 C  
HETATM   20  C   UNL     1      -8.161   8.590  67.986  1.00  0.00    -0.120 C  
HETATM   21  C   UNL     1      -8.061   8.440  66.461  1.00  0.00    -0.101 C  
BRANCH  19  22
HETATM   22  O   UNL     1     -10.265   9.610  67.912  1.00  0.00    -0.174 OA 
BRANCH  22  23
HETATM   23  C   UNL     1     -10.474  10.747  68.754  1.00  0.00    -0.199 C  
BRANCH  23  24
HETATM   24  C   UNL     1     -11.289  10.264  69.956  1.00  0.00    -0.370 A  
HETATM   25  C   UNL     1     -12.610  10.702  70.174  1.00  0.00    -0.283 A  
HETATM   26  C   UNL     1     -13.349  10.242  71.266  1.00  0.00    -0.369 A  
HETATM   27  C   UNL     1     -10.728   9.366  70.876  1.00  0.00    -0.393 A  
HETATM   28  C   UNL     1     -12.779   9.338  72.160  1.00  0.00    -0.465 A  
HETATM   29  C   UNL     1     -11.469   8.906  71.968  1.00  0.00    -0.431 A  
ENDBRANCH  23  24
BRANCH  23  30
HETATM   30  C   UNL     1     -11.133  11.914  68.034  1.00  0.00    -0.293 A  
HETATM   31  C   UNL     1     -12.240  14.128  66.695  1.00  0.00    -0.450 A  
HETATM   32  C   UNL     1     -11.848  14.243  68.026  1.00  0.00    -0.379 A  
HETATM   33  C   UNL     1     -11.579  11.802  66.707  1.00  0.00    -0.287 A  
HETATM   34  C   UNL     1     -12.120  12.903  66.039  1.00  0.00    -0.484 A  
HETATM   35  C   UNL     1     -11.300  13.144  68.693  1.00  0.00    -0.327 A  
ENDBRANCH  23  30
ENDBRANCH  22  23
ENDBRANCH  19  22
ENDBRANCH  15  16
ENDBRANCH  14  15
ENDBRANCH  13  14
ENDBRANCH  11  13
ENDBRANCH   8  11
ENDBRANCH   2   5
TORSDOF 10
ENDMDL
MODEL      111
REMARK 921   NORMALIZED FREE ENERGY PREDICTED BY IDOCK:   -4.71 KCAL/MOL
REMARK 922        TOTAL FREE ENERGY PREDICTED BY IDOCK:  -10.40 KCAL/MOL
REMARK 923 INTER-LIGAND FREE ENERGY PREDICTED BY IDOCK:   -7.46 KCAL/MOL
REMARK 924 INTRA-LIGAND FREE ENERGY PREDICTED BY IDOCK:   -2.94 KCAL/MOL
REMARK 927      BINDING AFFINITY PREDICTED BY RF-SCORE:    0.00 PKD
ROOT
HETATM    1  C   UNL     1     -13.210  14.252  65.524  1.00  0.00     0.113 C  
HETATM    2  C   UNL     1     -11.826  13.573  65.446  1.00  0.00    -0.379 C  
HETATM    3  C   UNL     1     -11.416  13.528  63.958  1.00  0.00    -0.357 C  
HETATM    4  C   UNL     1     -11.992  12.128  65.964  1.00  0.00    -0.236 C  
ENDROOT
BRANCH   2   5
HETATM    5  C   UNL     1     -10.748  14.307  66.255  1.00  0.00    -0.297 A  
HETATM    6  C   UNL     1      -9.683  14.993  65.653  1.00  0.00    -0.344 A  
HETATM    7  C   UNL     1      -8.700  15.635  66.420  1.00  0.00    -0.354 A  
HETATM    8  C   UNL     1      -8.757  15.597  67.814  1.00  0.00    -0.173 A  
HETATM    9  C   UNL     1     -10.795  14.291  67.662  1.00  0.00    -0.273 A  
HETATM   10  C   UNL     1      -9.817  14.925  68.430  1.00  0.00    -0.216 A  
BRANCH   8  11
HETATM   11  C   UNL     1      -7.681  16.270  68.597  1.00  0.00    -0.192 C  
HETATM   12  O   UNL     1      -7.734  17.484  68.782  1.00  0.00    -0.266 OA 
BRANCH  11  13
HETATM   13  C   UNL     1      -6.556  15.409  69.137  1.00  0.00    -0.133 C  
BRANCH  13  14
HETATM   14  C   UNL     1      -5.763  14.738  68.020  1.00  0.00    -0.146 C  
BRANCH  14  15
HETATM   15  C   UNL     1      -5.942  13.218  68.007  1.00  0.00    -0.122 C  
BRANCH  15  16
HETATM   16  N   UNL     1      -7.327  12.735  67.902  1.00  0.00    -0.105 NA 
HETATM   17  C   UNL     1      -7.619  11.878  66.741  1.00  0.00    -0.034 C  
HETATM   18  C   UNL     1      -7.109  10.435  66.840  1.00  0.00    -0.094 C  
HETATM   19  C   UNL     1      -7.471   9.756  68.167  1.00  0.00    -0.081 C  
HETATM   20  C   UNL     1      -7.070  10.683  69.318  1.00  0.00    -0.107 C  
HETATM   21  C   UNL     1      -7.738  12.053  69.143  1.00  0.00     0.203 C  
BRANCH  19  22
HETATM   22  O   UNL     1      -8.860   9.505  68.380  1.00  0.00    -0.123 OA 
BRANCH  22  23
HETATM   23  C   UNL     1      -9.312   8.992  69.636  1.00  0.00    -0.167 C  
BRANCH  23  24
HETATM   24  C   UNL     1      -9.454   7.477  69.470  1.00  0.00    -0.156 A  
HETATM   25  C   UNL     1     -10.167   6.918  68.390  1.00  0.00    -0.191 A  
HETATM   26  C   UNL     1     -10.276   5.534  68.240  1.00  0.00    -0.237 A  
HETATM   27  C   UNL     1      -8.872   6.605  70.401  1.00  0.00    -0.152 A  
HETATM   28  C   UNL     1      -9.677   4.685  69.169  1.00  0.00    -0.255 A  
HETATM   29  C   UNL     1      -8.981   5.221  70.250  1.00  0.00    -0.153 A  
ENDBRANCH  23  24
BRANCH  23  30
HETATM   30  C   UNL     1     -10.595   9.648  70.126  1.00  0.00    -0.320 A  
HETATM   31  C   UNL     1     -12.903  10.905  71.130  1.00  0.00    -0.508 A  
HETATM   32  C   UNL     1     -12.412   9.756  71.745  1.00  0.00    -0.485 A  
HETATM   33  C   UNL     1     -11.132  10.778  69.489  1.00  0.00    -0.334 A  
HETATM   34  C   UNL     1     -12.272  11.408  69.994  1.00  0.00    -0.377 A  
HETATM   35  C   UNL     1     -11.267   9.129  71.246  1.00  0.00    -0.407 A  
ENDBRANCH  23  30
ENDBRANCH  22  23
ENDBRANCH  19  22
ENDBRANCH  15  16
ENDBRANCH  14  15
ENDBRANCH  13  14
ENDBRANCH  11  13
ENDBRANCH   8  11
ENDBRANCH   2   5
TORSDOF 10
ENDMDL
MODEL      112
REMARK 921   NORMALIZED FREE ENERGY PREDICTED BY IDOCK:   -4.69 KCAL/MOL
REMARK 922        TOTAL FREE ENERGY PREDICTED BY IDOCK:  -10.35 KCAL/MOL
REMARK 923 INTER-LIGAND FREE ENERGY PREDICTED BY IDOCK:   -8.24 KCAL/MOL
REMARK 924 INTRA-LIGAND FREE ENERGY PREDICTED BY IDOCK:   -2.11 KCAL/MOL
REMARK 927      BINDING AFFINITY PREDICTED BY RF-SCORE:    0.00 PKD
ROOT
HETATM    1  C   UNL     1     -12.242  14.519  73.378  1.00  0.00    -0.202 C  
HETATM    2  C   UNL     1     -12.983  14.072  72.100  1.00  0.00    -0.458 C  
HETATM    3  C   UNL     1     -14.375  14.743  72.115  1.00  0.00    -0.589 C  
HETATM    4  C   UNL     1     -13.163  12.541  72.182  1.00  0.00    -0.508 C  
ENDROOT
BRANCH   2   5
HETATM    5  C   UNL     1     -12.244  14.453  70.810  1.00  0.00    -0.413 A  
HETATM    6  C   UNL     1     -11.557  15.666  70.658  1.00  0.00    -0.394 A  
HETATM    7  C   UNL     1     -10.910  15.995  69.458  1.00  0.00    -0.317 A  
HETATM    8  C   UNL     1     -10.943  15.116  68.375  1.00  0.00    -0.271 A  
HETATM    9  C   UNL     1     -12.255  13.573  69.710  1.00  0.00    -0.330 A  
HETATM   10  C   UNL     1     -11.616  13.898  68.513  1.00  0.00    -0.367 A  
BRANCH   8  11
HETATM   11  C   UNL     1     -10.265  15.509  67.106  1.00  0.00    -0.260 C  
HETATM   12  O   UNL     1     -10.483  16.618  66.621  1.00  0.00    -0.298 OA 
BRANCH  11  13
HETATM   13  C   UNL     1      -9.324  14.507  66.467  1.00  0.00    -0.307 C  
BRANCH  13  14
HETATM   14  C   UNL     1      -8.041  14.332  67.274  1.00  0.00    -0.199 C  
BRANCH  14  15
HETATM   15  C   UNL     1      -7.621  12.865  67.393  1.00  0.00    -0.148 C  
BRANCH  15  16
HETATM   16  N   UNL     1      -8.660  11.934  67.860  1.00  0.00    -0.154 NA 
HETATM   17  C   UNL     1      -9.374  11.194  66.808  1.00  0.00    -0.177 C  
HETATM   18  C   UNL     1      -8.598  10.031  66.175  1.00  0.00    -0.142 C  
HETATM   19  C   UNL     1      -7.960   9.097  67.211  1.00  0.00    -0.102 C  
HETATM   20  C   UNL     1      -7.181   9.943  68.221  1.00  0.00    -0.078 C  
HETATM   21  C   UNL     1      -8.109  10.992  68.850  1.00  0.00    -0.135 C  
BRANCH  19  22
HETATM   22  O   UNL     1      -8.868   8.337  68.008  1.00  0.00    -0.134 OA 
BRANCH  22  23
HETATM   23  C   UNL     1      -8.453   7.094  68.580  1.00  0.00    -0.125 C  
BRANCH  23  24
HETATM   24  C   UNL     1      -8.327   6.096  67.427  1.00  0.00    -0.108 A  
HETATM   25  C   UNL     1      -9.270   6.055  66.381  1.00  0.00    -0.163 A  
HETATM   26  C   UNL     1      -9.136   5.151  65.326  1.00  0.00    -0.126 A  
HETATM   27  C   UNL     1      -7.257   5.190  67.389  1.00  0.00    -0.074 A  
HETATM   28  C   UNL     1      -8.057   4.269  65.299  1.00  0.00    -0.101 A  
HETATM   29  C   UNL     1      -7.123   4.286  66.332  1.00  0.00    -0.067 A  
ENDBRANCH  23  24
BRANCH  23  30
HETATM   30  C   UNL     1      -9.382   6.600  69.680  1.00  0.00    -0.143 A  
HETATM   31  C   UNL     1     -11.037   5.758  71.795  1.00  0.00    -0.301 A  
HETATM   32  C   UNL     1      -9.722   5.308  71.717  1.00  0.00    -0.206 A  
HETATM   33  C   UNL     1     -10.724   7.005  69.746  1.00  0.00    -0.265 A  
HETATM   34  C   UNL     1     -11.543   6.596  70.801  1.00  0.00    -0.432 A  
HETATM   35  C   UNL     1      -8.899   5.723  70.667  1.00  0.00    -0.145 A  
ENDBRANCH  23  30
ENDBRANCH  22  23
ENDBRANCH  19  22
ENDBRANCH  15  16
ENDBRANCH  14  15
ENDBRANCH  13  14
ENDBRANCH  11  13
ENDBRANCH   8  11
ENDBRANCH   2   5
TORSDOF 10
ENDMDL
MODEL      113
REMARK 921   NORMALIZED FREE ENERGY PREDICTED BY IDOCK:   -4.68 KCAL/MOL
REMARK 922        TOTAL FREE ENERGY PREDICTED BY IDOCK:  -10.35 KCAL/MOL
REMARK 923 INTER-LIGAND FREE ENERGY PREDICTED BY IDOCK:   -8.49 KCAL/MOL
REMARK 924 INTRA-LIGAND FREE ENERGY PREDICTED BY IDOCK:   -1.86 KCAL/MOL
REMARK 927      BINDING AFFINITY PREDICTED BY RF-SCORE:    0.00 PKD
ROOT
HETATM    1  C   UNL     1      -7.619  20.005  68.762  1.00  0.00    -0.142 C  
HETATM    2  C   UNL     1      -7.468  19.398  67.350  1.00  0.00    -0.259 C  
HETATM    3  C   UNL     1      -6.003  18.932  67.202  1.00  0.00    -0.162 C  
HETATM    4  C   UNL     1      -7.741  20.527  66.332  1.00  0.00    -0.132 C  
ENDROOT
BRANCH   2   5
HETATM    5  C   UNL     1      -8.412  18.215  67.098  1.00  0.00    -0.247 A  
HETATM    6  C   UNL     1      -7.992  17.026  66.484  1.00  0.00    -0.330 A  
HETATM    7  C   UNL     1      -8.885  15.970  66.246  1.00  0.00    -0.379 A  
HETATM    8  C   UNL     1     -10.227  16.086  66.612  1.00  0.00    -0.295 A  
HETATM    9  C   UNL     1      -9.767  18.307  67.471  1.00  0.00    -0.305 A  
HETATM   10  C   UNL     1     -10.660  17.261  67.233  1.00  0.00    -0.283 A  
BRANCH   8  11
HETATM   11  C   UNL     1     -11.152  14.953  66.321  1.00  0.00    -0.340 C  
HETATM   12  O   UNL     1     -12.123  15.137  65.590  1.00  0.00     0.009 OA 
BRANCH  11  13
HETATM   13  C   UNL     1     -10.844  13.609  66.951  1.00  0.00    -0.286 C  
BRANCH  13  14
HETATM   14  C   UNL     1     -10.383  12.586  65.918  1.00  0.00    -0.284 C  
BRANCH  14  15
HETATM   15  C   UNL     1      -9.720  11.365  66.561  1.00  0.00    -0.200 C  
BRANCH  15  16
HETATM   16  N   UNL     1     -10.619  10.258  66.918  1.00  0.00    -0.238 NA 
HETATM   17  C   UNL     1     -10.223   8.928  66.426  1.00  0.00    -0.203 C  
HETATM   18  C   UNL     1      -9.074   8.258  67.189  1.00  0.00    -0.162 C  
HETATM   19  C   UNL     1      -9.264   8.280  68.711  1.00  0.00    -0.143 C  
HETATM   20  C   UNL     1      -9.602   9.710  69.142  1.00  0.00    -0.176 C  
HETATM   21  C   UNL     1     -10.835  10.209  68.375  1.00  0.00    -0.242 C  
BRANCH  19  22
HETATM   22  O   UNL     1     -10.342   7.492  69.216  1.00  0.00    -0.200 OA 
BRANCH  22  23
HETATM   23  C   UNL     1     -10.491   7.301  70.625  1.00  0.00    -0.214 C  
BRANCH  23  24
HETATM   24  C   UNL     1     -10.179   5.830  70.908  1.00  0.00    -0.275 A  
HETATM   25  C   UNL     1      -9.496   5.029  69.972  1.00  0.00    -0.231 A  
HETATM   26  C   UNL     1      -9.202   3.691  70.249  1.00  0.00    -0.222 A  
HETATM   27  C   UNL     1     -10.572   5.243  72.120  1.00  0.00    -0.281 A  
HETATM   28  C   UNL     1      -9.589   3.132  71.465  1.00  0.00    -0.227 A  
HETATM   29  C   UNL     1     -10.277   3.906  72.396  1.00  0.00    -0.227 A  
ENDBRANCH  23  24
BRANCH  23  30
HETATM   30  C   UNL     1     -11.860   7.717  71.145  1.00  0.00    -0.314 A  
HETATM   31  C   UNL     1     -14.399   8.376  72.163  1.00  0.00    -0.520 A  
HETATM   32  C   UNL     1     -14.282   7.452  71.128  1.00  0.00    -0.272 A  
HETATM   33  C   UNL     1     -12.001   8.682  72.154  1.00  0.00    -0.449 A  
HETATM   34  C   UNL     1     -13.260   9.002  72.667  1.00  0.00    -0.375 A  
HETATM   35  C   UNL     1     -13.022   7.126  70.619  1.00  0.00     0.125 A  
ENDBRANCH  23  30
ENDBRANCH  22  23
ENDBRANCH  19  22
ENDBRANCH  15  16
ENDBRANCH  14  15
ENDBRANCH  13  14
ENDBRANCH  11  13
ENDBRANCH   8  11
ENDBRANCH   2   5
TORSDOF 10
ENDMDL
MODEL      114
REMARK 921   NORMALIZED FREE ENERGY PREDICTED BY IDOCK:   -4.67 KCAL/MOL
REMARK 922        TOTAL FREE ENERGY PREDICTED BY IDOCK:  -10.33 KCAL/MOL
REMARK 923 INTER-LIGAND FREE ENERGY PREDICTED BY IDOCK:   -8.14 KCAL/MOL
REMARK 924 INTRA-LIGAND FREE ENERGY PREDICTED BY IDOCK:   -2.19 KCAL/MOL
REMARK 927      BINDING AFFINITY PREDICTED BY RF-SCORE:    0.00 PKD
ROOT
HETATM    1  C   UNL     1     -13.128  15.500  69.993  1.00  0.00     0.214 C  
HETATM    2  C   UNL     1     -11.936  14.519  70.043  1.00  0.00    -0.388 C  
HETATM    3  C   UNL     1     -12.336  13.353  70.974  1.00  0.00    -0.401 C  
HETATM    4  C   UNL     1     -10.743  15.274  70.667  1.00  0.00    -0.214 C  
ENDROOT
BRANCH   2   5
HETATM    5  C   UNL     1     -11.553  13.966  68.664  1.00  0.00    -0.363 A  
HETATM    6  C   UNL     1     -11.195  14.791  67.587  1.00  0.00    -0.332 A  
HETATM    7  C   UNL     1     -10.872  14.256  66.331  1.00  0.00    -0.307 A  
HETATM    8  C   UNL     1     -10.908  12.877  66.122  1.00  0.00    -0.300 A  
HETATM    9  C   UNL     1     -11.572  12.577  68.436  1.00  0.00    -0.368 A  
HETATM   10  C   UNL     1     -11.255  12.040  67.187  1.00  0.00    -0.374 A  
BRANCH   8  11
HETATM   11  C   UNL     1     -10.583  12.346  64.767  1.00  0.00    -0.300 C  
HETATM   12  O   UNL     1     -10.280  13.126  63.867  1.00  0.00    -0.365 OA 
BRANCH  11  13
HETATM   13  C   UNL     1     -10.642  10.845  64.564  1.00  0.00    -0.335 C  
BRANCH  13  14
HETATM   14  C   UNL     1      -9.251  10.225  64.476  1.00  0.00    -0.295 C  
BRANCH  14  15
HETATM   15  C   UNL     1      -8.456  10.384  65.774  1.00  0.00    -0.166 C  
BRANCH  15  16
HETATM   16  N   UNL     1      -7.875   9.152  66.328  1.00  0.00    -0.102 NA 
HETATM   17  C   UNL     1      -7.170   9.299  67.612  1.00  0.00    -0.083 C  
HETATM   18  C   UNL     1      -8.069   9.446  68.846  1.00  0.00    -0.103 C  
HETATM   19  C   UNL     1      -9.181   8.391  68.912  1.00  0.00    -0.147 C  
HETATM   20  C   UNL     1      -9.905   8.356  67.564  1.00  0.00    -0.235 C  
HETATM   21  C   UNL     1      -8.897   8.095  66.436  1.00  0.00    -0.155 C  
BRANCH  19  22
HETATM   22  O   UNL     1      -8.752   7.046  69.122  1.00  0.00    -0.132 OA 
BRANCH  22  23
HETATM   23  C   UNL     1      -9.666   6.073  69.634  1.00  0.00    -0.152 C  
BRANCH  23  24
HETATM   24  C   UNL     1     -10.547   6.790  70.659  1.00  0.00    -0.257 A  
HETATM   25  C   UNL     1     -11.952   6.790  70.551  1.00  0.00    -0.385 A  
HETATM   26  C   UNL     1     -12.747   7.435  71.502  1.00  0.00    -0.409 A  
HETATM   27  C   UNL     1      -9.966   7.471  71.739  1.00  0.00    -0.200 A  
HETATM   28  C   UNL     1     -12.150   8.092  72.575  1.00  0.00    -0.377 A  
HETATM   29  C   UNL     1     -10.762   8.114  72.690  1.00  0.00    -0.421 A  
ENDBRANCH  23  24
BRANCH  23  30
HETATM   30  C   UNL     1      -8.975   4.847  70.215  1.00  0.00    -0.147 A  
HETATM   31  C   UNL     1      -7.661   2.651  71.384  1.00  0.00    -0.040 A  
HETATM   32  C   UNL     1      -6.921   3.671  70.791  1.00  0.00    -0.033 A  
HETATM   33  C   UNL     1      -9.706   3.787  70.773  1.00  0.00    -0.235 A  
HETATM   34  C   UNL     1      -9.054   2.701  71.363  1.00  0.00    -0.171 A  
HETATM   35  C   UNL     1      -7.572   4.761  70.208  1.00  0.00    -0.057 A  
ENDBRANCH  23  30
ENDBRANCH  22  23
ENDBRANCH  19  22
ENDBRANCH  15  16
ENDBRANCH  14  15
ENDBRANCH  13  14
ENDBRANCH  11  13
ENDBRANCH   8  11
ENDBRANCH   2   5
TORSDOF 10
ENDMDL
MODEL      115
REMARK 921   NORMALIZED FREE ENERGY PREDICTED BY IDOCK:   -4.66 KCAL/MOL
REMARK 922        TOTAL FREE ENERGY PREDICTED BY IDOCK:  -10.31 KCAL/MOL
REMARK 923 INTER-LIGAND FREE ENERGY PREDICTED BY IDOCK:   -8.80 KCAL/MOL
REMARK 924 INTRA-LIGAND FREE ENERGY PREDICTED BY IDOCK:   -1.51 KCAL/MOL
REMARK 927      BINDING AFFINITY PREDICTED BY RF-SCORE:    0.00 PKD
ROOT
HETATM    1  C   UNL     1     -10.736  18.191  65.710  1.00  0.00    -0.102 C  
HETATM    2  C   UNL     1      -9.905  17.806  66.953  1.00  0.00    -0.312 C  
HETATM    3  C   UNL     1     -10.379  18.700  68.120  1.00  0.00    -0.402 C  
HETATM    4  C   UNL     1      -8.429  18.131  66.639  1.00  0.00    -0.282 C  
ENDROOT
BRANCH   2   5
HETATM    5  C   UNL     1     -10.053  16.330  67.344  1.00  0.00    -0.260 A  
HETATM    6  C   UNL     1      -9.174  15.333  66.896  1.00  0.00    -0.255 A  
HETATM    7  C   UNL     1      -9.349  13.988  67.252  1.00  0.00    -0.230 A  
HETATM    8  C   UNL     1     -10.420  13.607  68.062  1.00  0.00    -0.251 A  
HETATM    9  C   UNL     1     -11.120  15.927  68.170  1.00  0.00    -0.338 A  
HETATM   10  C   UNL     1     -11.301  14.589  68.524  1.00  0.00    -0.309 A  
BRANCH   8  11
HETATM   11  C   UNL     1     -10.589  12.165  68.400  1.00  0.00    -0.226 C  
HETATM   12  O   UNL     1      -9.636  11.398  68.280  1.00  0.00    -0.179 OA 
BRANCH  11  13
HETATM   13  C   UNL     1     -11.952  11.708  68.883  1.00  0.00    -0.355 C  
BRANCH  13  14
HETATM   14  C   UNL     1     -12.006  11.578  70.402  1.00  0.00    -0.459 C  
BRANCH  14  15
HETATM   15  C   UNL     1     -12.623  10.252  70.853  1.00  0.00    -0.371 C  
BRANCH  15  16
HETATM   16  N   UNL     1     -11.821   9.457  71.797  1.00  0.00    -0.384 NA 
HETATM   17  C   UNL     1     -12.363   8.132  72.137  1.00  0.00    -0.338 C  
HETATM   18  C   UNL     1     -12.191   7.052  71.061  1.00  0.00    -0.419 C  
HETATM   19  C   UNL     1     -10.762   6.971  70.509  1.00  0.00    -0.238 C  
HETATM   20  C   UNL     1     -10.307   8.378  70.116  1.00  0.00    -0.214 C  
HETATM   21  C   UNL     1     -10.433   9.324  71.319  1.00  0.00    -0.338 C  
BRANCH  19  22
HETATM   22  O   UNL     1      -9.765   6.517  71.425  1.00  0.00    -0.172 OA 
BRANCH  22  23
HETATM   23  C   UNL     1      -9.021   5.329  71.145  1.00  0.00    -0.139 C  
BRANCH  23  24
HETATM   24  C   UNL     1      -8.905   5.228  69.623  1.00  0.00    -0.126 A  
HETATM   25  C   UNL     1      -9.975   4.767  68.831  1.00  0.00    -0.197 A  
HETATM   26  C   UNL     1      -9.862   4.695  67.441  1.00  0.00    -0.207 A  
HETATM   27  C   UNL     1      -7.714   5.595  68.979  1.00  0.00    -0.089 A  
HETATM   28  C   UNL     1      -8.676   5.079  66.819  1.00  0.00    -0.108 A  
HETATM   29  C   UNL     1      -7.603   5.523  67.588  1.00  0.00    -0.088 A  
ENDBRANCH  23  24
BRANCH  23  30
HETATM   30  C   UNL     1      -9.629   4.080  71.768  1.00  0.00    -0.223 A  
HETATM   31  C   UNL     1     -10.641   1.745  72.969  1.00  0.00    -0.226 A  
HETATM   32  C   UNL     1      -9.792   1.652  71.870  1.00  0.00    -0.205 A  
HETATM   33  C   UNL     1     -10.525   4.157  72.846  1.00  0.00    -0.246 A  
HETATM   34  C   UNL     1     -11.020   2.998  73.449  1.00  0.00    -0.303 A  
HETATM   35  C   UNL     1      -9.290   2.810  71.271  1.00  0.00    -0.208 A  
ENDBRANCH  23  30
ENDBRANCH  22  23
ENDBRANCH  19  22
ENDBRANCH  15  16
ENDBRANCH  14  15
ENDBRANCH  13  14
ENDBRANCH  11  13
ENDBRANCH   8  11
ENDBRANCH   2   5
TORSDOF 10
ENDMDL
MODEL      116
REMARK 921   NORMALIZED FREE ENERGY PREDICTED BY IDOCK:   -4.65 KCAL/MOL
REMARK 922        TOTAL FREE ENERGY PREDICTED BY IDOCK:  -10.30 KCAL/MOL
REMARK 923 INTER-LIGAND FREE ENERGY PREDICTED BY IDOCK:   -8.98 KCAL/MOL
REMARK 924 INTRA-LIGAND FREE ENERGY PREDICTED BY IDOCK:   -1.32 KCAL/MOL
REMARK 927      BINDING AFFINITY PREDICTED BY RF-SCORE:    0.00 PKD
ROOT
HETATM    1  C   UNL     1      -8.868   6.365  69.845  1.00  0.00    -0.142 C  
HETATM    2  C   UNL     1      -9.695   6.097  68.568  1.00  0.00    -0.141 C  
HETATM    3  C   UNL     1     -11.185   6.255  68.941  1.00  0.00    -0.387 C  
HETATM    4  C   UNL     1      -9.435   4.635  68.149  1.00  0.00    -0.195 C  
ENDROOT
BRANCH   2   5
HETATM    5  C   UNL     1      -9.349   7.050  67.416  1.00  0.00    -0.141 A  
HETATM    6  C   UNL     1      -8.094   7.064  66.792  1.00  0.00    -0.109 A  
HETATM    7  C   UNL     1      -7.801   7.964  65.756  1.00  0.00    -0.103 A  
HETATM    8  C   UNL     1      -8.762   8.880  65.326  1.00  0.00    -0.220 A  
HETATM    9  C   UNL     1     -10.309   7.974  66.959  1.00  0.00    -0.414 A  
HETATM   10  C   UNL     1     -10.022   8.874  65.932  1.00  0.00    -0.099 A  
BRANCH   8  11
HETATM   11  C   UNL     1      -8.407   9.838  64.239  1.00  0.00    -0.167 C  
HETATM   12  O   UNL     1      -7.286  10.341  64.217  1.00  0.00    -0.133 OA 
BRANCH  11  13
HETATM   13  C   UNL     1      -9.465  10.148  63.198  1.00  0.00    -0.296 C  
BRANCH  13  14
HETATM   14  C   UNL     1      -9.561  11.643  62.909  1.00  0.00    -0.223 C  
BRANCH  14  15
HETATM   15  C   UNL     1     -10.842  12.266  63.470  1.00  0.00    -0.454 C  
BRANCH  15  16
HETATM   16  N   UNL     1     -11.006  12.196  64.930  1.00  0.00    -0.300 NA 
HETATM   17  C   UNL     1     -10.004  12.929  65.721  1.00  0.00    -0.254 C  
HETATM   18  C   UNL     1     -10.180  14.452  65.761  1.00  0.00    -0.355 C  
HETATM   19  C   UNL     1     -11.613  14.886  66.094  1.00  0.00    -0.228 C  
HETATM   20  C   UNL     1     -12.580  14.130  65.180  1.00  0.00    -0.426 C  
HETATM   21  C   UNL     1     -12.362  12.617  65.325  1.00  0.00    -0.466 C  
BRANCH  19  22
HETATM   22  O   UNL     1     -12.064  14.586  67.415  1.00  0.00    -0.380 OA 
BRANCH  22  23
HETATM   23  C   UNL     1     -11.175  14.729  68.526  1.00  0.00    -0.276 C  
BRANCH  23  24
HETATM   24  C   UNL     1     -10.372  13.431  68.622  1.00  0.00    -0.213 A  
HETATM   25  C   UNL     1     -11.003  12.187  68.823  1.00  0.00    -0.274 A  
HETATM   26  C   UNL     1     -10.260  11.006  68.893  1.00  0.00    -0.218 A  
HETATM   27  C   UNL     1      -8.974  13.453  68.511  1.00  0.00    -0.071 A  
HETATM   28  C   UNL     1      -8.874  11.050  68.766  1.00  0.00    -0.149 A  
HETATM   29  C   UNL     1      -8.232  12.272  68.580  1.00  0.00    -0.096 A  
ENDBRANCH  23  24
BRANCH  23  30
HETATM   30  C   UNL     1     -11.890  15.070  69.826  1.00  0.00    -0.357 A  
HETATM   31  C   UNL     1     -13.217  15.819  72.192  1.00  0.00    -0.508 A  
HETATM   32  C   UNL     1     -11.883  16.168  72.000  1.00  0.00    -0.615 A  
HETATM   33  C   UNL     1     -13.220  14.684  70.057  1.00  0.00     0.359 A  
HETATM   34  C   UNL     1     -13.882  15.064  71.227  1.00  0.00    -0.528 A  
HETATM   35  C   UNL     1     -11.222  15.795  70.827  1.00  0.00    -0.404 A  
ENDBRANCH  23  30
ENDBRANCH  22  23
ENDBRANCH  19  22
ENDBRANCH  15  16
ENDBRANCH  14  15
ENDBRANCH  13  14
ENDBRANCH  11  13
ENDBRANCH   8  11
ENDBRANCH   2   5
TORSDOF 10
ENDMDL
MODEL      117
REMARK 921   NORMALIZED FREE ENERGY PREDICTED BY IDOCK:   -4.63 KCAL/MOL
REMARK 922        TOTAL FREE ENERGY PREDICTED BY IDOCK:  -10.27 KCAL/MOL
REMARK 923 INTER-LIGAND FREE ENERGY PREDICTED BY IDOCK:   -8.14 KCAL/MOL
REMARK 924 INTRA-LIGAND FREE ENERGY PREDICTED BY IDOCK:   -2.13 KCAL/MOL
REMARK 927      BINDING AFFINITY PREDICTED BY RF-SCORE:    0.00 PKD
ROOT
HETATM    1  C   UNL     1     -10.626   6.574  72.692  1.00  0.00    -0.248 C  
HETATM    2  C   UNL     1     -11.139   7.267  71.411  1.00  0.00    -0.268 C  
HETATM    3  C   UNL     1     -11.292   8.771  71.728  1.00  0.00    -0.409 C  
HETATM    4  C   UNL     1     -12.530   6.677  71.093  1.00  0.00    -0.255 C  
ENDROOT
BRANCH   2   5
HETATM    5  C   UNL     1     -10.199   7.088  70.211  1.00  0.00    -0.206 A  
HETATM    6  C   UNL     1      -8.802   7.096  70.333  1.00  0.00    -0.151 A  
HETATM    7  C   UNL     1      -7.969   6.953  69.214  1.00  0.00    -0.116 A  
HETATM    8  C   UNL     1      -8.519   6.806  67.940  1.00  0.00    -0.119 A  
HETATM    9  C   UNL     1     -10.735   6.926  68.919  1.00  0.00    -0.254 A  
HETATM   10  C   UNL     1      -9.910   6.788  67.802  1.00  0.00    -0.148 A  
BRANCH   8  11
HETATM   11  C   UNL     1      -7.602   6.682  66.770  1.00  0.00    -0.091 C  
HETATM   12  O   UNL     1      -8.073   6.521  65.646  1.00  0.00    -0.114 OA 
BRANCH  11  13
HETATM   13  C   UNL     1      -6.111   6.761  67.029  1.00  0.00    -0.032 C  
BRANCH  13  14
HETATM   14  C   UNL     1      -5.485   8.000  66.395  1.00  0.00    -0.028 C  
BRANCH  14  15
HETATM   15  C   UNL     1      -5.560   9.226  67.309  1.00  0.00    -0.041 C  
BRANCH  15  16
HETATM   16  N   UNL     1      -6.007  10.475  66.673  1.00  0.00    -0.065 NA 
HETATM   17  C   UNL     1      -7.195  10.365  65.812  1.00  0.00    -0.143 C  
HETATM   18  C   UNL     1      -8.536  10.245  66.548  1.00  0.00    -0.126 C  
HETATM   19  C   UNL     1      -8.715  11.295  67.652  1.00  0.00    -0.131 C  
HETATM   20  C   UNL     1      -7.467  11.291  68.540  1.00  0.00    -0.115 C  
HETATM   21  C   UNL     1      -6.216  11.528  67.683  1.00  0.00    -0.062 C  
BRANCH  19  22
HETATM   22  O   UNL     1      -8.835  12.647  67.212  1.00  0.00    -0.180 OA 
BRANCH  22  23
HETATM   23  C   UNL     1     -10.125  13.255  67.107  1.00  0.00    -0.239 C  
BRANCH  23  24
HETATM   24  C   UNL     1     -10.907  12.853  68.359  1.00  0.00    -0.276 A  
HETATM   25  C   UNL     1     -11.218  11.507  68.633  1.00  0.00    -0.307 A  
HETATM   26  C   UNL     1     -11.919  11.151  69.788  1.00  0.00    -0.428 A  
HETATM   27  C   UNL     1     -11.337  13.830  69.269  1.00  0.00    -0.325 A  
HETATM   28  C   UNL     1     -12.323  12.136  70.686  1.00  0.00    -0.385 A  
HETATM   29  C   UNL     1     -12.037  13.473  70.424  1.00  0.00    -0.415 A  
ENDBRANCH  23  24
BRANCH  23  30
HETATM   30  C   UNL     1     -10.856  12.894  65.822  1.00  0.00    -0.292 A  
HETATM   31  C   UNL     1     -12.229  12.347  63.427  1.00  0.00    -0.623 A  
HETATM   32  C   UNL     1     -12.935  12.734  64.563  1.00  0.00    -0.210 A  
HETATM   33  C   UNL     1     -10.165  12.454  64.682  1.00  0.00    -0.312 A  
HETATM   34  C   UNL     1     -10.844  12.192  63.490  1.00  0.00    -0.518 A  
HETATM   35  C   UNL     1     -12.255  13.004  65.753  1.00  0.00    -0.511 A  
ENDBRANCH  23  30
ENDBRANCH  22  23
ENDBRANCH  19  22
ENDBRANCH  15  16
ENDBRANCH  14  15
ENDBRANCH  13  14
ENDBRANCH  11  13
ENDBRANCH   8  11
ENDBRANCH   2   5
TORSDOF 10
ENDMDL
MODEL      118
REMARK 921   NORMALIZED FREE ENERGY PREDICTED BY IDOCK:   -4.61 KCAL/MOL
REMARK 922        TOTAL FREE ENERGY PREDICTED BY IDOCK:  -10.23 KCAL/MOL
REMARK 923 INTER-LIGAND FREE ENERGY PREDICTED BY IDOCK:   -7.61 KCAL/MOL
REMARK 924 INTRA-LIGAND FREE ENERGY PREDICTED BY IDOCK:   -2.62 KCAL/MOL
REMARK 927      BINDING AFFINITY PREDICTED BY RF-SCORE:    0.00 PKD
ROOT
HETATM    1  C   UNL     1      -8.034   8.245  73.891  1.00  0.00    -0.256 C  
HETATM    2  C   UNL     1      -6.871   7.422  73.295  1.00  0.00    -0.068 C  
HETATM    3  C   UNL     1      -6.029   6.890  74.475  1.00  0.00    -0.071 C  
HETATM    4  C   UNL     1      -6.006   8.387  72.456  1.00  0.00    -0.065 C  
ENDROOT
BRANCH   2   5
HETATM    5  C   UNL     1      -7.346   6.246  72.431  1.00  0.00    -0.092 A  
HETATM    6  C   UNL     1      -6.564   5.689  71.409  1.00  0.00    -0.045 A  
HETATM    7  C   UNL     1      -7.035   4.629  70.621  1.00  0.00    -0.037 A  
HETATM    8  C   UNL     1      -8.311   4.105  70.834  1.00  0.00    -0.092 A  
HETATM    9  C   UNL     1      -8.625   5.695  72.639  1.00  0.00    -0.120 A  
HETATM   10  C   UNL     1      -9.101   4.643  71.855  1.00  0.00    -0.162 A  
BRANCH   8  11
HETATM   11  C   UNL     1      -8.789   2.994  69.961  1.00  0.00    -0.089 C  
HETATM   12  O   UNL     1      -9.331   2.015  70.469  1.00  0.00    -0.102 OA 
BRANCH  11  13
HETATM   13  C   UNL     1      -8.579   3.131  68.466  1.00  0.00    -0.121 C  
BRANCH  13  14
HETATM   14  C   UNL     1      -9.602   4.067  67.829  1.00  0.00    -0.204 C  
BRANCH  14  15
HETATM   15  C   UNL     1      -9.089   5.505  67.717  1.00  0.00    -0.107 C  
BRANCH  15  16
HETATM   16  N   UNL     1      -9.879   6.526  68.422  1.00  0.00    -0.135 NA 
HETATM   17  C   UNL     1      -9.105   7.593  69.077  1.00  0.00    -0.144 C  
HETATM   18  C   UNL     1      -8.531   8.664  68.141  1.00  0.00    -0.131 C  
HETATM   19  C   UNL     1      -9.565   9.220  67.154  1.00  0.00    -0.159 C  
HETATM   20  C   UNL     1     -10.270   8.047  66.468  1.00  0.00    -0.228 C  
HETATM   21  C   UNL     1     -10.886   7.118  67.524  1.00  0.00    -0.241 C  
BRANCH  19  22
HETATM   22  O   UNL     1     -10.625   9.986  67.727  1.00  0.00    -0.224 OA 
BRANCH  22  23
HETATM   23  C   UNL     1     -10.379  11.317  68.188  1.00  0.00    -0.186 C  
BRANCH  23  24
HETATM   24  C   UNL     1     -11.291  11.543  69.396  1.00  0.00    -0.355 A  
HETATM   25  C   UNL     1     -11.747  10.469  70.186  1.00  0.00    -0.410 A  
HETATM   26  C   UNL     1     -12.566  10.689  71.295  1.00  0.00    -0.533 A  
HETATM   27  C   UNL     1     -11.697  12.839  69.744  1.00  0.00    -0.352 A  
HETATM   28  C   UNL     1     -12.945  11.987  71.632  1.00  0.00    -0.439 A  
HETATM   29  C   UNL     1     -12.515  13.059  70.854  1.00  0.00    -0.396 A  
ENDBRANCH  23  24
BRANCH  23  30
HETATM   30  C   UNL     1     -10.571  12.371  67.107  1.00  0.00    -0.247 A  
HETATM   31  C   UNL     1     -11.027  14.359  65.168  1.00  0.00    -0.380 A  
HETATM   32  C   UNL     1     -11.831  13.222  65.205  1.00  0.00    -0.377 A  
HETATM   33  C   UNL     1      -9.739  13.499  67.025  1.00  0.00    -0.251 A  
HETATM   34  C   UNL     1      -9.971  14.491  66.069  1.00  0.00    -0.343 A  
HETATM   35  C   UNL     1     -11.604  12.234  66.166  1.00  0.00    -0.450 A  
ENDBRANCH  23  30
ENDBRANCH  22  23
ENDBRANCH  19  22
ENDBRANCH  15  16
ENDBRANCH  14  15
ENDBRANCH  13  14
ENDBRANCH  11  13
ENDBRANCH   8  11
ENDBRANCH   2   5
TORSDOF 10
ENDMDL
MODEL      119
REMARK 921   NORMALIZED FREE ENERGY PREDICTED BY IDOCK:   -4.61 KCAL/MOL
REMARK 922        TOTAL FREE ENERGY PREDICTED BY IDOCK:  -10.23 KCAL/MOL
REMARK 923 INTER-LIGAND FREE ENERGY PREDICTED BY IDOCK:   -8.00 KCAL/MOL
REMARK 924 INTRA-LIGAND FREE ENERGY PREDICTED BY IDOCK:   -2.23 KCAL/MOL
REMARK 927      BINDING AFFINITY PREDICTED BY RF-SCORE:    0.00 PKD
ROOT
HETATM    1  C   UNL     1     -13.615   7.138  71.541  1.00  0.00    -0.408 C  
HETATM    2  C   UNL     1     -12.316   7.970  71.484  1.00  0.00    -0.335 C  
HETATM    3  C   UNL     1     -11.583   7.775  72.829  1.00  0.00    -0.368 C  
HETATM    4  C   UNL     1     -12.724   9.453  71.345  1.00  0.00    -0.425 C  
ENDROOT
BRANCH   2   5
HETATM    5  C   UNL     1     -11.389   7.563  70.330  1.00  0.00    -0.253 A  
HETATM    6  C   UNL     1     -10.532   8.469  69.689  1.00  0.00    -0.221 A  
HETATM    7  C   UNL     1      -9.714   8.071  68.621  1.00  0.00    -0.163 A  
HETATM    8  C   UNL     1      -9.741   6.753  68.165  1.00  0.00    -0.129 A  
HETATM    9  C   UNL     1     -11.394   6.235  69.863  1.00  0.00    -0.504 A  
HETATM   10  C   UNL     1     -10.584   5.835  68.799  1.00  0.00    -0.321 A  
BRANCH   8  11
HETATM   11  C   UNL     1      -8.876   6.371  67.012  1.00  0.00    -0.115 C  
HETATM   12  O   UNL     1      -8.338   5.266  66.997  1.00  0.00    -0.108 OA 
BRANCH  11  13
HETATM   13  C   UNL     1      -8.700   7.382  65.896  1.00  0.00    -0.161 C  
BRANCH  13  14
HETATM   14  C   UNL     1      -7.243   7.803  65.730  1.00  0.00    -0.068 C  
BRANCH  14  15
HETATM   15  C   UNL     1      -6.726   8.601  66.929  1.00  0.00    -0.065 C  
BRANCH  15  16
HETATM   16  N   UNL     1      -6.363  10.002  66.662  1.00  0.00    -0.068 NA 
HETATM   17  C   UNL     1      -7.114  10.661  65.581  1.00  0.00    -0.076 C  
HETATM   18  C   UNL     1      -8.545  11.085  65.935  1.00  0.00    -0.165 C  
HETATM   19  C   UNL     1      -8.637  11.855  67.259  1.00  0.00    -0.170 C  
HETATM   20  C   UNL     1      -7.892  11.065  68.338  1.00  0.00    -0.127 C  
HETATM   21  C   UNL     1      -6.446  10.807  67.893  1.00  0.00    -0.062 C  
BRANCH  19  22
HETATM   22  O   UNL     1      -8.023  13.144  67.274  1.00  0.00    -0.173 OA 
BRANCH  22  23
HETATM   23  C   UNL     1      -8.544  14.195  66.456  1.00  0.00     0.168 C  
BRANCH  23  24
HETATM   24  C   UNL     1      -8.200  15.512  67.155  1.00  0.00    -0.246 A  
HETATM   25  C   UNL     1      -7.659  15.536  68.455  1.00  0.00    -0.127 A  
HETATM   26  C   UNL     1      -7.334  16.744  69.077  1.00  0.00    -0.231 A  
HETATM   27  C   UNL     1      -8.421  16.736  66.507  1.00  0.00    -0.318 A  
HETATM   28  C   UNL     1      -7.548  17.948  68.410  1.00  0.00    -0.282 A  
HETATM   29  C   UNL     1      -8.095  17.944  67.129  1.00  0.00    -0.225 A  
ENDBRANCH  23  24
BRANCH  23  30
HETATM   30  C   UNL     1     -10.033  14.056  66.174  1.00  0.00    -0.325 A  
HETATM   31  C   UNL     1     -12.801  13.916  65.686  1.00  0.00    -0.467 A  
HETATM   32  C   UNL     1     -12.325  13.963  66.994  1.00  0.00    -0.287 A  
HETATM   33  C   UNL     1     -10.527  13.958  64.864  1.00  0.00    -0.446 A  
HETATM   34  C   UNL     1     -11.902  13.899  64.621  1.00  0.00    -0.428 A  
HETATM   35  C   UNL     1     -10.951  14.030  67.238  1.00  0.00    -0.303 A  
ENDBRANCH  23  30
ENDBRANCH  22  23
ENDBRANCH  19  22
ENDBRANCH  15  16
ENDBRANCH  14  15
ENDBRANCH  13  14
ENDBRANCH  11  13
ENDBRANCH   8  11
ENDBRANCH   2   5
TORSDOF 10
ENDMDL
MODEL      120
REMARK 921   NORMALIZED FREE ENERGY PREDICTED BY IDOCK:   -4.59 KCAL/MOL
REMARK 922        TOTAL FREE ENERGY PREDICTED BY IDOCK:  -10.21 KCAL/MOL
REMARK 923 INTER-LIGAND FREE ENERGY PREDICTED BY IDOCK:   -6.25 KCAL/MOL
REMARK 924 INTRA-LIGAND FREE ENERGY PREDICTED BY IDOCK:   -3.95 KCAL/MOL
REMARK 927      BINDING AFFINITY PREDICTED BY RF-SCORE:    0.00 PKD
ROOT
HETATM    1  C   UNL     1     -10.685   9.751  69.206  1.00  0.00    -0.246 C  
HETATM    2  C   UNL     1     -10.012   9.736  67.816  1.00  0.00    -0.206 C  
HETATM    3  C   UNL     1      -8.611  10.367  67.975  1.00  0.00    -0.123 C  
HETATM    4  C   UNL     1     -10.860  10.627  66.883  1.00  0.00    -0.267 C  
ENDROOT
BRANCH   2   5
HETATM    5  C   UNL     1      -9.876   8.326  67.227  1.00  0.00    -0.258 A  
HETATM    6  C   UNL     1      -8.775   7.927  66.456  1.00  0.00    -0.162 A  
HETATM    7  C   UNL     1      -8.692   6.637  65.911  1.00  0.00    -0.147 A  
HETATM    8  C   UNL     1      -9.718   5.715  66.122  1.00  0.00    -0.127 A  
HETATM    9  C   UNL     1     -10.896   7.377  67.438  1.00  0.00    -0.299 A  
HETATM   10  C   UNL     1     -10.819   6.094  66.895  1.00  0.00    -0.411 A  
BRANCH   8  11
HETATM   11  C   UNL     1      -9.607   4.361  65.507  1.00  0.00    -0.186 C  
HETATM   12  O   UNL     1     -10.527   3.932  64.814  1.00  0.00    -0.213 OA 
BRANCH  11  13
HETATM   13  C   UNL     1      -8.343   3.567  65.771  1.00  0.00    -0.106 C  
BRANCH  13  14
HETATM   14  C   UNL     1      -8.590   2.399  66.721  1.00  0.00    -0.118 C  
BRANCH  14  15
HETATM   15  C   UNL     1      -7.768   2.508  68.008  1.00  0.00    -0.055 C  
BRANCH  15  16
HETATM   16  N   UNL     1      -8.539   2.607  69.257  1.00  0.00    -0.063 NA 
HETATM   17  C   UNL     1      -7.762   2.478  70.500  1.00  0.00    -0.042 C  
HETATM   18  C   UNL     1      -6.939   3.710  70.896  1.00  0.00    -0.033 C  
HETATM   19  C   UNL     1      -7.744   5.015  70.848  1.00  0.00    -0.083 C  
HETATM   20  C   UNL     1      -8.461   5.101  69.498  1.00  0.00    -0.093 C  
HETATM   21  C   UNL     1      -9.328   3.852  69.287  1.00  0.00    -0.172 C  
BRANCH  19  22
HETATM   22  O   UNL     1      -8.788   5.139  71.814  1.00  0.00    -0.131 OA 
BRANCH  22  23
HETATM   23  C   UNL     1      -8.961   6.364  72.530  1.00  0.00    -0.136 C  
BRANCH  23  24
HETATM   24  C   UNL     1     -10.355   6.889  72.180  1.00  0.00    -0.221 A  
HETATM   25  C   UNL     1     -10.899   8.019  72.821  1.00  0.00    -0.438 A  
HETATM   26  C   UNL     1     -12.167   8.498  72.482  1.00  0.00    -0.383 A  
HETATM   27  C   UNL     1     -11.129   6.245  71.203  1.00  0.00    -0.356 A  
HETATM   28  C   UNL     1     -12.912   7.853  71.498  1.00  0.00    -0.338 A  
HETATM   29  C   UNL     1     -12.396   6.725  70.864  1.00  0.00    -0.336 A  
ENDBRANCH  23  24
BRANCH  23  30
HETATM   30  C   UNL     1      -7.867   7.384  72.248  1.00  0.00    -0.104 A  
HETATM   31  C   UNL     1      -5.773   9.176  71.684  1.00  0.00    -0.068 A  
HETATM   32  C   UNL     1      -5.668   8.299  72.760  1.00  0.00    -0.056 A  
HETATM   33  C   UNL     1      -7.977   8.309  71.198  1.00  0.00    -0.112 A  
HETATM   34  C   UNL     1      -6.933   9.192  70.911  1.00  0.00    -0.101 A  
HETATM   35  C   UNL     1      -6.708   7.409  73.043  1.00  0.00    -0.065 A  
ENDBRANCH  23  30
ENDBRANCH  22  23
ENDBRANCH  19  22
ENDBRANCH  15  16
ENDBRANCH  14  15
ENDBRANCH  13  14
ENDBRANCH  11  13
ENDBRANCH   8  11
ENDBRANCH   2   5
TORSDOF 10
ENDMDL
MODEL      121
REMARK 921   NORMALIZED FREE ENERGY PREDICTED BY IDOCK:   -4.58 KCAL/MOL
REMARK 922        TOTAL FREE ENERGY PREDICTED BY IDOCK:  -10.18 KCAL/MOL
REMARK 923 INTER-LIGAND FREE ENERGY PREDICTED BY IDOCK:   -9.38 KCAL/MOL
REMARK 924 INTRA-LIGAND FREE ENERGY PREDICTED BY IDOCK:   -0.80 KCAL/MOL
REMARK 927      BINDING AFFINITY PREDICTED BY RF-SCORE:    0.00 PKD
ROOT
HETATM    1  C   UNL     1      -8.151   5.164  70.539  1.00  0.00    -0.095 C  
HETATM    2  C   UNL     1      -9.170   5.116  71.698  1.00  0.00    -0.174 C  
HETATM    3  C   UNL     1      -8.367   5.090  73.018  1.00  0.00    -0.111 C  
HETATM    4  C   UNL     1      -9.958   3.795  71.565  1.00  0.00    -0.195 C  
ENDROOT
BRANCH   2   5
HETATM    5  C   UNL     1     -10.132   6.311  71.706  1.00  0.00    -0.211 A  
HETATM    6  C   UNL     1      -9.690   7.641  71.760  1.00  0.00    -0.196 A  
HETATM    7  C   UNL     1     -10.596   8.712  71.789  1.00  0.00    -0.395 A  
HETATM    8  C   UNL     1     -11.971   8.474  71.772  1.00  0.00    -0.393 A  
HETATM    9  C   UNL     1     -11.522   6.092  71.676  1.00  0.00    -0.293 A  
HETATM   10  C   UNL     1     -12.427   7.154  71.708  1.00  0.00    -0.385 A  
BRANCH   8  11
HETATM   11  C   UNL     1     -12.904   9.636  71.828  1.00  0.00    -0.421 C  
HETATM   12  O   UNL     1     -14.024   9.491  72.314  1.00  0.00    -0.371 OA 
BRANCH  11  13
HETATM   13  C   UNL     1     -12.417  10.961  71.275  1.00  0.00    -0.493 C  
BRANCH  13  14
HETATM   14  C   UNL     1     -13.268  12.130  71.760  1.00  0.00    -0.423 C  
BRANCH  14  15
HETATM   15  C   UNL     1     -12.582  13.481  71.544  1.00  0.00    -0.266 C  
BRANCH  15  16
HETATM   16  N   UNL     1     -12.744  14.078  70.210  1.00  0.00    -0.280 NA 
HETATM   17  C   UNL     1     -12.123  15.400  70.021  1.00  0.00    -0.359 C  
HETATM   18  C   UNL     1     -10.599  15.395  69.849  1.00  0.00    -0.315 C  
HETATM   19  C   UNL     1     -10.111  14.372  68.815  1.00  0.00    -0.234 C  
HETATM   20  C   UNL     1     -10.748  13.016  69.128  1.00  0.00    -0.064 C  
HETATM   21  C   UNL     1     -12.277  13.152  69.163  1.00  0.00    -0.092 C  
BRANCH  19  22
HETATM   22  O   UNL     1     -10.477  14.633  67.460  1.00  0.00    -0.244 OA 
BRANCH  22  23
HETATM   23  C   UNL     1      -9.655  14.157  66.391  1.00  0.00    -0.293 C  
BRANCH  23  24
HETATM   24  C   UNL     1     -10.577  13.419  65.418  1.00  0.00    -0.310 A  
HETATM   25  C   UNL     1     -11.954  13.276  65.674  1.00  0.00    -0.455 A  
HETATM   26  C   UNL     1     -12.789  12.614  64.771  1.00  0.00    -0.349 A  
HETATM   27  C   UNL     1     -10.061  12.862  64.239  1.00  0.00    -0.251 A  
HETATM   28  C   UNL     1     -12.259  12.080  63.598  1.00  0.00    -0.642 A  
HETATM   29  C   UNL     1     -10.896  12.200  63.336  1.00  0.00    -0.474 A  
ENDBRANCH  23  24
BRANCH  23  30
HETATM   30  C   UNL     1      -8.494  13.293  66.865  1.00  0.00    -0.074 A  
HETATM   31  C   UNL     1      -6.375  11.731  67.857  1.00  0.00    -0.057 A  
HETATM   32  C   UNL     1      -6.260  13.118  67.818  1.00  0.00    -0.156 A  
HETATM   33  C   UNL     1      -8.574  11.892  66.865  1.00  0.00    -0.185 A  
HETATM   34  C   UNL     1      -7.526  11.116  67.367  1.00  0.00    -0.109 A  
HETATM   35  C   UNL     1      -7.311  13.895  67.323  1.00  0.00    -0.017 A  
ENDBRANCH  23  30
ENDBRANCH  22  23
ENDBRANCH  19  22
ENDBRANCH  15  16
ENDBRANCH  14  15
ENDBRANCH  13  14
ENDBRANCH  11  13
ENDBRANCH   8  11
ENDBRANCH   2   5
TORSDOF 10
ENDMDL
MODEL      122
REMARK 921   NORMALIZED FREE ENERGY PREDICTED BY IDOCK:   -4.57 KCAL/MOL
REMARK 922        TOTAL FREE ENERGY PREDICTED BY IDOCK:  -10.16 KCAL/MOL
REMARK 923 INTER-LIGAND FREE ENERGY PREDICTED BY IDOCK:   -8.16 KCAL/MOL
REMARK 924 INTRA-LIGAND FREE ENERGY PREDICTED BY IDOCK:   -2.00 KCAL/MOL
REMARK 927      BINDING AFFINITY PREDICTED BY RF-SCORE:    0.00 PKD
ROOT
HETATM    1  C   UNL     1      -9.662  19.107  68.146  1.00  0.00    -0.429 C  
HETATM    2  C   UNL     1      -9.582  18.811  66.633  1.00  0.00    -0.357 C  
HETATM    3  C   UNL     1      -8.148  19.151  66.171  1.00  0.00    -0.277 C  
HETATM    4  C   UNL     1     -10.575  19.758  65.925  1.00  0.00    -0.557 C  
ENDROOT
BRANCH   2   5
HETATM    5  C   UNL     1      -9.901  17.350  66.287  1.00  0.00    -0.291 A  
HETATM    6  C   UNL     1      -9.297  16.266  66.940  1.00  0.00    -0.241 A  
HETATM    7  C   UNL     1      -9.592  14.942  66.585  1.00  0.00    -0.284 A  
HETATM    8  C   UNL     1     -10.497  14.672  65.557  1.00  0.00    -0.374 A  
HETATM    9  C   UNL     1     -10.820  17.058  65.261  1.00  0.00    -0.079 A  
HETATM   10  C   UNL     1     -11.114  15.742  64.902  1.00  0.00    -0.411 A  
BRANCH   8  11
HETATM   11  C   UNL     1     -10.768  13.252  65.190  1.00  0.00    -0.322 C  
HETATM   12  O   UNL     1     -10.368  12.818  64.112  1.00  0.00    -0.390 OA 
BRANCH  11  13
HETATM   13  C   UNL     1     -11.536  12.400  66.181  1.00  0.00    -0.430 C  
BRANCH  13  14
HETATM   14  C   UNL     1     -10.695  11.244  66.712  1.00  0.00    -0.323 C  
BRANCH  14  15
HETATM   15  C   UNL     1     -11.179  10.748  68.077  1.00  0.00    -0.307 C  
BRANCH  15  16
HETATM   16  N   UNL     1     -10.171  10.075  68.911  1.00  0.00    -0.183 NA 
HETATM   17  C   UNL     1     -10.632   9.631  70.237  1.00  0.00    -0.278 C  
HETATM   18  C   UNL     1     -11.500   8.366  70.244  1.00  0.00    -0.063 C  
HETATM   19  C   UNL     1     -10.901   7.218  69.422  1.00  0.00    -0.190 C  
HETATM   20  C   UNL     1     -10.517   7.751  68.040  1.00  0.00    -0.244 C  
HETATM   21  C   UNL     1      -9.563   8.945  68.187  1.00  0.00    -0.145 C  
BRANCH  19  22
HETATM   22  O   UNL     1      -9.695   6.649  69.933  1.00  0.00    -0.158 OA 
BRANCH  22  23
HETATM   23  C   UNL     1      -9.698   5.974  71.193  1.00  0.00    -0.177 C  
BRANCH  23  24
HETATM   24  C   UNL     1      -8.852   6.816  72.149  1.00  0.00    -0.134 A  
HETATM   25  C   UNL     1      -7.803   7.632  71.680  1.00  0.00    -0.089 A  
HETATM   26  C   UNL     1      -7.047   8.409  72.561  1.00  0.00    -0.107 A  
HETATM   27  C   UNL     1      -9.105   6.792  73.528  1.00  0.00    -0.158 A  
HETATM   28  C   UNL     1      -7.326   8.381  73.926  1.00  0.00    -0.165 A  
HETATM   29  C   UNL     1      -8.349   7.570  74.408  1.00  0.00    -0.255 A  
ENDBRANCH  23  24
BRANCH  23  30
HETATM   30  C   UNL     1      -9.217   4.533  71.103  1.00  0.00    -0.198 A  
HETATM   31  C   UNL     1      -8.242   1.894  71.024  1.00  0.00    -0.062 A  
HETATM   32  C   UNL     1      -7.494   2.931  70.472  1.00  0.00    -0.040 A  
HETATM   33  C   UNL     1      -9.981   3.469  71.609  1.00  0.00    -0.190 A  
HETATM   34  C   UNL     1      -9.493   2.161  71.579  1.00  0.00    -0.202 A  
HETATM   35  C   UNL     1      -7.977   4.241  70.509  1.00  0.00    -0.059 A  
ENDBRANCH  23  30
ENDBRANCH  22  23
ENDBRANCH  19  22
ENDBRANCH  15  16
ENDBRANCH  14  15
ENDBRANCH  13  14
ENDBRANCH  11  13
ENDBRANCH   8  11
ENDBRANCH   2   5
TORSDOF 10
ENDMDL
MODEL      123
REMARK 921   NORMALIZED FREE ENERGY PREDICTED BY IDOCK:   -4.54 KCAL/MOL
REMARK 922        TOTAL FREE ENERGY PREDICTED BY IDOCK:  -10.13 KCAL/MOL
REMARK 923 INTER-LIGAND FREE ENERGY PREDICTED BY IDOCK:   -8.28 KCAL/MOL
REMARK 924 INTRA-LIGAND FREE ENERGY PREDICTED BY IDOCK:   -1.85 KCAL/MOL
REMARK 927      BINDING AFFINITY PREDICTED BY RF-SCORE:    0.00 PKD
ROOT
HETATM    1  C   UNL     1     -11.895  15.679  69.951  1.00  0.00    -0.374 C  
HETATM    2  C   UNL     1     -11.398  14.435  69.183  1.00  0.00    -0.308 C  
HETATM    3  C   UNL     1      -9.854  14.474  69.189  1.00  0.00    -0.087 C  
HETATM    4  C   UNL     1     -11.898  14.562  67.727  1.00  0.00    -0.390 C  
ENDROOT
BRANCH   2   5
HETATM    5  C   UNL     1     -11.881  13.114  69.797  1.00  0.00    -0.386 A  
HETATM    6  C   UNL     1     -11.757  11.881  69.142  1.00  0.00    -0.380 A  
HETATM    7  C   UNL     1     -12.230  10.694  69.720  1.00  0.00    -0.318 A  
HETATM    8  C   UNL     1     -12.848  10.716  70.971  1.00  0.00    -0.496 A  
HETATM    9  C   UNL     1     -12.496  13.114  71.064  1.00  0.00    -0.406 A  
HETATM   10  C   UNL     1     -12.972  11.936  71.642  1.00  0.00    -0.447 A  
BRANCH   8  11
HETATM   11  C   UNL     1     -13.360   9.438  71.544  1.00  0.00    -0.386 C  
HETATM   12  O   UNL     1     -14.391   8.942  71.094  1.00  0.00    -0.226 OA 
BRANCH  11  13
HETATM   13  C   UNL     1     -12.571   8.803  72.672  1.00  0.00    -0.282 C  
BRANCH  13  14
HETATM   14  C   UNL     1     -11.136   8.488  72.259  1.00  0.00    -0.430 C  
BRANCH  14  15
HETATM   15  C   UNL     1     -10.811   6.997  72.368  1.00  0.00    -0.240 C  
BRANCH  15  16
HETATM   16  N   UNL     1     -10.982   6.209  71.138  1.00  0.00    -0.273 NA 
HETATM   17  C   UNL     1     -11.450   6.957  69.960  1.00  0.00    -0.277 C  
HETATM   18  C   UNL     1     -10.394   7.829  69.269  1.00  0.00    -0.220 C  
HETATM   19  C   UNL     1      -9.079   7.087  69.001  1.00  0.00    -0.135 C  
HETATM   20  C   UNL     1      -8.631   6.399  70.292  1.00  0.00    -0.135 C  
HETATM   21  C   UNL     1      -9.745   5.478  70.808  1.00  0.00    -0.177 C  
BRANCH  19  22
HETATM   22  O   UNL     1      -9.144   6.033  68.040  1.00  0.00    -0.119 OA 
BRANCH  22  23
HETATM   23  C   UNL     1      -8.297   6.059  66.888  1.00  0.00    -0.105 C  
BRANCH  23  24
HETATM   24  C   UNL     1      -8.206   7.518  66.438  1.00  0.00    -0.122 A  
HETATM   25  C   UNL     1      -9.261   8.143  65.745  1.00  0.00    -0.098 A  
HETATM   26  C   UNL     1      -9.173   9.481  65.353  1.00  0.00    -0.306 A  
HETATM   27  C   UNL     1      -7.055   8.272  66.710  1.00  0.00    -0.077 A  
HETATM   28  C   UNL     1      -8.026  10.216  65.646  1.00  0.00    -0.147 A  
HETATM   29  C   UNL     1      -6.968   9.610  66.319  1.00  0.00    -0.092 A  
ENDBRANCH  23  24
BRANCH  23  30
HETATM   30  C   UNL     1      -8.768   5.134  65.775  1.00  0.00    -0.139 A  
HETATM   31  C   UNL     1      -9.587   3.328  63.778  1.00  0.00    -0.131 A  
HETATM   32  C   UNL     1      -8.249   3.698  63.878  1.00  0.00    -0.090 A  
HETATM   33  C   UNL     1     -10.121   4.789  65.630  1.00  0.00    -0.198 A  
HETATM   34  C   UNL     1     -10.527   3.885  64.645  1.00  0.00    -0.196 A  
HETATM   35  C   UNL     1      -7.841   4.596  64.867  1.00  0.00    -0.090 A  
ENDBRANCH  23  30
ENDBRANCH  22  23
ENDBRANCH  19  22
ENDBRANCH  15  16
ENDBRANCH  14  15
ENDBRANCH  13  14
ENDBRANCH  11  13
ENDBRANCH   8  11
ENDBRANCH   2   5
TORSDOF 10
ENDMDL
MODEL      124
REMARK 921   NORMALIZED FREE ENERGY PREDICTED BY IDOCK:   -4.53 KCAL/MOL
REMARK 922        TOTAL FREE ENERGY PREDICTED BY IDOCK:  -10.10 KCAL/MOL
REMARK 923 INTER-LIGAND FREE ENERGY PREDICTED BY IDOCK:   -7.82 KCAL/MOL
REMARK 924 INTRA-LIGAND FREE ENERGY PREDICTED BY IDOCK:   -2.28 KCAL/MOL
REMARK 927      BINDING AFFINITY PREDICTED BY RF-SCORE:    0.00 PKD
ROOT
HETATM    1  C   UNL     1      -6.682   4.458  67.896  1.00  0.00    -0.051 C  
HETATM    2  C   UNL     1      -7.500   3.417  68.691  1.00  0.00    -0.049 C  
HETATM    3  C   UNL     1      -6.505   2.376  69.250  1.00  0.00    -0.029 C  
HETATM    4  C   UNL     1      -8.450   2.718  67.694  1.00  0.00    -0.103 C  
ENDROOT
BRANCH   2   5
HETATM    5  C   UNL     1      -8.301   4.034  69.845  1.00  0.00    -0.081 A  
HETATM    6  C   UNL     1      -9.685   4.247  69.781  1.00  0.00    -0.290 A  
HETATM    7  C   UNL     1     -10.386   4.835  70.845  1.00  0.00    -0.187 A  
HETATM    8  C   UNL     1      -9.710   5.232  72.000  1.00  0.00    -0.202 A  
HETATM    9  C   UNL     1      -7.639   4.430  71.024  1.00  0.00    -0.063 A  
HETATM   10  C   UNL     1      -8.331   5.019  72.084  1.00  0.00    -0.124 A  
BRANCH   8  11
HETATM   11  C   UNL     1     -10.483   5.876  73.100  1.00  0.00    -0.228 C  
HETATM   12  O   UNL     1     -11.233   5.193  73.795  1.00  0.00    -0.258 OA 
BRANCH  11  13
HETATM   13  C   UNL     1     -10.302   7.366  73.313  1.00  0.00    -0.405 C  
BRANCH  13  14
HETATM   14  C   UNL     1     -10.619   8.166  72.053  1.00  0.00    -0.334 C  
BRANCH  14  15
HETATM   15  C   UNL     1      -9.358   8.676  71.352  1.00  0.00    -0.236 C  
BRANCH  15  16
HETATM   16  N   UNL     1      -9.308   8.481  69.895  1.00  0.00    -0.158 NA 
HETATM   17  C   UNL     1     -10.564   8.738  69.172  1.00  0.00    -0.184 C  
HETATM   18  C   UNL     1     -10.922  10.216  68.975  1.00  0.00    -0.265 C  
HETATM   19  C   UNL     1      -9.758  11.052  68.429  1.00  0.00    -0.180 C  
HETATM   20  C   UNL     1      -8.515  10.778  69.280  1.00  0.00    -0.058 C  
HETATM   21  C   UNL     1      -8.217   9.273  69.299  1.00  0.00    -0.108 C  
BRANCH  19  22
HETATM   22  O   UNL     1      -9.348  10.754  67.095  1.00  0.00    -0.154 OA 
BRANCH  22  23
HETATM   23  C   UNL     1     -10.268  10.908  66.011  1.00  0.00    -0.254 C  
BRANCH  23  24
HETATM   24  C   UNL     1      -9.583  10.342  64.765  1.00  0.00    -0.352 A  
HETATM   25  C   UNL     1      -9.825  10.877  63.485  1.00  0.00    -0.407 A  
HETATM   26  C   UNL     1      -9.181  10.363  62.356  1.00  0.00    -0.304 A  
HETATM   27  C   UNL     1      -8.691   9.265  64.875  1.00  0.00    -0.224 A  
HETATM   28  C   UNL     1      -8.288   9.303  62.490  1.00  0.00    -0.185 A  
HETATM   29  C   UNL     1      -8.047   8.752  63.746  1.00  0.00    -0.165 A  
ENDBRANCH  23  24
BRANCH  23  30
HETATM   30  C   UNL     1     -10.735  12.344  65.819  1.00  0.00    -0.301 A  
HETATM   31  C   UNL     1     -11.649  14.994  65.577  1.00  0.00    -0.208 A  
HETATM   32  C   UNL     1     -12.550  13.936  65.494  1.00  0.00    -0.560 A  
HETATM   33  C   UNL     1      -9.834  13.420  65.851  1.00  0.00    -0.251 A  
HETATM   34  C   UNL     1     -10.289  14.736  65.741  1.00  0.00    -0.358 A  
HETATM   35  C   UNL     1     -12.097  12.619  65.611  1.00  0.00    -0.502 A  
ENDBRANCH  23  30
ENDBRANCH  22  23
ENDBRANCH  19  22
ENDBRANCH  15  16
ENDBRANCH  14  15
ENDBRANCH  13  14
ENDBRANCH  11  13
ENDBRANCH   8  11
ENDBRANCH   2   5
TORSDOF 10
ENDMDL
MODEL      125
REMARK 921   NORMALIZED FREE ENERGY PREDICTED BY IDOCK:   -4.52 KCAL/MOL
REMARK 922        TOTAL FREE ENERGY PREDICTED BY IDOCK:  -10.09 KCAL/MOL
REMARK 923 INTER-LIGAND FREE ENERGY PREDICTED BY IDOCK:   -8.58 KCAL/MOL
REMARK 924 INTRA-LIGAND FREE ENERGY PREDICTED BY IDOCK:   -1.51 KCAL/MOL
REMARK 927      BINDING AFFINITY PREDICTED BY RF-SCORE:    0.00 PKD
ROOT
HETATM    1  C   UNL     1      -7.141   4.270  67.617  1.00  0.00    -0.064 C  
HETATM    2  C   UNL     1      -8.649   4.464  67.349  1.00  0.00    -0.105 C  
HETATM    3  C   UNL     1      -9.230   3.087  66.959  1.00  0.00    -0.190 C  
HETATM    4  C   UNL     1      -8.784   5.424  66.147  1.00  0.00    -0.129 C  
ENDROOT
BRANCH   2   5
HETATM    5  C   UNL     1      -9.411   5.018  68.560  1.00  0.00    -0.167 A  
HETATM    6  C   UNL     1     -10.662   5.642  68.451  1.00  0.00    -0.229 A  
HETATM    7  C   UNL     1     -11.323   6.160  69.575  1.00  0.00    -0.426 A  
HETATM    8  C   UNL     1     -10.738   6.071  70.839  1.00  0.00    -0.329 A  
HETATM    9  C   UNL     1      -8.843   4.928  69.846  1.00  0.00    -0.126 A  
HETATM   10  C   UNL     1      -9.495   5.445  70.967  1.00  0.00    -0.205 A  
BRANCH   8  11
HETATM   11  C   UNL     1     -11.458   6.654  72.007  1.00  0.00    -0.291 C  
HETATM   12  O   UNL     1     -12.528   6.166  72.365  1.00  0.00    -0.180 OA 
BRANCH  11  13
HETATM   13  C   UNL     1     -10.824   7.839  72.708  1.00  0.00    -0.438 C  
BRANCH  13  14
HETATM   14  C   UNL     1     -10.265   8.856  71.718  1.00  0.00    -0.414 C  
BRANCH  14  15
HETATM   15  C   UNL     1     -11.270   9.961  71.384  1.00  0.00    -0.209 C  
BRANCH  15  16
HETATM   16  N   UNL     1     -11.942   9.847  70.080  1.00  0.00    -0.140 NA 
HETATM   17  C   UNL     1     -12.658  11.048  69.623  1.00  0.00    -0.017 C  
HETATM   18  C   UNL     1     -11.773  12.179  69.083  1.00  0.00    -0.384 C  
HETATM   19  C   UNL     1     -10.735  11.698  68.061  1.00  0.00    -0.208 C  
HETATM   20  C   UNL     1      -9.991  10.495  68.646  1.00  0.00    -0.188 C  
HETATM   21  C   UNL     1     -10.994   9.402  69.042  1.00  0.00    -0.067 C  
BRANCH  19  22
HETATM   22  O   UNL     1     -11.256  11.225  66.819  1.00  0.00    -0.286 OA 
BRANCH  22  23
HETATM   23  C   UNL     1     -10.927  11.898  65.601  1.00  0.00    -0.304 C  
BRANCH  23  24
HETATM   24  C   UNL     1      -9.982  10.977  64.827  1.00  0.00    -0.350 A  
HETATM   25  C   UNL     1      -9.055  10.148  65.489  1.00  0.00    -0.216 A  
HETATM   26  C   UNL     1      -8.208   9.300  64.773  1.00  0.00    -0.149 A  
HETATM   27  C   UNL     1     -10.019  10.940  63.426  1.00  0.00    -0.414 A  
HETATM   28  C   UNL     1      -8.272   9.268  63.381  1.00  0.00    -0.176 A  
HETATM   29  C   UNL     1      -9.173  10.091  62.710  1.00  0.00    -0.313 A  
ENDBRANCH  23  24
BRANCH  23  30
HETATM   30  C   UNL     1     -10.340  13.285  65.821  1.00  0.00    -0.290 A  
HETATM   31  C   UNL     1      -9.161  15.819  66.151  1.00  0.00    -0.385 A  
HETATM   32  C   UNL     1      -8.584  14.699  66.744  1.00  0.00    -0.195 A  
HETATM   33  C   UNL     1     -10.936  14.431  65.272  1.00  0.00    -0.355 A  
HETATM   34  C   UNL     1     -10.346  15.688  65.427  1.00  0.00    -0.421 A  
HETATM   35  C   UNL     1      -9.169  13.441  66.583  1.00  0.00    -0.223 A  
ENDBRANCH  23  30
ENDBRANCH  22  23
ENDBRANCH  19  22
ENDBRANCH  15  16
ENDBRANCH  14  15
ENDBRANCH  13  14
ENDBRANCH  11  13
ENDBRANCH   8  11
ENDBRANCH   2   5
TORSDOF 10
ENDMDL
MODEL      126
REMARK 921   NORMALIZED FREE ENERGY PREDICTED BY IDOCK:   -4.50 KCAL/MOL
REMARK 922        TOTAL FREE ENERGY PREDICTED BY IDOCK:  -10.05 KCAL/MOL
REMARK 923 INTER-LIGAND FREE ENERGY PREDICTED BY IDOCK:   -8.31 KCAL/MOL
REMARK 924 INTRA-LIGAND FREE ENERGY PREDICTED BY IDOCK:   -1.75 KCAL/MOL
REMARK 927      BINDING AFFINITY PREDICTED BY RF-SCORE:    0.00 PKD
ROOT
HETATM    1  C   UNL     1     -10.672   3.384  63.766  1.00  0.00    -0.247 C  
HETATM    2  C   UNL     1      -9.207   3.817  63.997  1.00  0.00    -0.135 C  
HETATM    3  C   UNL     1      -8.899   4.954  62.999  1.00  0.00    -0.090 C  
HETATM    4  C   UNL     1      -8.311   2.603  63.668  1.00  0.00    -0.086 C  
ENDROOT
BRANCH   2   5
HETATM    5  C   UNL     1      -8.941   4.302  65.428  1.00  0.00    -0.134 A  
HETATM    6  C   UNL     1      -7.649   4.516  65.930  1.00  0.00    -0.086 A  
HETATM    7  C   UNL     1      -7.437   4.938  67.251  1.00  0.00    -0.083 A  
HETATM    8  C   UNL     1      -8.520   5.149  68.106  1.00  0.00    -0.099 A  
HETATM    9  C   UNL     1     -10.021   4.532  66.303  1.00  0.00    -0.268 A  
HETATM   10  C   UNL     1      -9.815   4.949  67.619  1.00  0.00    -0.205 A  
BRANCH   8  11
HETATM   11  C   UNL     1      -8.256   5.574  69.511  1.00  0.00    -0.101 C  
HETATM   12  O   UNL     1      -7.098   5.633  69.919  1.00  0.00    -0.063 OA 
BRANCH  11  13
HETATM   13  C   UNL     1      -9.449   5.918  70.380  1.00  0.00    -0.192 C  
BRANCH  13  14
HETATM   14  C   UNL     1      -9.074   6.867  71.515  1.00  0.00    -0.144 C  
BRANCH  14  15
HETATM   15  C   UNL     1      -9.928   8.137  71.521  1.00  0.00    -0.182 C  
BRANCH  15  16
HETATM   16  N   UNL     1     -10.815   8.321  70.362  1.00  0.00    -0.234 NA 
HETATM   17  C   UNL     1     -12.140   8.891  70.656  1.00  0.00    -0.014 C  
HETATM   18  C   UNL     1     -12.164  10.400  70.931  1.00  0.00    -0.484 C  
HETATM   19  C   UNL     1     -11.401  11.217  69.880  1.00  0.00    -0.268 C  
HETATM   20  C   UNL     1     -10.014  10.599  69.690  1.00  0.00    -0.090 C  
HETATM   21  C   UNL     1     -10.149   9.116  69.315  1.00  0.00    -0.194 C  
BRANCH  19  22
HETATM   22  O   UNL     1     -11.967  11.231  68.570  1.00  0.00    -0.519 OA 
BRANCH  22  23
HETATM   23  C   UNL     1     -12.031  12.453  67.829  1.00  0.00    -0.186 C  
BRANCH  23  24
HETATM   24  C   UNL     1     -11.702  12.107  66.376  1.00  0.00    -0.394 A  
HETATM   25  C   UNL     1     -12.352  12.746  65.302  1.00  0.00    -0.546 A  
HETATM   26  C   UNL     1     -12.032  12.434  63.978  1.00  0.00    -0.546 A  
HETATM   27  C   UNL     1     -10.736  11.135  66.081  1.00  0.00    -0.285 A  
HETATM   28  C   UNL     1     -11.058  11.475  63.707  1.00  0.00    -0.471 A  
HETATM   29  C   UNL     1     -10.416  10.823  64.757  1.00  0.00    -0.335 A  
ENDBRANCH  23  24
BRANCH  23  30
HETATM   30  C   UNL     1     -11.127  13.542  68.389  1.00  0.00    -0.298 A  
HETATM   31  C   UNL     1      -9.464  15.614  69.315  1.00  0.00    -0.264 A  
HETATM   32  C   UNL     1      -8.979  14.689  68.395  1.00  0.00    -0.180 A  
HETATM   33  C   UNL     1     -11.585  14.453  69.354  1.00  0.00    -0.349 A  
HETATM   34  C   UNL     1     -10.763  15.488  69.806  1.00  0.00    -0.301 A  
HETATM   35  C   UNL     1      -9.802  13.658  67.935  1.00  0.00    -0.237 A  
ENDBRANCH  23  30
ENDBRANCH  22  23
ENDBRANCH  19  22
ENDBRANCH  15  16
ENDBRANCH  14  15
ENDBRANCH  13  14
ENDBRANCH  11  13
ENDBRANCH   8  11
ENDBRANCH   2   5
TORSDOF 10
ENDMDL
MODEL      127
REMARK 921   NORMALIZED FREE ENERGY PREDICTED BY IDOCK:   -4.49 KCAL/MOL
REMARK 922        TOTAL FREE ENERGY PREDICTED BY IDOCK:  -10.04 KCAL/MOL
REMARK 923 INTER-LIGAND FREE ENERGY PREDICTED BY IDOCK:   -7.71 KCAL/MOL
REMARK 924 INTRA-LIGAND FREE ENERGY PREDICTED BY IDOCK:   -2.33 KCAL/MOL
REMARK 927      BINDING AFFINITY PREDICTED BY RF-SCORE:    0.00 PKD
ROOT
HETATM    1  C   UNL     1     -10.330   4.234  65.196  1.00  0.00    -0.215 C  
HETATM    2  C   UNL     1      -9.322   4.225  66.366  1.00  0.00    -0.170 C  
HETATM    3  C   UNL     1      -8.094   5.053  65.924  1.00  0.00    -0.108 C  
HETATM    4  C   UNL     1      -8.886   2.761  66.587  1.00  0.00    -0.154 C  
ENDROOT
BRANCH   2   5
HETATM    5  C   UNL     1      -9.897   4.811  67.662  1.00  0.00    -0.201 A  
HETATM    6  C   UNL     1      -9.539   4.340  68.933  1.00  0.00    -0.227 A  
HETATM    7  C   UNL     1     -10.100   4.880  70.100  1.00  0.00    -0.332 A  
HETATM    8  C   UNL     1     -11.044   5.905  70.018  1.00  0.00    -0.411 A  
HETATM    9  C   UNL     1     -10.842   5.853  67.601  1.00  0.00    -0.331 A  
HETATM   10  C   UNL     1     -11.406   6.392  68.759  1.00  0.00    -0.252 A  
BRANCH   8  11
HETATM   11  C   UNL     1     -11.638   6.439  71.277  1.00  0.00    -0.311 C  
HETATM   12  O   UNL     1     -10.952   6.491  72.296  1.00  0.00    -0.230 OA 
BRANCH  11  13
HETATM   13  C   UNL     1     -13.082   6.899  71.238  1.00  0.00    -0.273 C  
BRANCH  13  14
HETATM   14  C   UNL     1     -13.296   8.179  72.040  1.00  0.00    -0.309 C  
BRANCH  14  15
HETATM   15  C   UNL     1     -13.310   9.428  71.154  1.00  0.00    -0.215 C  
BRANCH  15  16
HETATM   16  N   UNL     1     -12.126  10.296  71.247  1.00  0.00    -0.377 NA 
HETATM   17  C   UNL     1     -10.872   9.723  70.731  1.00  0.00    -0.333 C  
HETATM   18  C   UNL     1     -10.742   9.685  69.203  1.00  0.00    -0.237 C  
HETATM   19  C   UNL     1     -11.087  11.022  68.535  1.00  0.00    -0.243 C  
HETATM   20  C   UNL     1     -12.434  11.508  69.075  1.00  0.00     0.226 C  
HETATM   21  C   UNL     1     -12.382  11.598  70.607  1.00  0.00    -0.344 C  
BRANCH  19  22
HETATM   22  O   UNL     1     -10.188  12.100  68.798  1.00  0.00    -0.201 OA 
BRANCH  22  23
HETATM   23  C   UNL     1      -8.900  12.128  68.178  1.00  0.00    -0.187 C  
BRANCH  23  24
HETATM   24  C   UNL     1      -8.637  13.578  67.768  1.00  0.00    -0.183 A  
HETATM   25  C   UNL     1      -9.688  14.504  67.621  1.00  0.00    -0.215 A  
HETATM   26  C   UNL     1      -9.434  15.830  67.261  1.00  0.00    -0.217 A  
HETATM   27  C   UNL     1      -7.327  14.018  67.525  1.00  0.00    -0.187 A  
HETATM   28  C   UNL     1      -8.124  16.250  67.039  1.00  0.00    -0.244 A  
HETATM   29  C   UNL     1      -7.074  15.344  67.167  1.00  0.00    -0.135 A  
ENDBRANCH  23  24
BRANCH  23  30
HETATM   30  C   UNL     1      -8.775  11.159  67.011  1.00  0.00    -0.148 A  
HETATM   31  C   UNL     1      -8.617   9.289  64.914  1.00  0.00    -0.204 A  
HETATM   32  C   UNL     1      -7.942   9.055  66.109  1.00  0.00    -0.103 A  
HETATM   33  C   UNL     1      -9.409  11.403  65.783  1.00  0.00    -0.247 A  
HETATM   34  C   UNL     1      -9.339  10.470  64.745  1.00  0.00    -0.285 A  
HETATM   35  C   UNL     1      -8.017   9.984  67.150  1.00  0.00    -0.109 A  
ENDBRANCH  23  30
ENDBRANCH  22  23
ENDBRANCH  19  22
ENDBRANCH  15  16
ENDBRANCH  14  15
ENDBRANCH  13  14
ENDBRANCH  11  13
ENDBRANCH   8  11
ENDBRANCH   2   5
TORSDOF 10
ENDMDL
MODEL      128
REMARK 921   NORMALIZED FREE ENERGY PREDICTED BY IDOCK:   -4.47 KCAL/MOL
REMARK 922        TOTAL FREE ENERGY PREDICTED BY IDOCK:  -10.02 KCAL/MOL
REMARK 923 INTER-LIGAND FREE ENERGY PREDICTED BY IDOCK:   -8.08 KCAL/MOL
REMARK 924 INTRA-LIGAND FREE ENERGY PREDICTED BY IDOCK:   -1.93 KCAL/MOL
REMARK 927      BINDING AFFINITY PREDICTED BY RF-SCORE:    0.00 PKD
ROOT
HETATM    1  C   UNL     1     -11.790   7.996  72.188  1.00  0.00    -0.401 C  
HETATM    2  C   UNL     1     -10.555   7.111  72.464  1.00  0.00    -0.273 C  
HETATM    3  C   UNL     1     -11.024   5.920  73.328  1.00  0.00    -0.267 C  
HETATM    4  C   UNL     1      -9.554   7.958  73.279  1.00  0.00    -0.351 C  
ENDROOT
BRANCH   2   5
HETATM    5  C   UNL     1      -9.890   6.588  71.184  1.00  0.00    -0.198 A  
HETATM    6  C   UNL     1     -10.361   5.465  70.488  1.00  0.00    -0.344 A  
HETATM    7  C   UNL     1      -9.717   4.997  69.333  1.00  0.00    -0.254 A  
HETATM    8  C   UNL     1      -8.577   5.642  68.851  1.00  0.00    -0.101 A  
HETATM    9  C   UNL     1      -8.746   7.232  70.675  1.00  0.00    -0.147 A  
HETATM   10  C   UNL     1      -8.099   6.768  69.528  1.00  0.00    -0.126 A  
BRANCH   8  11
HETATM   11  C   UNL     1      -7.904   5.102  67.635  1.00  0.00    -0.095 C  
HETATM   12  O   UNL     1      -6.813   4.545  67.742  1.00  0.00    -0.053 OA 
BRANCH  11  13
HETATM   13  C   UNL     1      -8.611   5.267  66.304  1.00  0.00    -0.116 C  
BRANCH  13  14
HETATM   14  C   UNL     1      -8.520   6.698  65.782  1.00  0.00    -0.150 C  
BRANCH  14  15
HETATM   15  C   UNL     1      -9.556   7.622  66.426  1.00  0.00    -0.153 C  
BRANCH  15  16
HETATM   16  N   UNL     1      -9.601   8.998  65.907  1.00  0.00    -0.260 NA 
HETATM   17  C   UNL     1     -10.773   9.794  66.308  1.00  0.00     0.114 C  
HETATM   18  C   UNL     1     -10.750  10.324  67.747  1.00  0.00    -0.324 C  
HETATM   19  C   UNL     1      -9.428  11.009  68.117  1.00  0.00    -0.172 C  
HETATM   20  C   UNL     1      -8.271  10.085  67.732  1.00  0.00    -0.113 C  
HETATM   21  C   UNL     1      -8.364   9.724  66.243  1.00  0.00    -0.116 C  
BRANCH  19  22
HETATM   22  O   UNL     1      -9.149  12.232  67.437  1.00  0.00    -0.172 OA 
BRANCH  22  23
HETATM   23  C   UNL     1     -10.152  13.248  67.346  1.00  0.00    -0.233 C  
BRANCH  23  24
HETATM   24  C   UNL     1     -10.819  13.090  65.978  1.00  0.00    -0.290 A  
HETATM   25  C   UNL     1     -10.084  12.705  64.840  1.00  0.00    -0.244 A  
HETATM   26  C   UNL     1     -10.707  12.548  63.599  1.00  0.00    -0.469 A  
HETATM   27  C   UNL     1     -12.192  13.331  65.828  1.00  0.00    -0.510 A  
HETATM   28  C   UNL     1     -12.075  12.778  63.476  1.00  0.00    -0.642 A  
HETATM   29  C   UNL     1     -12.815  13.174  64.588  1.00  0.00    -0.235 A  
ENDBRANCH  23  24
BRANCH  23  30
HETATM   30  C   UNL     1      -9.607  14.651  67.571  1.00  0.00    -0.206 A  
HETATM   31  C   UNL     1      -8.614  17.267  67.866  1.00  0.00    -0.223 A  
HETATM   32  C   UNL     1      -7.832  16.290  67.256  1.00  0.00    -0.203 A  
HETATM   33  C   UNL     1     -10.362  15.636  68.227  1.00  0.00    -0.244 A  
HETATM   34  C   UNL     1      -9.874  16.938  68.365  1.00  0.00    -0.266 A  
HETATM   35  C   UNL     1      -8.323  14.990  67.111  1.00  0.00    -0.244 A  
ENDBRANCH  23  30
ENDBRANCH  22  23
ENDBRANCH  19  22
ENDBRANCH  15  16
ENDBRANCH  14  15
ENDBRANCH  13  14
ENDBRANCH  11  13
ENDBRANCH   8  11
ENDBRANCH   2   5
TORSDOF 10
ENDMDL
MODEL      129
REMARK 921   NORMALIZED FREE ENERGY PREDICTED BY IDOCK:   -4.46 KCAL/MOL
REMARK 922        TOTAL FREE ENERGY PREDICTED BY IDOCK:   -9.99 KCAL/MOL
REMARK 923 INTER-LIGAND FREE ENERGY PREDICTED BY IDOCK:   -8.94 KCAL/MOL
REMARK 924 INTRA-LIGAND FREE ENERGY PREDICTED BY IDOCK:   -1.05 KCAL/MOL
REMARK 927      BINDING AFFINITY PREDICTED BY RF-SCORE:    0.00 PKD
ROOT
HETATM    1  C   UNL     1     -13.206   7.089  71.260  1.00  0.00    -0.304 C  
HETATM    2  C   UNL     1     -11.770   7.260  71.801  1.00  0.00    -0.321 C  
HETATM    3  C   UNL     1     -11.455   6.026  72.674  1.00  0.00    -0.297 C  
HETATM    4  C   UNL     1     -11.760   8.522  72.691  1.00  0.00    -0.301 C  
ENDROOT
BRANCH   2   5
HETATM    5  C   UNL     1     -10.719   7.385  70.689  1.00  0.00    -0.242 A  
HETATM    6  C   UNL     1     -10.547   6.413  69.693  1.00  0.00    -0.309 A  
HETATM    7  C   UNL     1      -9.561   6.545  68.704  1.00  0.00    -0.125 A  
HETATM    8  C   UNL     1      -8.715   7.655  68.695  1.00  0.00    -0.128 A  
HETATM    9  C   UNL     1      -9.864   8.504  70.656  1.00  0.00    -0.218 A  
HETATM   10  C   UNL     1      -8.879   8.638  69.676  1.00  0.00    -0.137 A  
BRANCH   8  11
HETATM   11  C   UNL     1      -7.663   7.750  67.644  1.00  0.00    -0.121 C  
HETATM   12  O   UNL     1      -7.652   6.936  66.722  1.00  0.00    -0.087 OA 
BRANCH  11  13
HETATM   13  C   UNL     1      -6.642   8.864  67.764  1.00  0.00    -0.061 C  
BRANCH  13  14
HETATM   14  C   UNL     1      -7.015  10.076  66.916  1.00  0.00    -0.089 C  
BRANCH  14  15
HETATM   15  C   UNL     1      -6.339  11.360  67.403  1.00  0.00    -0.082 C  
BRANCH  15  16
HETATM   16  N   UNL     1      -7.052  12.105  68.452  1.00  0.00    -0.082 NA 
HETATM   17  C   UNL     1      -6.544  13.458  68.733  1.00  0.00    -0.102 C  
HETATM   18  C   UNL     1      -6.915  14.530  67.701  1.00  0.00    -0.204 C  
HETATM   19  C   UNL     1      -8.407  14.533  67.343  1.00  0.00    -0.200 C  
HETATM   20  C   UNL     1      -8.832  13.103  66.998  1.00  0.00    -0.212 C  
HETATM   21  C   UNL     1      -8.496  12.162  68.163  1.00  0.00    -0.175 C  
BRANCH  19  22
HETATM   22  O   UNL     1      -9.297  14.926  68.388  1.00  0.00    -0.185 OA 
BRANCH  22  23
HETATM   23  C   UNL     1     -10.371  15.829  68.112  1.00  0.00    -0.242 C  
BRANCH  23  24
HETATM   24  C   UNL     1     -11.022  15.359  66.810  1.00  0.00    -0.282 A  
HETATM   25  C   UNL     1     -10.682  15.930  65.568  1.00  0.00    -0.386 A  
HETATM   26  C   UNL     1     -11.271  15.481  64.384  1.00  0.00    -0.232 A  
HETATM   27  C   UNL     1     -11.984  14.339  66.828  1.00  0.00    -0.462 A  
HETATM   28  C   UNL     1     -12.214  14.456  64.423  1.00  0.00    -0.481 A  
HETATM   29  C   UNL     1     -12.573  13.890  65.644  1.00  0.00    -0.553 A  
ENDBRANCH  23  24
BRANCH  23  30
HETATM   30  C   UNL     1      -9.931  17.285  68.052  1.00  0.00    -0.304 A  
HETATM   31  C   UNL     1      -9.199  20.002  68.029  1.00  0.00    -0.376 A  
HETATM   32  C   UNL     1     -10.411  19.602  67.473  1.00  0.00    -0.589 A  
HETATM   33  C   UNL     1      -8.690  17.699  68.563  1.00  0.00    -0.285 A  
HETATM   34  C   UNL     1      -8.331  19.049  68.561  1.00  0.00    -0.387 A  
HETATM   35  C   UNL     1     -10.775  18.253  67.482  1.00  0.00    -0.381 A  
ENDBRANCH  23  30
ENDBRANCH  22  23
ENDBRANCH  19  22
ENDBRANCH  15  16
ENDBRANCH  14  15
ENDBRANCH  13  14
ENDBRANCH  11  13
ENDBRANCH   8  11
ENDBRANCH   2   5
TORSDOF 10
ENDMDL
MODEL      130
REMARK 921   NORMALIZED FREE ENERGY PREDICTED BY IDOCK:   -4.45 KCAL/MOL
REMARK 922        TOTAL FREE ENERGY PREDICTED BY IDOCK:   -9.99 KCAL/MOL
REMARK 923 INTER-LIGAND FREE ENERGY PREDICTED BY IDOCK:   -7.10 KCAL/MOL
REMARK 924 INTRA-LIGAND FREE ENERGY PREDICTED BY IDOCK:   -2.88 KCAL/MOL
REMARK 927      BINDING AFFINITY PREDICTED BY RF-SCORE:    0.00 PKD
ROOT
HETATM    1  C   UNL     1     -12.009  13.475  67.570  1.00  0.00    -0.385 C  
HETATM    2  C   UNL     1     -11.025  12.380  68.036  1.00  0.00    -0.262 C  
HETATM    3  C   UNL     1     -11.806  11.421  68.962  1.00  0.00    -0.415 C  
HETATM    4  C   UNL     1      -9.915  13.074  68.854  1.00  0.00     0.088 C  
ENDROOT
BRANCH   2   5
HETATM    5  C   UNL     1     -10.413  11.587  66.874  1.00  0.00    -0.270 A  
HETATM    6  C   UNL     1     -10.936  11.618  65.573  1.00  0.00    -0.327 A  
HETATM    7  C   UNL     1     -10.368  10.863  64.537  1.00  0.00    -0.417 A  
HETATM    8  C   UNL     1      -9.260  10.049  64.783  1.00  0.00    -0.301 A  
HETATM    9  C   UNL     1      -9.288  10.770  67.099  1.00  0.00    -0.171 A  
HETATM   10  C   UNL     1      -8.721  10.013  66.072  1.00  0.00    -0.152 A  
BRANCH   8  11
HETATM   11  C   UNL     1      -8.697   9.242  63.663  1.00  0.00    -0.167 C  
HETATM   12  O   UNL     1      -9.112   9.420  62.519  1.00  0.00    -0.259 OA 
BRANCH  11  13
HETATM   13  C   UNL     1      -7.623   8.225  63.995  1.00  0.00    -0.128 C  
BRANCH  13  14
HETATM   14  C   UNL     1      -7.948   6.845  63.432  1.00  0.00    -0.069 C  
BRANCH  14  15
HETATM   15  C   UNL     1      -7.980   5.765  64.515  1.00  0.00    -0.126 C  
BRANCH  15  16
HETATM   16  N   UNL     1      -8.016   6.247  65.904  1.00  0.00    -0.111 NA 
HETATM   17  C   UNL     1      -9.355   6.507  66.457  1.00  0.00    -0.159 C  
HETATM   18  C   UNL     1     -10.158   5.261  66.855  1.00  0.00    -0.250 C  
HETATM   19  C   UNL     1      -9.356   4.276  67.715  1.00  0.00    -0.160 C  
HETATM   20  C   UNL     1      -8.013   4.009  67.032  1.00  0.00    -0.096 C  
HETATM   21  C   UNL     1      -7.276   5.334  66.794  1.00  0.00    -0.078 C  
BRANCH  19  22
HETATM   22  O   UNL     1      -9.008   4.730  69.023  1.00  0.00    -0.097 OA 
BRANCH  22  23
HETATM   23  C   UNL     1      -9.999   5.329  69.862  1.00  0.00    -0.239 C  
BRANCH  23  24
HETATM   24  C   UNL     1      -9.525   6.753  70.160  1.00  0.00    -0.159 A  
HETATM   25  C   UNL     1      -8.182   7.136  69.977  1.00  0.00    -0.136 A  
HETATM   26  C   UNL     1      -7.765   8.443  70.238  1.00  0.00    -0.080 A  
HETATM   27  C   UNL     1     -10.430   7.716  70.629  1.00  0.00    -0.217 A  
HETATM   28  C   UNL     1      -8.683   9.388  70.689  1.00  0.00    -0.263 A  
HETATM   29  C   UNL     1     -10.012   9.024  70.888  1.00  0.00    -0.326 A  
ENDBRANCH  23  24
BRANCH  23  30
HETATM   30  C   UNL     1     -10.277   4.529  71.127  1.00  0.00    -0.163 A  
HETATM   31  C   UNL     1     -10.911   3.046  73.432  1.00  0.00    -0.307 A  
HETATM   32  C   UNL     1     -11.291   4.382  73.337  1.00  0.00    -0.353 A  
HETATM   33  C   UNL     1      -9.859   3.196  71.260  1.00  0.00    -0.153 A  
HETATM   34  C   UNL     1     -10.182   2.456  72.400  1.00  0.00    -0.219 A  
HETATM   35  C   UNL     1     -10.975   5.121  72.193  1.00  0.00    -0.174 A  
ENDBRANCH  23  30
ENDBRANCH  22  23
ENDBRANCH  19  22
ENDBRANCH  15  16
ENDBRANCH  14  15
ENDBRANCH  13  14
ENDBRANCH  11  13
ENDBRANCH   8  11
ENDBRANCH   2   5
TORSDOF 10
ENDMDL
MODEL      131
REMARK 921   NORMALIZED FREE ENERGY PREDICTED BY IDOCK:   -4.44 KCAL/MOL
REMARK 922        TOTAL FREE ENERGY PREDICTED BY IDOCK:   -9.97 KCAL/MOL
REMARK 923 INTER-LIGAND FREE ENERGY PREDICTED BY IDOCK:   -9.33 KCAL/MOL
REMARK 924 INTRA-LIGAND FREE ENERGY PREDICTED BY IDOCK:   -0.64 KCAL/MOL
REMARK 927      BINDING AFFINITY PREDICTED BY RF-SCORE:    0.00 PKD
ROOT
HETATM    1  C   UNL     1      -9.114   6.639  70.562  1.00  0.00    -0.152 C  
HETATM    2  C   UNL     1      -9.867   6.260  69.269  1.00  0.00    -0.167 C  
HETATM    3  C   UNL     1     -11.366   6.549  69.506  1.00  0.00    -0.419 C  
HETATM    4  C   UNL     1      -9.677   4.744  69.051  1.00  0.00    -0.248 C  
ENDROOT
BRANCH   2   5
HETATM    5  C   UNL     1      -9.382   7.039  68.038  1.00  0.00    -0.127 A  
HETATM    6  C   UNL     1      -8.027   7.155  67.699  1.00  0.00    -0.114 A  
HETATM    7  C   UNL     1      -7.613   7.893  66.580  1.00  0.00    -0.093 A  
HETATM    8  C   UNL     1      -8.552   8.542  65.777  1.00  0.00    -0.190 A  
HETATM    9  C   UNL     1     -10.315   7.690  67.209  1.00  0.00    -0.367 A  
HETATM   10  C   UNL     1      -9.908   8.430  66.097  1.00  0.00    -0.183 A  
BRANCH   8  11
HETATM   11  C   UNL     1      -8.074   9.339  64.611  1.00  0.00    -0.136 C  
HETATM   12  O   UNL     1      -6.925   9.776  64.605  1.00  0.00    -0.111 OA 
BRANCH  11  13
HETATM   13  C   UNL     1      -9.045   9.573  63.470  1.00  0.00    -0.145 C  
BRANCH  13  14
HETATM   14  C   UNL     1      -8.936  10.988  62.909  1.00  0.00    -0.292 C  
BRANCH  14  15
HETATM   15  C   UNL     1     -10.178  11.832  63.207  1.00  0.00    -0.416 C  
BRANCH  15  16
HETATM   16  N   UNL     1     -10.869  11.535  64.471  1.00  0.00    -0.328 NA 
HETATM   17  C   UNL     1     -10.104  11.812  65.698  1.00  0.00    -0.243 C  
HETATM   18  C   UNL     1      -9.996  13.291  66.089  1.00  0.00    -0.295 C  
HETATM   19  C   UNL     1     -11.345  14.021  66.068  1.00  0.00    -0.328 C  
HETATM   20  C   UNL     1     -12.038  13.737  64.733  1.00  0.00    -0.438 C  
HETATM   21  C   UNL     1     -12.172  12.221  64.527  1.00  0.00    -0.388 C  
BRANCH  19  22
HETATM   22  O   UNL     1     -12.292  13.610  67.055  1.00  0.00    -0.355 OA 
BRANCH  22  23
HETATM   23  C   UNL     1     -11.987  13.755  68.445  1.00  0.00    -0.360 C  
BRANCH  23  24
HETATM   24  C   UNL     1     -10.937  14.861  68.555  1.00  0.00    -0.260 A  
HETATM   25  C   UNL     1      -9.666  14.617  69.111  1.00  0.00    -0.108 A  
HETATM   26  C   UNL     1      -8.709  15.632  69.192  1.00  0.00    -0.251 A  
HETATM   27  C   UNL     1     -11.223  16.157  68.101  1.00  0.00    -0.311 A  
HETATM   28  C   UNL     1      -9.009  16.908  68.721  1.00  0.00    -0.256 A  
HETATM   29  C   UNL     1     -10.265  17.171  68.181  1.00  0.00    -0.332 A  
ENDBRANCH  23  24
BRANCH  23  30
HETATM   30  C   UNL     1     -11.537  12.456  69.099  1.00  0.00    -0.369 A  
HETATM   31  C   UNL     1     -10.799   9.997  70.250  1.00  0.00    -0.370 A  
HETATM   32  C   UNL     1     -11.935  10.665  70.701  1.00  0.00    -0.466 A  
HETATM   33  C   UNL     1     -10.369  11.794  68.691  1.00  0.00    -0.228 A  
HETATM   34  C   UNL     1     -10.008  10.568  69.255  1.00  0.00    -0.233 A  
HETATM   35  C   UNL     1     -12.301  11.887  70.132  1.00  0.00    -0.247 A  
ENDBRANCH  23  30
ENDBRANCH  22  23
ENDBRANCH  19  22
ENDBRANCH  15  16
ENDBRANCH  14  15
ENDBRANCH  13  14
ENDBRANCH  11  13
ENDBRANCH   8  11
ENDBRANCH   2   5
TORSDOF 10
ENDMDL
MODEL      132
REMARK 921   NORMALIZED FREE ENERGY PREDICTED BY IDOCK:   -4.44 KCAL/MOL
REMARK 922        TOTAL FREE ENERGY PREDICTED BY IDOCK:   -9.97 KCAL/MOL
REMARK 923 INTER-LIGAND FREE ENERGY PREDICTED BY IDOCK:   -8.11 KCAL/MOL
REMARK 924 INTRA-LIGAND FREE ENERGY PREDICTED BY IDOCK:   -1.85 KCAL/MOL
REMARK 927      BINDING AFFINITY PREDICTED BY RF-SCORE:    0.00 PKD
ROOT
HETATM    1  C   UNL     1      -8.402   1.961  70.643  1.00  0.00    -0.074 C  
HETATM    2  C   UNL     1      -8.593   3.058  69.573  1.00  0.00    -0.114 C  
HETATM    3  C   UNL     1      -9.127   2.371  68.297  1.00  0.00    -0.225 C  
HETATM    4  C   UNL     1      -7.202   3.658  69.275  1.00  0.00    -0.049 C  
ENDROOT
BRANCH   2   5
HETATM    5  C   UNL     1      -9.566   4.162  70.008  1.00  0.00    -0.274 A  
HETATM    6  C   UNL     1     -10.031   4.288  71.325  1.00  0.00    -0.230 A  
HETATM    7  C   UNL     1     -10.939   5.294  71.687  1.00  0.00    -0.121 A  
HETATM    8  C   UNL     1     -11.410   6.196  70.731  1.00  0.00    -0.364 A  
HETATM    9  C   UNL     1     -10.043   5.088  69.061  1.00  0.00    -0.238 A  
HETATM   10  C   UNL     1     -10.950   6.089  69.416  1.00  0.00    -0.455 A  
BRANCH   8  11
HETATM   11  C   UNL     1     -12.394   7.237  71.147  1.00  0.00    -0.345 C  
HETATM   12  O   UNL     1     -13.597   7.023  71.011  1.00  0.00    -0.195 OA 
BRANCH  11  13
HETATM   13  C   UNL     1     -11.852   8.529  71.726  1.00  0.00    -0.395 C  
BRANCH  13  14
HETATM   14  C   UNL     1     -12.956   9.554  71.968  1.00  0.00    -0.514 C  
BRANCH  14  15
HETATM   15  C   UNL     1     -13.035  10.602  70.855  1.00  0.00    -0.340 C  
BRANCH  15  16
HETATM   16  N   UNL     1     -11.748  11.121  70.368  1.00  0.00    -0.329 NA 
HETATM   17  C   UNL     1     -11.391  10.753  68.988  1.00  0.00    -0.284 C  
HETATM   18  C   UNL     1     -12.133  11.521  67.887  1.00  0.00     0.054 C  
HETATM   19  C   UNL     1     -12.128  13.039  68.101  1.00  0.00    -0.157 C  
HETATM   20  C   UNL     1     -12.579  13.334  69.534  1.00  0.00     0.218 C  
HETATM   21  C   UNL     1     -11.681  12.584  70.529  1.00  0.00     0.127 C  
BRANCH  19  22
HETATM   22  O   UNL     1     -10.858  13.681  67.988  1.00  0.00    -0.237 OA 
BRANCH  22  23
HETATM   23  C   UNL     1     -10.506  14.368  66.785  1.00  0.00    -0.273 C  
BRANCH  23  24
HETATM   24  C   UNL     1     -10.404  13.311  65.684  1.00  0.00    -0.292 A  
HETATM   25  C   UNL     1      -9.440  12.285  65.735  1.00  0.00    -0.128 A  
HETATM   26  C   UNL     1      -9.367  11.316  64.732  1.00  0.00    -0.166 A  
HETATM   27  C   UNL     1     -11.279  13.343  64.588  1.00  0.00    -0.377 A  
HETATM   28  C   UNL     1     -10.256  11.358  63.660  1.00  0.00    -0.448 A  
HETATM   29  C   UNL     1     -11.206  12.373  63.586  1.00  0.00    -0.544 A  
ENDBRANCH  23  24
BRANCH  23  30
HETATM   30  C   UNL     1      -9.237  15.198  66.916  1.00  0.00    -0.259 A  
HETATM   31  C   UNL     1      -6.825  16.633  67.120  1.00  0.00    -0.223 A  
HETATM   32  C   UNL     1      -7.124  15.637  68.046  1.00  0.00    -0.133 A  
HETATM   33  C   UNL     1      -8.942  16.238  66.021  1.00  0.00    -0.325 A  
HETATM   34  C   UNL     1      -7.741  16.944  66.115  1.00  0.00    -0.259 A  
HETATM   35  C   UNL     1      -8.322  14.925  67.948  1.00  0.00    -0.149 A  
ENDBRANCH  23  30
ENDBRANCH  22  23
ENDBRANCH  19  22
ENDBRANCH  15  16
ENDBRANCH  14  15
ENDBRANCH  13  14
ENDBRANCH  11  13
ENDBRANCH   8  11
ENDBRANCH   2   5
TORSDOF 10
ENDMDL
MODEL      133
REMARK 921   NORMALIZED FREE ENERGY PREDICTED BY IDOCK:   -4.42 KCAL/MOL
REMARK 922        TOTAL FREE ENERGY PREDICTED BY IDOCK:   -9.94 KCAL/MOL
REMARK 923 INTER-LIGAND FREE ENERGY PREDICTED BY IDOCK:   -7.06 KCAL/MOL
REMARK 924 INTRA-LIGAND FREE ENERGY PREDICTED BY IDOCK:   -2.88 KCAL/MOL
REMARK 927      BINDING AFFINITY PREDICTED BY RF-SCORE:    0.00 PKD
ROOT
HETATM    1  C   UNL     1     -10.398   6.352  74.164  1.00  0.00    -0.335 C  
HETATM    2  C   UNL     1     -10.185   7.243  72.921  1.00  0.00    -0.289 C  
HETATM    3  C   UNL     1      -9.006   8.192  73.230  1.00  0.00    -0.332 C  
HETATM    4  C   UNL     1     -11.467   8.082  72.731  1.00  0.00    -0.420 C  
ENDROOT
BRANCH   2   5
HETATM    5  C   UNL     1      -9.881   6.441  71.649  1.00  0.00    -0.184 A  
HETATM    6  C   UNL     1      -8.708   5.689  71.488  1.00  0.00    -0.133 A  
HETATM    7  C   UNL     1      -8.447   4.985  70.303  1.00  0.00    -0.104 A  
HETATM    8  C   UNL     1      -9.356   5.025  69.245  1.00  0.00    -0.178 A  
HETATM    9  C   UNL     1     -10.790   6.460  70.574  1.00  0.00    -0.335 A  
HETATM   10  C   UNL     1     -10.534   5.764  69.392  1.00  0.00    -0.360 A  
BRANCH   8  11
HETATM   11  C   UNL     1      -9.034   4.284  67.991  1.00  0.00    -0.122 C  
HETATM   12  O   UNL     1      -9.907   4.127  67.139  1.00  0.00    -0.205 OA 
BRANCH  11  13
HETATM   13  C   UNL     1      -7.624   3.754  67.826  1.00  0.00    -0.067 C  
BRANCH  13  14
HETATM   14  C   UNL     1      -6.769   4.665  66.951  1.00  0.00    -0.051 C  
BRANCH  14  15
HETATM   15  C   UNL     1      -6.263   5.895  67.708  1.00  0.00    -0.033 C  
BRANCH  15  16
HETATM   16  N   UNL     1      -6.373   7.179  66.997  1.00  0.00    -0.051 NA 
HETATM   17  C   UNL     1      -7.481   7.283  66.034  1.00  0.00    -0.080 C  
HETATM   18  C   UNL     1      -8.872   7.489  66.649  1.00  0.00    -0.162 C  
HETATM   19  C   UNL     1      -8.909   8.606  67.699  1.00  0.00    -0.136 C  
HETATM   20  C   UNL     1      -7.770   8.380  68.697  1.00  0.00    -0.107 C  
HETATM   21  C   UNL     1      -6.430   8.301  67.951  1.00  0.00    -0.057 C  
BRANCH  19  22
HETATM   22  O   UNL     1      -8.695   9.930  67.209  1.00  0.00    -0.128 OA 
BRANCH  22  23
HETATM   23  C   UNL     1      -9.613  10.506  66.276  1.00  0.00    -0.187 C  
BRANCH  23  24
HETATM   24  C   UNL     1      -8.970  10.390  64.893  1.00  0.00    -0.225 A  
HETATM   25  C   UNL     1      -7.572  10.308  64.735  1.00  0.00    -0.109 A  
HETATM   26  C   UNL     1      -6.997  10.187  63.468  1.00  0.00    -0.116 A  
HETATM   27  C   UNL     1      -9.769  10.364  63.741  1.00  0.00    -0.351 A  
HETATM   28  C   UNL     1      -7.810  10.148  62.337  1.00  0.00    -0.152 A  
HETATM   29  C   UNL     1      -9.193  10.242  62.474  1.00  0.00    -0.321 A  
ENDBRANCH  23  24
BRANCH  23  30
HETATM   30  C   UNL     1     -10.001  11.937  66.621  1.00  0.00    -0.220 A  
HETATM   31  C   UNL     1     -10.789  14.537  67.351  1.00  0.00    -0.291 A  
HETATM   32  C   UNL     1     -11.685  13.695  66.697  1.00  0.00    -0.420 A  
HETATM   33  C   UNL     1      -9.096  12.816  67.237  1.00  0.00    -0.200 A  
HETATM   34  C   UNL     1      -9.490  14.103  67.608  1.00  0.00    -0.213 A  
HETATM   35  C   UNL     1     -11.294  12.404  66.332  1.00  0.00    -0.392 A  
ENDBRANCH  23  30
ENDBRANCH  22  23
ENDBRANCH  19  22
ENDBRANCH  15  16
ENDBRANCH  14  15
ENDBRANCH  13  14
ENDBRANCH  11  13
ENDBRANCH   8  11
ENDBRANCH   2   5
TORSDOF 10
ENDMDL
MODEL      134
REMARK 921   NORMALIZED FREE ENERGY PREDICTED BY IDOCK:   -4.40 KCAL/MOL
REMARK 922        TOTAL FREE ENERGY PREDICTED BY IDOCK:   -9.90 KCAL/MOL
REMARK 923 INTER-LIGAND FREE ENERGY PREDICTED BY IDOCK:   -8.07 KCAL/MOL
REMARK 924 INTRA-LIGAND FREE ENERGY PREDICTED BY IDOCK:   -1.83 KCAL/MOL
REMARK 927      BINDING AFFINITY PREDICTED BY RF-SCORE:    0.00 PKD
ROOT
HETATM    1  C   UNL     1     -10.311  19.899  68.365  1.00  0.00    -0.507 C  
HETATM    2  C   UNL     1      -9.675  19.279  67.102  1.00  0.00    -0.409 C  
HETATM    3  C   UNL     1      -8.338  20.011  66.850  1.00  0.00    -0.376 C  
HETATM    4  C   UNL     1     -10.630  19.558  65.921  1.00  0.00    -0.572 C  
ENDROOT
BRANCH   2   5
HETATM    5  C   UNL     1      -9.419  17.771  67.233  1.00  0.00    -0.255 A  
HETATM    6  C   UNL     1      -9.258  17.134  68.472  1.00  0.00    -0.264 A  
HETATM    7  C   UNL     1      -9.001  15.757  68.558  1.00  0.00    -0.194 A  
HETATM    8  C   UNL     1      -8.891  14.986  67.400  1.00  0.00    -0.202 A  
HETATM    9  C   UNL     1      -9.317  16.974  66.077  1.00  0.00    -0.187 A  
HETATM   10  C   UNL     1      -9.058  15.605  66.158  1.00  0.00    -0.378 A  
BRANCH   8  11
HETATM   11  C   UNL     1      -8.593  13.531  67.530  1.00  0.00    -0.193 C  
HETATM   12  O   UNL     1      -9.517  12.734  67.680  1.00  0.00    -0.179 OA 
BRANCH  11  13
HETATM   13  C   UNL     1      -7.141  13.099  67.468  1.00  0.00    -0.156 C  
BRANCH  13  14
HETATM   14  C   UNL     1      -6.766  12.186  68.631  1.00  0.00    -0.081 C  
BRANCH  14  15
HETATM   15  C   UNL     1      -6.552  10.736  68.191  1.00  0.00    -0.062 C  
BRANCH  15  16
HETATM   16  N   UNL     1      -6.808   9.709  69.212  1.00  0.00    -0.049 NA 
HETATM   17  C   UNL     1      -8.092   9.819  69.922  1.00  0.00    -0.182 C  
HETATM   18  C   UNL     1      -9.324   9.359  69.133  1.00  0.00    -0.159 C  
HETATM   19  C   UNL     1      -9.141   7.985  68.474  1.00  0.00    -0.136 C  
HETATM   20  C   UNL     1      -7.819   7.984  67.702  1.00  0.00    -0.122 C  
HETATM   21  C   UNL     1      -6.665   8.358  68.642  1.00  0.00    -0.059 C  
BRANCH  19  22
HETATM   22  O   UNL     1      -9.034   6.876  69.366  1.00  0.00    -0.138 OA 
BRANCH  22  23
HETATM   23  C   UNL     1     -10.177   6.060  69.636  1.00  0.00    -0.208 C  
BRANCH  23  24
HETATM   24  C   UNL     1     -10.985   6.775  70.721  1.00  0.00    -0.306 A  
HETATM   25  C   UNL     1     -10.364   7.328  71.858  1.00  0.00    -0.210 A  
HETATM   26  C   UNL     1     -11.110   7.993  72.834  1.00  0.00    -0.399 A  
HETATM   27  C   UNL     1     -12.377   6.894  70.603  1.00  0.00    -0.248 A  
HETATM   28  C   UNL     1     -12.491   8.112  72.690  1.00  0.00    -0.168 A  
HETATM   29  C   UNL     1     -13.123   7.559  71.579  1.00  0.00    -0.402 A  
ENDBRANCH  23  24
BRANCH  23  30
HETATM   30  C   UNL     1      -9.817   4.632  70.023  1.00  0.00    -0.294 A  
HETATM   31  C   UNL     1      -9.032   2.023  70.727  1.00  0.00    -0.141 A  
HETATM   32  C   UNL     1      -8.903   2.459  69.411  1.00  0.00    -0.148 A  
HETATM   33  C   UNL     1      -9.986   4.161  71.334  1.00  0.00    -0.223 A  
HETATM   34  C   UNL     1      -9.587   2.869  71.686  1.00  0.00    -0.222 A  
HETATM   35  C   UNL     1      -9.294   3.753  69.059  1.00  0.00    -0.240 A  
ENDBRANCH  23  30
ENDBRANCH  22  23
ENDBRANCH  19  22
ENDBRANCH  15  16
ENDBRANCH  14  15
ENDBRANCH  13  14
ENDBRANCH  11  13
ENDBRANCH   8  11
ENDBRANCH   2   5
TORSDOF 10
ENDMDL
MODEL      135
REMARK 921   NORMALIZED FREE ENERGY PREDICTED BY IDOCK:   -4.40 KCAL/MOL
REMARK 922        TOTAL FREE ENERGY PREDICTED BY IDOCK:   -9.90 KCAL/MOL
REMARK 923 INTER-LIGAND FREE ENERGY PREDICTED BY IDOCK:   -7.39 KCAL/MOL
REMARK 924 INTRA-LIGAND FREE ENERGY PREDICTED BY IDOCK:   -2.51 KCAL/MOL
REMARK 927      BINDING AFFINITY PREDICTED BY RF-SCORE:    0.00 PKD
ROOT
HETATM    1  C   UNL     1      -6.985   4.899  65.962  1.00  0.00    -0.066 C  
HETATM    2  C   UNL     1      -8.290   4.092  66.132  1.00  0.00    -0.109 C  
HETATM    3  C   UNL     1      -8.133   2.783  65.326  1.00  0.00    -0.086 C  
HETATM    4  C   UNL     1      -9.432   4.928  65.514  1.00  0.00    -0.155 C  
ENDROOT
BRANCH   2   5
HETATM    5  C   UNL     1      -8.607   3.759  67.596  1.00  0.00    -0.111 A  
HETATM    6  C   UNL     1      -9.158   2.533  67.994  1.00  0.00    -0.232 A  
HETATM    7  C   UNL     1      -9.458   2.267  69.338  1.00  0.00    -0.118 A  
HETATM    8  C   UNL     1      -9.220   3.232  70.318  1.00  0.00    -0.227 A  
HETATM    9  C   UNL     1      -8.362   4.715  68.600  1.00  0.00    -0.084 A  
HETATM   10  C   UNL     1      -8.663   4.457  69.939  1.00  0.00    -0.111 A  
BRANCH   8  11
HETATM   11  C   UNL     1      -9.574   2.924  71.733  1.00  0.00    -0.147 C  
HETATM   12  O   UNL     1      -9.994   1.806  72.023  1.00  0.00    -0.127 OA 
BRANCH  11  13
HETATM   13  C   UNL     1      -9.394   4.024  72.761  1.00  0.00    -0.150 C  
BRANCH  13  14
HETATM   14  C   UNL     1     -10.730   4.519  73.308  1.00  0.00    -0.312 C  
BRANCH  14  15
HETATM   15  C   UNL     1     -11.004   5.980  72.946  1.00  0.00    -0.269 C  
BRANCH  15  16
HETATM   16  N   UNL     1     -10.548   6.410  71.615  1.00  0.00    -0.217 NA 
HETATM   17  C   UNL     1     -11.607   6.813  70.676  1.00  0.00    -0.370 C  
HETATM   18  C   UNL     1     -12.220   8.197  70.926  1.00  0.00    -0.108 C  
HETATM   19  C   UNL     1     -11.169   9.296  71.122  1.00  0.00    -0.343 C  
HETATM   20  C   UNL     1     -10.152   8.823  72.163  1.00  0.00    -0.362 C  
HETATM   21  C   UNL     1      -9.544   7.482  71.728  1.00  0.00    -0.152 C  
BRANCH  19  22
HETATM   22  O   UNL     1     -10.382   9.618  69.976  1.00  0.00    -0.221 OA 
BRANCH  22  23
HETATM   23  C   UNL     1     -10.985  10.261  68.850  1.00  0.00    -0.238 C  
BRANCH  23  24
HETATM   24  C   UNL     1     -10.223   9.789  67.610  1.00  0.00    -0.261 A  
HETATM   25  C   UNL     1      -9.181   8.845  67.700  1.00  0.00    -0.151 A  
HETATM   26  C   UNL     1      -8.503   8.410  66.559  1.00  0.00    -0.116 A  
HETATM   27  C   UNL     1     -10.551  10.294  66.343  1.00  0.00    -0.177 A  
HETATM   28  C   UNL     1      -8.854   8.913  65.309  1.00  0.00    -0.227 A  
HETATM   29  C   UNL     1      -9.873   9.857  65.202  1.00  0.00    -0.348 A  
ENDBRANCH  23  24
BRANCH  23  30
HETATM   30  C   UNL     1     -11.019  11.778  68.971  1.00  0.00    -0.276 A  
HETATM   31  C   UNL     1     -11.044  14.570  69.314  1.00  0.00    -0.296 A  
HETATM   32  C   UNL     1     -12.036  13.787  69.899  1.00  0.00    -0.412 A  
HETATM   33  C   UNL     1     -10.055  12.586  68.348  1.00  0.00    -0.216 A  
HETATM   34  C   UNL     1     -10.062  13.972  68.527  1.00  0.00    -0.236 A  
HETATM   35  C   UNL     1     -12.026  12.401  69.728  1.00  0.00    -0.359 A  
ENDBRANCH  23  30
ENDBRANCH  22  23
ENDBRANCH  19  22
ENDBRANCH  15  16
ENDBRANCH  14  15
ENDBRANCH  13  14
ENDBRANCH  11  13
ENDBRANCH   8  11
ENDBRANCH   2   5
TORSDOF 10
ENDMDL
MODEL      136
REMARK 921   NORMALIZED FREE ENERGY PREDICTED BY IDOCK:   -4.40 KCAL/MOL
REMARK 922        TOTAL FREE ENERGY PREDICTED BY IDOCK:   -9.89 KCAL/MOL
REMARK 923 INTER-LIGAND FREE ENERGY PREDICTED BY IDOCK:   -8.06 KCAL/MOL
REMARK 924 INTRA-LIGAND FREE ENERGY PREDICTED BY IDOCK:   -1.84 KCAL/MOL
REMARK 927      BINDING AFFINITY PREDICTED BY RF-SCORE:    0.00 PKD
ROOT
HETATM    1  C   UNL     1     -10.252  19.894  68.248  1.00  0.00    -0.562 C  
HETATM    2  C   UNL     1      -9.700  19.169  67.001  1.00  0.00    -0.389 C  
HETATM    3  C   UNL     1      -8.374  19.861  66.614  1.00  0.00    -0.369 C  
HETATM    4  C   UNL     1     -10.721  19.370  65.861  1.00  0.00    -0.501 C  
ENDROOT
BRANCH   2   5
HETATM    5  C   UNL     1      -9.449  17.673  67.234  1.00  0.00    -0.257 A  
HETATM    6  C   UNL     1      -9.317  17.116  68.514  1.00  0.00    -0.274 A  
HETATM    7  C   UNL     1      -9.065  15.748  68.694  1.00  0.00    -0.204 A  
HETATM    8  C   UNL     1      -8.932  14.904  67.590  1.00  0.00    -0.181 A  
HETATM    9  C   UNL     1      -9.324  16.804  66.133  1.00  0.00    -0.288 A  
HETATM   10  C   UNL     1      -9.070  15.442  66.307  1.00  0.00    -0.355 A  
BRANCH   8  11
HETATM   11  C   UNL     1      -8.640  13.460  67.818  1.00  0.00    -0.194 C  
HETATM   12  O   UNL     1      -9.429  12.777  68.468  1.00  0.00    -0.187 OA 
BRANCH  11  13
HETATM   13  C   UNL     1      -7.363  12.895  67.227  1.00  0.00    -0.077 C  
BRANCH  13  14
HETATM   14  C   UNL     1      -6.706  11.876  68.154  1.00  0.00    -0.062 C  
BRANCH  14  15
HETATM   15  C   UNL     1      -6.829  10.444  67.628  1.00  0.00    -0.075 C  
BRANCH  15  16
HETATM   16  N   UNL     1      -6.492   9.377  68.583  1.00  0.00    -0.052 NA 
HETATM   17  C   UNL     1      -6.839   9.643  69.988  1.00  0.00    -0.085 C  
HETATM   18  C   UNL     1      -8.326   9.504  70.338  1.00  0.00    -0.226 C  
HETATM   19  C   UNL     1      -8.948   8.200  69.824  1.00  0.00    -0.144 C  
HETATM   20  C   UNL     1      -8.598   8.040  68.343  1.00  0.00    -0.127 C  
HETATM   21  C   UNL     1      -7.074   8.092  68.157  1.00  0.00    -0.082 C  
BRANCH  19  22
HETATM   22  O   UNL     1      -8.473   7.000  70.434  1.00  0.00    -0.137 OA 
BRANCH  22  23
HETATM   23  C   UNL     1      -9.261   6.342  71.430  1.00  0.00    -0.149 C  
BRANCH  23  24
HETATM   24  C   UNL     1      -9.311   4.861  71.048  1.00  0.00    -0.209 A  
HETATM   25  C   UNL     1      -9.163   4.440  69.712  1.00  0.00    -0.199 A  
HETATM   26  C   UNL     1      -9.195   3.084  69.377  1.00  0.00    -0.214 A  
HETATM   27  C   UNL     1      -9.509   3.883  72.033  1.00  0.00    -0.198 A  
HETATM   28  C   UNL     1      -9.378   2.127  70.373  1.00  0.00    -0.187 A  
HETATM   29  C   UNL     1      -9.540   2.527  71.698  1.00  0.00    -0.217 A  
ENDBRANCH  23  24
BRANCH  23  30
HETATM   30  C   UNL     1     -10.646   6.949  71.598  1.00  0.00    -0.231 A  
HETATM   31  C   UNL     1     -13.167   8.174  71.852  1.00  0.00    -0.348 A  
HETATM   32  C   UNL     1     -12.109   8.583  72.659  1.00  0.00    -0.305 A  
HETATM   33  C   UNL     1     -11.737   6.515  70.827  1.00  0.00    -0.427 A  
HETATM   34  C   UNL     1     -12.985   7.130  70.945  1.00  0.00    -0.132 A  
HETATM   35  C   UNL     1     -10.857   7.974  72.536  1.00  0.00    -0.415 A  
ENDBRANCH  23  30
ENDBRANCH  22  23
ENDBRANCH  19  22
ENDBRANCH  15  16
ENDBRANCH  14  15
ENDBRANCH  13  14
ENDBRANCH  11  13
ENDBRANCH   8  11
ENDBRANCH   2   5
TORSDOF 10
ENDMDL
MODEL      137
REMARK 921   NORMALIZED FREE ENERGY PREDICTED BY IDOCK:   -4.39 KCAL/MOL
REMARK 922        TOTAL FREE ENERGY PREDICTED BY IDOCK:   -9.89 KCAL/MOL
REMARK 923 INTER-LIGAND FREE ENERGY PREDICTED BY IDOCK:   -7.17 KCAL/MOL
REMARK 924 INTRA-LIGAND FREE ENERGY PREDICTED BY IDOCK:   -2.72 KCAL/MOL
REMARK 927      BINDING AFFINITY PREDICTED BY RF-SCORE:    0.00 PKD
ROOT
HETATM    1  C   UNL     1      -5.284  12.840  68.731  1.00  0.00    -0.063 C  
HETATM    2  C   UNL     1      -6.535  11.943  68.855  1.00  0.00    -0.082 C  
HETATM    3  C   UNL     1      -7.703  12.842  69.317  1.00  0.00     0.462 C  
HETATM    4  C   UNL     1      -6.243  10.896  69.951  1.00  0.00    -0.117 C  
ENDROOT
BRANCH   2   5
HETATM    5  C   UNL     1      -6.910  11.247  67.540  1.00  0.00    -0.086 A  
HETATM    6  C   UNL     1      -6.322  11.577  66.311  1.00  0.00     0.094 A  
HETATM    7  C   UNL     1      -6.703  10.938  65.122  1.00  0.00     0.270 A  
HETATM    8  C   UNL     1      -7.694   9.955  65.136  1.00  0.00    -0.131 A  
HETATM    9  C   UNL     1      -7.899  10.244  67.536  1.00  0.00    -0.102 A  
HETATM   10  C   UNL     1      -8.285   9.608  66.355  1.00  0.00    -0.119 A  
BRANCH   8  11
HETATM   11  C   UNL     1      -8.092   9.315  63.850  1.00  0.00    -0.151 C  
HETATM   12  O   UNL     1      -7.310   8.553  63.285  1.00  0.00    -0.097 OA 
BRANCH  11  13
HETATM   13  C   UNL     1      -9.464   9.640  63.293  1.00  0.00     0.177 C  
BRANCH  13  14
HETATM   14  C   UNL     1      -9.612  11.123  62.969  1.00  0.00    -0.389 C  
BRANCH  14  15
HETATM   15  C   UNL     1     -10.568  11.838  63.927  1.00  0.00    -0.393 C  
BRANCH  15  16
HETATM   16  N   UNL     1      -9.943  12.516  65.073  1.00  0.00    -0.223 NA 
HETATM   17  C   UNL     1      -9.873  13.984  64.987  1.00  0.00    -0.039 C  
HETATM   18  C   UNL     1     -11.190  14.724  65.251  1.00  0.00    -0.366 C  
HETATM   19  C   UNL     1     -11.905  14.250  66.524  1.00  0.00    -0.415 C  
HETATM   20  C   UNL     1     -11.996  12.722  66.496  1.00  0.00    -0.428 C  
HETATM   21  C   UNL     1     -10.594  12.118  66.334  1.00  0.00    -0.241 C  
BRANCH  19  22
HETATM   22  O   UNL     1     -11.245  14.545  67.755  1.00  0.00    -0.275 OA 
BRANCH  22  23
HETATM   23  C   UNL     1     -11.659  15.666  68.540  1.00  0.00    -0.370 C  
BRANCH  23  24
HETATM   24  C   UNL     1     -10.552  16.716  68.431  1.00  0.00    -0.343 A  
HETATM   25  C   UNL     1      -9.197  16.349  68.319  1.00  0.00    -0.207 A  
HETATM   26  C   UNL     1      -8.196  17.317  68.204  1.00  0.00    -0.231 A  
HETATM   27  C   UNL     1     -10.869  18.083  68.441  1.00  0.00     0.009 A  
HETATM   28  C   UNL     1      -8.534  18.668  68.202  1.00  0.00    -0.336 A  
HETATM   29  C   UNL     1      -9.868  19.050  68.325  1.00  0.00    -0.440 A  
ENDBRANCH  23  24
BRANCH  23  30
HETATM   30  C   UNL     1     -11.980  15.304  69.983  1.00  0.00    -0.375 A  
HETATM   31  C   UNL     1     -12.482  14.547  72.646  1.00  0.00    -0.333 A  
HETATM   32  C   UNL     1     -12.875  13.717  71.600  1.00  0.00    -0.427 A  
HETATM   33  C   UNL     1     -11.635  16.151  71.048  1.00  0.00    -0.434 A  
HETATM   34  C   UNL     1     -11.875  15.771  72.370  1.00  0.00    -0.606 A  
HETATM   35  C   UNL     1     -12.628  14.092  70.277  1.00  0.00    -0.367 A  
ENDBRANCH  23  30
ENDBRANCH  22  23
ENDBRANCH  19  22
ENDBRANCH  15  16
ENDBRANCH  14  15
ENDBRANCH  13  14
ENDBRANCH  11  13
ENDBRANCH   8  11
ENDBRANCH   2   5
TORSDOF 10
ENDMDL
MODEL      138
REMARK 921   NORMALIZED FREE ENERGY PREDICTED BY IDOCK:   -4.36 KCAL/MOL
REMARK 922        TOTAL FREE ENERGY PREDICTED BY IDOCK:   -9.84 KCAL/MOL
REMARK 923 INTER-LIGAND FREE ENERGY PREDICTED BY IDOCK:   -8.19 KCAL/MOL
REMARK 924 INTRA-LIGAND FREE ENERGY PREDICTED BY IDOCK:   -1.65 KCAL/MOL
REMARK 927      BINDING AFFINITY PREDICTED BY RF-SCORE:    0.00 PKD
ROOT
HETATM    1  C   UNL     1     -12.160  12.944  66.000  1.00  0.00    -0.484 C  
HETATM    2  C   UNL     1     -11.344  13.014  64.692  1.00  0.00    -0.361 C  
HETATM    3  C   UNL     1     -10.680  14.407  64.635  1.00  0.00    -0.357 C  
HETATM    4  C   UNL     1     -12.340  12.884  63.519  1.00  0.00    -0.521 C  
ENDROOT
BRANCH   2   5
HETATM    5  C   UNL     1     -10.265  11.926  64.596  1.00  0.00    -0.316 A  
HETATM    6  C   UNL     1      -9.461  11.555  65.683  1.00  0.00    -0.244 A  
HETATM    7  C   UNL     1      -8.467  10.574  65.558  1.00  0.00    -0.177 A  
HETATM    8  C   UNL     1      -8.250   9.943  64.332  1.00  0.00    -0.164 A  
HETATM    9  C   UNL     1     -10.039  11.270  63.371  1.00  0.00    -0.445 A  
HETATM   10  C   UNL     1      -9.048  10.295  63.240  1.00  0.00    -0.284 A  
BRANCH   8  11
HETATM   11  C   UNL     1      -7.168   8.922  64.229  1.00  0.00    -0.091 C  
HETATM   12  O   UNL     1      -7.442   7.785  63.849  1.00  0.00    -0.092 OA 
BRANCH  11  13
HETATM   13  C   UNL     1      -5.761   9.343  64.605  1.00  0.00    -0.069 C  
BRANCH  13  14
HETATM   14  C   UNL     1      -5.242   8.583  65.821  1.00  0.00    -0.031 C  
BRANCH  14  15
HETATM   15  C   UNL     1      -5.286   9.425  67.099  1.00  0.00    -0.036 C  
BRANCH  15  16
HETATM   16  N   UNL     1      -5.622   8.701  68.335  1.00  0.00    -0.038 NA 
HETATM   17  C   UNL     1      -5.792   9.533  69.537  1.00  0.00    -0.033 C  
HETATM   18  C   UNL     1      -7.111  10.312  69.619  1.00  0.00    -0.125 C  
HETATM   19  C   UNL     1      -8.344   9.445  69.335  1.00  0.00    -0.125 C  
HETATM   20  C   UNL     1      -8.110   8.671  68.035  1.00  0.00    -0.111 C  
HETATM   21  C   UNL     1      -6.813   7.856  68.138  1.00  0.00    -0.068 C  
BRANCH  19  22
HETATM   22  O   UNL     1      -8.633   8.436  70.303  1.00  0.00    -0.121 OA 
BRANCH  22  23
HETATM   23  C   UNL     1      -9.954   7.900  70.407  1.00  0.00    -0.192 C  
BRANCH  23  24
HETATM   24  C   UNL     1     -10.915   9.090  70.429  1.00  0.00    -0.283 A  
HETATM   25  C   UNL     1     -11.677   9.400  71.573  1.00  0.00    -0.465 A  
HETATM   26  C   UNL     1     -12.539  10.499  71.586  1.00  0.00    -0.498 A  
HETATM   27  C   UNL     1     -11.059   9.905  69.297  1.00  0.00    -0.220 A  
HETATM   28  C   UNL     1     -12.656  11.304  70.455  1.00  0.00    -0.331 A  
HETATM   29  C   UNL     1     -11.921  11.004  69.311  1.00  0.00    -0.410 A  
ENDBRANCH  23  24
BRANCH  23  30
HETATM   30  C   UNL     1     -10.136   6.980  71.607  1.00  0.00    -0.194 A  
HETATM   31  C   UNL     1     -10.540   5.370  73.878  1.00  0.00    -0.324 A  
HETATM   32  C   UNL     1      -9.678   6.462  73.942  1.00  0.00    -0.228 A  
HETATM   33  C   UNL     1     -10.962   5.847  71.546  1.00  0.00    -0.323 A  
HETATM   34  C   UNL     1     -11.171   5.053  72.676  1.00  0.00    -0.239 A  
HETATM   35  C   UNL     1      -9.475   7.261  72.814  1.00  0.00    -0.190 A  
ENDBRANCH  23  30
ENDBRANCH  22  23
ENDBRANCH  19  22
ENDBRANCH  15  16
ENDBRANCH  14  15
ENDBRANCH  13  14
ENDBRANCH  11  13
ENDBRANCH   8  11
ENDBRANCH   2   5
TORSDOF 10
ENDMDL
MODEL      139
REMARK 921   NORMALIZED FREE ENERGY PREDICTED BY IDOCK:   -4.35 KCAL/MOL
REMARK 922        TOTAL FREE ENERGY PREDICTED BY IDOCK:   -9.82 KCAL/MOL
REMARK 923 INTER-LIGAND FREE ENERGY PREDICTED BY IDOCK:   -7.03 KCAL/MOL
REMARK 924 INTRA-LIGAND FREE ENERGY PREDICTED BY IDOCK:   -2.79 KCAL/MOL
REMARK 927      BINDING AFFINITY PREDICTED BY RF-SCORE:    0.00 PKD
ROOT
HETATM    1  C   UNL     1      -9.825   6.486  74.300  1.00  0.00    -0.337 C  
HETATM    2  C   UNL     1      -8.447   6.617  73.617  1.00  0.00    -0.134 C  
HETATM    3  C   UNL     1      -7.403   5.970  74.554  1.00  0.00    -0.090 C  
HETATM    4  C   UNL     1      -8.138   8.125  73.488  1.00  0.00    -0.261 C  
ENDROOT
BRANCH   2   5
HETATM    5  C   UNL     1      -8.389   5.943  72.240  1.00  0.00    -0.118 A  
HETATM    6  C   UNL     1      -9.536   5.512  71.557  1.00  0.00    -0.179 A  
HETATM    7  C   UNL     1      -9.449   4.877  70.309  1.00  0.00    -0.238 A  
HETATM    8  C   UNL     1      -8.205   4.651  69.718  1.00  0.00    -0.069 A  
HETATM    9  C   UNL     1      -7.145   5.716  71.622  1.00  0.00    -0.080 A  
HETATM   10  C   UNL     1      -7.053   5.081  70.382  1.00  0.00    -0.053 A  
BRANCH   8  11
HETATM   11  C   UNL     1      -8.149   3.951  68.403  1.00  0.00    -0.075 C  
HETATM   12  O   UNL     1      -8.792   2.916  68.239  1.00  0.00    -0.097 OA 
BRANCH  11  13
HETATM   13  C   UNL     1      -7.289   4.561  67.314  1.00  0.00    -0.074 C  
BRANCH  13  14
HETATM   14  C   UNL     1      -8.049   4.707  65.999  1.00  0.00    -0.103 C  
BRANCH  14  15
HETATM   15  C   UNL     1      -8.331   6.169  65.646  1.00  0.00    -0.146 C  
BRANCH  15  16
HETATM   16  N   UNL     1      -8.259   7.126  66.761  1.00  0.00    -0.112 NA 
HETATM   17  C   UNL     1      -7.659   8.432  66.445  1.00  0.00    -0.084 C  
HETATM   18  C   UNL     1      -8.555   9.397  65.658  1.00  0.00    -0.159 C  
HETATM   19  C   UNL     1      -9.963   9.533  66.251  1.00  0.00    -0.274 C  
HETATM   20  C   UNL     1     -10.537   8.133  66.481  1.00  0.00     0.128 C  
HETATM   21  C   UNL     1      -9.587   7.319  67.371  1.00  0.00    -0.142 C  
BRANCH  19  22
HETATM   22  O   UNL     1     -10.043  10.165  67.529  1.00  0.00    -0.182 OA 
BRANCH  22  23
HETATM   23  C   UNL     1     -11.308  10.596  68.038  1.00  0.00    -0.278 C  
BRANCH  23  24
HETATM   24  C   UNL     1     -11.384  12.107  67.813  1.00  0.00    -0.371 A  
HETATM   25  C   UNL     1     -11.657  12.649  66.541  1.00  0.00    -0.441 A  
HETATM   26  C   UNL     1     -11.741  14.031  66.351  1.00  0.00    -0.407 A  
HETATM   27  C   UNL     1     -11.181  12.993  68.881  1.00  0.00    -0.326 A  
HETATM   28  C   UNL     1     -11.550  14.893  67.429  1.00  0.00    -0.347 A  
HETATM   29  C   UNL     1     -11.266  14.374  68.690  1.00  0.00    -0.280 A  
ENDBRANCH  23  24
BRANCH  23  30
HETATM   30  C   UNL     1     -11.531  10.211  69.494  1.00  0.00    -0.227 A  
HETATM   31  C   UNL     1     -11.851   9.575  72.216  1.00  0.00     0.127 A  
HETATM   32  C   UNL     1     -10.764   9.072  71.506  1.00  0.00    -0.421 A  
HETATM   33  C   UNL     1     -12.647  10.669  70.212  1.00  0.00    -0.333 A  
HETATM   34  C   UNL     1     -12.801  10.362  71.566  1.00  0.00    -0.569 A  
HETATM   35  C   UNL     1     -10.605   9.385  70.153  1.00  0.00    -0.279 A  
ENDBRANCH  23  30
ENDBRANCH  22  23
ENDBRANCH  19  22
ENDBRANCH  15  16
ENDBRANCH  14  15
ENDBRANCH  13  14
ENDBRANCH  11  13
ENDBRANCH   8  11
ENDBRANCH   2   5
TORSDOF 10
ENDMDL
MODEL      140
REMARK 921   NORMALIZED FREE ENERGY PREDICTED BY IDOCK:   -4.35 KCAL/MOL
REMARK 922        TOTAL FREE ENERGY PREDICTED BY IDOCK:   -9.82 KCAL/MOL
REMARK 923 INTER-LIGAND FREE ENERGY PREDICTED BY IDOCK:   -8.29 KCAL/MOL
REMARK 924 INTRA-LIGAND FREE ENERGY PREDICTED BY IDOCK:   -1.52 KCAL/MOL
REMARK 927      BINDING AFFINITY PREDICTED BY RF-SCORE:    0.00 PKD
ROOT
HETATM    1  C   UNL     1     -12.324   6.984  71.998  1.00  0.00    -0.302 C  
HETATM    2  C   UNL     1     -10.989   6.207  71.989  1.00  0.00    -0.305 C  
HETATM    3  C   UNL     1     -11.149   5.003  72.943  1.00  0.00    -0.348 C  
HETATM    4  C   UNL     1      -9.903   7.150  72.548  1.00  0.00    -0.183 C  
ENDROOT
BRANCH   2   5
HETATM    5  C   UNL     1     -10.593   5.707  70.593  1.00  0.00    -0.347 A  
HETATM    6  C   UNL     1      -9.629   4.709  70.389  1.00  0.00    -0.271 A  
HETATM    7  C   UNL     1      -9.271   4.290  69.099  1.00  0.00    -0.209 A  
HETATM    8  C   UNL     1      -9.868   4.869  67.979  1.00  0.00    -0.197 A  
HETATM    9  C   UNL     1     -11.193   6.270  69.450  1.00  0.00    -0.489 A  
HETATM   10  C   UNL     1     -10.837   5.859  68.165  1.00  0.00    -0.323 A  
BRANCH   8  11
HETATM   11  C   UNL     1      -9.446   4.416  66.622  1.00  0.00    -0.179 C  
HETATM   12  O   UNL     1      -9.741   3.285  66.242  1.00  0.00    -0.066 OA 
BRANCH  11  13
HETATM   13  C   UNL     1      -8.660   5.388  65.765  1.00  0.00    -0.139 C  
BRANCH  13  14
HETATM   14  C   UNL     1      -8.048   6.514  66.593  1.00  0.00    -0.110 C  
BRANCH  14  15
HETATM   15  C   UNL     1      -8.564   7.893  66.177  1.00  0.00    -0.150 C  
BRANCH  15  16
HETATM   16  N   UNL     1      -7.992   9.040  66.899  1.00  0.00    -0.104 NA 
HETATM   17  C   UNL     1      -7.636  10.204  66.071  1.00  0.00    -0.118 C  
HETATM   18  C   UNL     1      -8.815  11.068  65.606  1.00  0.00    -0.187 C  
HETATM   19  C   UNL     1      -9.778  11.437  66.741  1.00  0.00    -0.198 C  
HETATM   20  C   UNL     1     -10.150  10.162  67.503  1.00  0.00    -0.244 C  
HETATM   21  C   UNL     1      -8.878   9.460  67.999  1.00  0.00    -0.124 C  
BRANCH  19  22
HETATM   22  O   UNL     1      -9.256  12.310  67.743  1.00  0.00    -0.177 OA 
BRANCH  22  23
HETATM   23  C   UNL     1      -9.875  13.577  67.982  1.00  0.00    -0.238 C  
BRANCH  23  24
HETATM   24  C   UNL     1     -10.703  13.908  66.739  1.00  0.00    -0.281 A  
HETATM   25  C   UNL     1     -12.070  13.576  66.655  1.00  0.00    -0.447 A  
HETATM   26  C   UNL     1     -12.820  13.898  65.522  1.00  0.00    -0.471 A  
HETATM   27  C   UNL     1     -10.110  14.554  65.645  1.00  0.00    -0.384 A  
HETATM   28  C   UNL     1     -12.214  14.553  64.451  1.00  0.00    -0.480 A  
HETATM   29  C   UNL     1     -10.861  14.876  64.512  1.00  0.00    -0.162 A  
ENDBRANCH  23  24
BRANCH  23  30
HETATM   30  C   UNL     1      -8.879  14.675  68.329  1.00  0.00    -0.176 A  
HETATM   31  C   UNL     1      -6.990  16.693  68.856  1.00  0.00    -0.200 A  
HETATM   32  C   UNL     1      -6.591  15.360  68.804  1.00  0.00    -0.106 A  
HETATM   33  C   UNL     1      -9.274  16.018  68.434  1.00  0.00    -0.196 A  
HETATM   34  C   UNL     1      -8.335  17.021  68.685  1.00  0.00    -0.264 A  
HETATM   35  C   UNL     1      -7.528  14.357  68.545  1.00  0.00    -0.122 A  
ENDBRANCH  23  30
ENDBRANCH  22  23
ENDBRANCH  19  22
ENDBRANCH  15  16
ENDBRANCH  14  15
ENDBRANCH  13  14
ENDBRANCH  11  13
ENDBRANCH   8  11
ENDBRANCH   2   5
TORSDOF 10
ENDMDL
MODEL      141
REMARK 921   NORMALIZED FREE ENERGY PREDICTED BY IDOCK:   -4.34 KCAL/MOL
REMARK 922        TOTAL FREE ENERGY PREDICTED BY IDOCK:   -9.80 KCAL/MOL
REMARK 923 INTER-LIGAND FREE ENERGY PREDICTED BY IDOCK:   -7.11 KCAL/MOL
REMARK 924 INTRA-LIGAND FREE ENERGY PREDICTED BY IDOCK:   -2.69 KCAL/MOL
REMARK 927      BINDING AFFINITY PREDICTED BY RF-SCORE:    0.00 PKD
ROOT
HETATM    1  C   UNL     1     -12.025  15.438  64.078  1.00  0.00     0.007 C  
HETATM    2  C   UNL     1     -11.352  14.539  65.138  1.00  0.00    -0.366 C  
HETATM    3  C   UNL     1     -10.568  13.443  64.385  1.00  0.00    -0.423 C  
HETATM    4  C   UNL     1     -12.478  13.876  65.961  1.00  0.00    -0.501 C  
ENDROOT
BRANCH   2   5
HETATM    5  C   UNL     1     -10.400  15.309  66.064  1.00  0.00    -0.327 A  
HETATM    6  C   UNL     1      -9.172  15.827  65.629  1.00  0.00    -0.123 A  
HETATM    7  C   UNL     1      -8.312  16.506  66.505  1.00  0.00    -0.327 A  
HETATM    8  C   UNL     1      -8.661  16.674  67.845  1.00  0.00    -0.193 A  
HETATM    9  C   UNL     1     -10.740  15.500  67.417  1.00  0.00    -0.301 A  
HETATM   10  C   UNL     1      -9.886  16.171  68.294  1.00  0.00    -0.224 A  
BRANCH   8  11
HETATM   11  C   UNL     1      -7.712  17.379  68.754  1.00  0.00    -0.258 C  
HETATM   12  O   UNL     1      -7.781  18.601  68.873  1.00  0.00    -0.301 OA 
BRANCH  11  13
HETATM   13  C   UNL     1      -6.691  16.541  69.498  1.00  0.00    -0.198 C  
BRANCH  13  14
HETATM   14  C   UNL     1      -5.962  15.573  68.571  1.00  0.00    -0.097 C  
BRANCH  14  15
HETATM   15  C   UNL     1      -5.705  14.215  69.229  1.00  0.00    -0.084 C  
BRANCH  15  16
HETATM   16  N   UNL     1      -6.885  13.357  69.414  1.00  0.00    -0.049 NA 
HETATM   17  C   UNL     1      -7.768  13.223  68.244  1.00  0.00    -0.141 C  
HETATM   18  C   UNL     1      -7.255  12.299  67.133  1.00  0.00    -0.100 C  
HETATM   19  C   UNL     1      -6.770  10.940  67.653  1.00  0.00    -0.069 C  
HETATM   20  C   UNL     1      -5.806  11.175  68.817  1.00  0.00    -0.043 C  
HETATM   21  C   UNL     1      -6.490  12.023  69.899  1.00  0.00    -0.029 C  
BRANCH  19  22
HETATM   22  O   UNL     1      -7.777  10.083  68.192  1.00  0.00    -0.084 OA 
BRANCH  22  23
HETATM   23  C   UNL     1      -8.097   8.852  67.538  1.00  0.00    -0.109 C  
BRANCH  23  24
HETATM   24  C   UNL     1      -8.521   9.206  66.112  1.00  0.00    -0.136 A  
HETATM   25  C   UNL     1      -9.692   9.945  65.853  1.00  0.00    -0.326 A  
HETATM   26  C   UNL     1     -10.061  10.276  64.546  1.00  0.00    -0.286 A  
HETATM   27  C   UNL     1      -7.743   8.795  65.020  1.00  0.00    -0.105 A  
HETATM   28  C   UNL     1      -9.265   9.870  63.477  1.00  0.00    -0.279 A  
HETATM   29  C   UNL     1      -8.112   9.126  63.714  1.00  0.00    -0.156 A  
ENDBRANCH  23  24
BRANCH  23  30
HETATM   30  C   UNL     1      -9.151   8.038  68.275  1.00  0.00    -0.135 A  
HETATM   31  C   UNL     1     -11.178   6.628  69.625  1.00  0.00    -0.397 A  
HETATM   32  C   UNL     1     -10.520   7.680  70.258  1.00  0.00    -0.224 A  
HETATM   33  C   UNL     1      -9.790   6.943  67.671  1.00  0.00    -0.164 A  
HETATM   34  C   UNL     1     -10.803   6.250  68.337  1.00  0.00    -0.394 A  
HETATM   35  C   UNL     1      -9.512   8.379  69.590  1.00  0.00    -0.166 A  
ENDBRANCH  23  30
ENDBRANCH  22  23
ENDBRANCH  19  22
ENDBRANCH  15  16
ENDBRANCH  14  15
ENDBRANCH  13  14
ENDBRANCH  11  13
ENDBRANCH   8  11
ENDBRANCH   2   5
TORSDOF 10
ENDMDL
MODEL      142
REMARK 921   NORMALIZED FREE ENERGY PREDICTED BY IDOCK:   -4.34 KCAL/MOL
REMARK 922        TOTAL FREE ENERGY PREDICTED BY IDOCK:   -9.80 KCAL/MOL
REMARK 923 INTER-LIGAND FREE ENERGY PREDICTED BY IDOCK:   -7.77 KCAL/MOL
REMARK 924 INTRA-LIGAND FREE ENERGY PREDICTED BY IDOCK:   -2.03 KCAL/MOL
REMARK 927      BINDING AFFINITY PREDICTED BY RF-SCORE:    0.00 PKD
ROOT
HETATM    1  C   UNL     1     -11.334   7.243  72.777  1.00  0.00    -0.318 C  
HETATM    2  C   UNL     1     -12.191   7.595  71.541  1.00  0.00    -0.351 C  
HETATM    3  C   UNL     1     -13.633   7.123  71.830  1.00  0.00    -0.352 C  
HETATM    4  C   UNL     1     -11.630   6.794  70.347  1.00  0.00    -0.422 C  
ENDROOT
BRANCH   2   5
HETATM    5  C   UNL     1     -12.196   9.096  71.219  1.00  0.00    -0.395 A  
HETATM    6  C   UNL     1     -11.283   9.686  70.334  1.00  0.00    -0.342 A  
HETATM    7  C   UNL     1     -11.299  11.065  70.078  1.00  0.00    -0.358 A  
HETATM    8  C   UNL     1     -12.229  11.889  70.712  1.00  0.00    -0.401 A  
HETATM    9  C   UNL     1     -13.135   9.942  71.840  1.00  0.00    -0.559 A  
HETATM   10  C   UNL     1     -13.152  11.316  71.592  1.00  0.00    -0.513 A  
BRANCH   8  11
HETATM   11  C   UNL     1     -12.200  13.354  70.435  1.00  0.00    -0.345 C  
HETATM   12  O   UNL     1     -12.189  14.149  71.373  1.00  0.00    -0.343 OA 
BRANCH  11  13
HETATM   13  C   UNL     1     -12.185  13.799  68.986  1.00  0.00    -0.259 C  
BRANCH  13  14
HETATM   14  C   UNL     1     -10.900  13.386  68.275  1.00  0.00    -0.275 C  
BRANCH  14  15
HETATM   15  C   UNL     1     -11.165  12.772  66.899  1.00  0.00    -0.296 C  
BRANCH  15  16
HETATM   16  N   UNL     1      -9.987  12.254  66.187  1.00  0.00    -0.238 NA 
HETATM   17  C   UNL     1      -8.748  12.171  66.978  1.00  0.00    -0.190 C  
HETATM   18  C   UNL     1      -8.677  11.004  67.972  1.00  0.00    -0.138 C  
HETATM   19  C   UNL     1      -9.059   9.656  67.349  1.00  0.00    -0.130 C  
HETATM   20  C   UNL     1     -10.389   9.816  66.609  1.00  0.00    -0.276 C  
HETATM   21  C   UNL     1     -10.279  10.946  65.574  1.00  0.00    -0.271 C  
BRANCH  19  22
HETATM   22  O   UNL     1      -8.161   9.148  66.362  1.00  0.00    -0.112 OA 
BRANCH  22  23
HETATM   23  C   UNL     1      -8.123   7.747  66.080  1.00  0.00    -0.117 C  
BRANCH  23  24
HETATM   24  C   UNL     1      -7.690   7.047  67.370  1.00  0.00    -0.110 A  
HETATM   25  C   UNL     1      -8.598   6.295  68.140  1.00  0.00    -0.116 A  
HETATM   26  C   UNL     1      -8.187   5.647  69.308  1.00  0.00    -0.096 A  
HETATM   27  C   UNL     1      -6.364   7.144  67.816  1.00  0.00    -0.044 A  
HETATM   28  C   UNL     1      -6.862   5.744  69.726  1.00  0.00    -0.061 A  
HETATM   29  C   UNL     1      -5.954   6.495  68.984  1.00  0.00    -0.022 A  
ENDBRANCH  23  24
BRANCH  23  30
HETATM   30  C   UNL     1      -7.230   7.397  64.898  1.00  0.00    -0.067 A  
HETATM   31  C   UNL     1      -5.677   6.699  62.658  1.00  0.00    -0.034 A  
HETATM   32  C   UNL     1      -6.094   5.715  63.551  1.00  0.00    -0.024 A  
HETATM   33  C   UNL     1      -6.759   8.382  64.016  1.00  0.00    -0.075 A  
HETATM   34  C   UNL     1      -5.996   8.034  62.898  1.00  0.00    -0.076 A  
HETATM   35  C   UNL     1      -6.864   6.060  64.665  1.00  0.00    -0.047 A  
ENDBRANCH  23  30
ENDBRANCH  22  23
ENDBRANCH  19  22
ENDBRANCH  15  16
ENDBRANCH  14  15
ENDBRANCH  13  14
ENDBRANCH  11  13
ENDBRANCH   8  11
ENDBRANCH   2   5
TORSDOF 10
ENDMDL
MODEL      143
REMARK 921   NORMALIZED FREE ENERGY PREDICTED BY IDOCK:   -4.32 KCAL/MOL
REMARK 922        TOTAL FREE ENERGY PREDICTED BY IDOCK:   -9.77 KCAL/MOL
REMARK 923 INTER-LIGAND FREE ENERGY PREDICTED BY IDOCK:   -6.66 KCAL/MOL
REMARK 924 INTRA-LIGAND FREE ENERGY PREDICTED BY IDOCK:   -3.11 KCAL/MOL
REMARK 927      BINDING AFFINITY PREDICTED BY RF-SCORE:    0.00 PKD
ROOT
HETATM    1  C   UNL     1     -12.781  15.239  69.543  1.00  0.00     0.107 C  
HETATM    2  C   UNL     1     -11.743  14.233  69.000  1.00  0.00    -0.352 C  
HETATM    3  C   UNL     1     -12.327  13.619  67.708  1.00  0.00    -0.018 C  
HETATM    4  C   UNL     1     -11.584  13.119  70.057  1.00  0.00    -0.202 C  
ENDROOT
BRANCH   2   5
HETATM    5  C   UNL     1     -10.383  14.875  68.695  1.00  0.00    -0.237 A  
HETATM    6  C   UNL     1      -9.549  15.398  69.693  1.00  0.00    -0.233 A  
HETATM    7  C   UNL     1      -8.322  16.000  69.381  1.00  0.00    -0.139 A  
HETATM    8  C   UNL     1      -7.903  16.100  68.053  1.00  0.00    -0.150 A  
HETATM    9  C   UNL     1      -9.938  14.974  67.363  1.00  0.00    -0.226 A  
HETATM   10  C   UNL     1      -8.719  15.576  67.046  1.00  0.00    -0.258 A  
BRANCH   8  11
HETATM   11  C   UNL     1      -6.604  16.768  67.756  1.00  0.00    -0.144 C  
HETATM   12  O   UNL     1      -6.563  17.992  67.647  1.00  0.00    -0.180 OA 
BRANCH  11  13
HETATM   13  C   UNL     1      -5.377  15.891  67.601  1.00  0.00    -0.135 C  
BRANCH  13  14
HETATM   14  C   UNL     1      -5.391  14.714  68.571  1.00  0.00    -0.103 C  
BRANCH  14  15
HETATM   15  C   UNL     1      -5.159  13.374  67.867  1.00  0.00    -0.091 C  
BRANCH  15  16
HETATM   16  N   UNL     1      -6.321  12.807  67.165  1.00  0.00    -0.232 NA 
HETATM   17  C   UNL     1      -6.043  11.644  66.307  1.00  0.00     0.198 C  
HETATM   18  C   UNL     1      -5.824  10.317  67.043  1.00  0.00    -0.050 C  
HETATM   19  C   UNL     1      -6.906  10.021  68.089  1.00  0.00    -0.064 C  
HETATM   20  C   UNL     1      -7.079  11.254  68.980  1.00  0.00    -0.116 C  
HETATM   21  C   UNL     1      -7.399  12.482  68.116  1.00  0.00    -0.110 C  
BRANCH  19  22
HETATM   22  O   UNL     1      -8.214   9.766  67.578  1.00  0.00    -0.113 OA 
BRANCH  22  23
HETATM   23  C   UNL     1      -8.376   9.154  66.295  1.00  0.00    -0.119 C  
BRANCH  23  24
HETATM   24  C   UNL     1      -9.152  10.146  65.426  1.00  0.00    -0.227 A  
HETATM   25  C   UNL     1     -10.117  11.011  65.978  1.00  0.00    -0.297 A  
HETATM   26  C   UNL     1     -10.808  11.924  65.178  1.00  0.00    -0.350 A  
HETATM   27  C   UNL     1      -8.915  10.214  64.046  1.00  0.00    -0.265 A  
HETATM   28  C   UNL     1     -10.547  11.984  63.810  1.00  0.00    -0.478 A  
HETATM   29  C   UNL     1      -9.606  11.127  63.245  1.00  0.00    -0.371 A  
ENDBRANCH  23  24
BRANCH  23  30
HETATM   30  C   UNL     1      -9.045   7.789  66.361  1.00  0.00    -0.216 A  
HETATM   31  C   UNL     1     -10.366   5.304  66.401  1.00  0.00    -0.315 A  
HETATM   32  C   UNL     1     -10.943   6.411  67.019  1.00  0.00    -0.463 A  
HETATM   33  C   UNL     1      -8.455   6.652  65.786  1.00  0.00    -0.150 A  
HETATM   34  C   UNL     1      -9.115   5.421  65.797  1.00  0.00    -0.160 A  
HETATM   35  C   UNL     1     -10.287   7.644  67.002  1.00  0.00    -0.400 A  
ENDBRANCH  23  30
ENDBRANCH  22  23
ENDBRANCH  19  22
ENDBRANCH  15  16
ENDBRANCH  14  15
ENDBRANCH  13  14
ENDBRANCH  11  13
ENDBRANCH   8  11
ENDBRANCH   2   5
TORSDOF 10
ENDMDL
MODEL      144
REMARK 921   NORMALIZED FREE ENERGY PREDICTED BY IDOCK:   -4.31 KCAL/MOL
REMARK 922        TOTAL FREE ENERGY PREDICTED BY IDOCK:   -9.76 KCAL/MOL
REMARK 923 INTER-LIGAND FREE ENERGY PREDICTED BY IDOCK:   -7.03 KCAL/MOL
REMARK 924 INTRA-LIGAND FREE ENERGY PREDICTED BY IDOCK:   -2.73 KCAL/MOL
REMARK 927      BINDING AFFINITY PREDICTED BY RF-SCORE:    0.00 PKD
ROOT
HETATM    1  C   UNL     1     -10.502  10.928  63.314  1.00  0.00    -0.145 C  
HETATM    2  C   UNL     1      -9.101  10.298  63.151  1.00  0.00    -0.287 C  
HETATM    3  C   UNL     1      -8.241  11.289  62.336  1.00  0.00    -0.118 C  
HETATM    4  C   UNL     1      -9.273   8.997  62.339  1.00  0.00     0.226 C  
ENDROOT
BRANCH   2   5
HETATM    5  C   UNL     1      -8.414  10.002  64.491  1.00  0.00    -0.180 A  
HETATM    6  C   UNL     1      -7.020   9.934  64.631  1.00  0.00    -0.133 A  
HETATM    7  C   UNL     1      -6.422   9.638  65.864  1.00  0.00    -0.079 A  
HETATM    8  C   UNL     1      -7.210   9.395  66.990  1.00  0.00    -0.087 A  
HETATM    9  C   UNL     1      -9.192   9.767  65.641  1.00  0.00    -0.252 A  
HETATM   10  C   UNL     1      -8.601   9.468  66.870  1.00  0.00    -0.132 A  
BRANCH   8  11
HETATM   11  C   UNL     1      -6.541   9.060  68.280  1.00  0.00    -0.060 C  
HETATM   12  O   UNL     1      -6.921   8.084  68.924  1.00  0.00    -0.059 OA 
BRANCH  11  13
HETATM   13  C   UNL     1      -5.405   9.952  68.739  1.00  0.00    -0.036 C  
BRANCH  13  14
HETATM   14  C   UNL     1      -5.906  11.305  69.236  1.00  0.00    -0.049 C  
BRANCH  14  15
HETATM   15  C   UNL     1      -5.136  12.475  68.621  1.00  0.00    -0.056 C  
BRANCH  15  16
HETATM   16  N   UNL     1      -5.852  13.247  67.594  1.00  0.00    -0.259 NA 
HETATM   17  C   UNL     1      -7.223  12.800  67.297  1.00  0.00    -0.082 C  
HETATM   18  C   UNL     1      -8.282  13.180  68.339  1.00  0.00    -0.130 C  
HETATM   19  C   UNL     1      -8.229  14.659  68.742  1.00  0.00    -0.156 C  
HETATM   20  C   UNL     1      -6.786  15.019  69.102  1.00  0.00    -0.126 C  
HETATM   21  C   UNL     1      -5.856  14.683  67.927  1.00  0.00    -0.130 C  
BRANCH  19  22
HETATM   22  O   UNL     1      -8.587  15.595  67.726  1.00  0.00    -0.159 OA 
BRANCH  22  23
HETATM   23  C   UNL     1      -9.879  16.208  67.738  1.00  0.00    -0.232 C  
BRANCH  23  24
HETATM   24  C   UNL     1     -10.749  15.427  66.750  1.00  0.00    -0.310 A  
HETATM   25  C   UNL     1     -11.681  14.466  67.189  1.00  0.00    -0.424 A  
HETATM   26  C   UNL     1     -12.481  13.772  66.278  1.00  0.00    -0.441 A  
HETATM   27  C   UNL     1     -10.633  15.656  65.371  1.00  0.00    -0.436 A  
HETATM   28  C   UNL     1     -12.360  14.025  64.913  1.00  0.00    -0.447 A  
HETATM   29  C   UNL     1     -11.434  14.962  64.461  1.00  0.00    -0.328 A  
ENDBRANCH  23  24
BRANCH  23  30
HETATM   30  C   UNL     1      -9.840  17.698  67.430  1.00  0.00    -0.305 A  
HETATM   31  C   UNL     1      -9.765  20.475  66.982  1.00  0.00    -0.548 A  
HETATM   32  C   UNL     1     -10.932  19.875  67.446  1.00  0.00    -0.233 A  
HETATM   33  C   UNL     1      -8.687  18.311  66.915  1.00  0.00    -0.273 A  
HETATM   34  C   UNL     1      -8.646  19.691  66.702  1.00  0.00    -0.380 A  
HETATM   35  C   UNL     1     -10.972  18.495  67.667  1.00  0.00    -0.185 A  
ENDBRANCH  23  30
ENDBRANCH  22  23
ENDBRANCH  19  22
ENDBRANCH  15  16
ENDBRANCH  14  15
ENDBRANCH  13  14
ENDBRANCH  11  13
ENDBRANCH   8  11
ENDBRANCH   2   5
TORSDOF 10
ENDMDL
MODEL      145
REMARK 921   NORMALIZED FREE ENERGY PREDICTED BY IDOCK:   -4.29 KCAL/MOL
REMARK 922        TOTAL FREE ENERGY PREDICTED BY IDOCK:   -9.72 KCAL/MOL
REMARK 923 INTER-LIGAND FREE ENERGY PREDICTED BY IDOCK:   -6.71 KCAL/MOL
REMARK 924 INTRA-LIGAND FREE ENERGY PREDICTED BY IDOCK:   -3.01 KCAL/MOL
REMARK 927      BINDING AFFINITY PREDICTED BY RF-SCORE:    0.00 PKD
ROOT
HETATM    1  C   UNL     1     -11.435   9.635  71.535  1.00  0.00    -0.439 C  
HETATM    2  C   UNL     1     -12.606  10.474  70.979  1.00  0.00    -0.499 C  
HETATM    3  C   UNL     1     -13.133  11.354  72.134  1.00  0.00    -0.276 C  
HETATM    4  C   UNL     1     -13.716   9.490  70.551  1.00  0.00     0.451 C  
ENDROOT
BRANCH   2   5
HETATM    5  C   UNL     1     -12.201  11.366  69.798  1.00  0.00    -0.332 A  
HETATM    6  C   UNL     1     -12.156  12.765  69.882  1.00  0.00    -0.329 A  
HETATM    7  C   UNL     1     -11.804  13.554  68.777  1.00  0.00    -0.390 A  
HETATM    8  C   UNL     1     -11.495  12.957  67.554  1.00  0.00    -0.386 A  
HETATM    9  C   UNL     1     -11.874  10.782  68.559  1.00  0.00    -0.168 A  
HETATM   10  C   UNL     1     -11.527  11.563  67.455  1.00  0.00    -0.349 A  
BRANCH   8  11
HETATM   11  C   UNL     1     -11.150  13.828  66.394  1.00  0.00    -0.308 C  
HETATM   12  O   UNL     1     -12.050  14.320  65.716  1.00  0.00    -0.395 OA 
BRANCH  11  13
HETATM   13  C   UNL     1      -9.681  14.069  66.104  1.00  0.00    -0.300 C  
BRANCH  13  14
HETATM   14  C   UNL     1      -8.855  14.163  67.383  1.00  0.00    -0.211 C  
BRANCH  14  15
HETATM   15  C   UNL     1      -7.539  13.386  67.287  1.00  0.00    -0.062 C  
BRANCH  15  16
HETATM   16  N   UNL     1      -7.662  11.943  67.030  1.00  0.00    -0.160 NA 
HETATM   17  C   UNL     1      -6.394  11.204  66.915  1.00  0.00    -0.114 C  
HETATM   18  C   UNL     1      -5.673  10.921  68.239  1.00  0.00    -0.043 C  
HETATM   19  C   UNL     1      -6.594  10.330  69.314  1.00  0.00    -0.055 C  
HETATM   20  C   UNL     1      -7.850  11.198  69.416  1.00  0.00     0.063 C  
HETATM   21  C   UNL     1      -8.524  11.304  68.041  1.00  0.00    -0.138 C  
BRANCH  19  22
HETATM   22  O   UNL     1      -7.088   9.015  69.057  1.00  0.00    -0.062 OA 
BRANCH  22  23
HETATM   23  C   UNL     1      -8.157   8.485  69.844  1.00  0.00    -0.118 C  
BRANCH  23  24
HETATM   24  C   UNL     1      -7.526   7.538  70.867  1.00  0.00    -0.073 A  
HETATM   25  C   UNL     1      -7.927   7.540  72.218  1.00  0.00    -0.115 A  
HETATM   26  C   UNL     1      -7.355   6.661  73.140  1.00  0.00    -0.084 A  
HETATM   27  C   UNL     1      -6.523   6.640  70.476  1.00  0.00    -0.047 A  
HETATM   28  C   UNL     1      -6.370   5.766  72.727  1.00  0.00    -0.061 A  
HETATM   29  C   UNL     1      -5.952   5.760  71.398  1.00  0.00    -0.030 A  
ENDBRANCH  23  24
BRANCH  23  30
HETATM   30  C   UNL     1      -9.237   7.808  69.012  1.00  0.00    -0.143 A  
HETATM   31  C   UNL     1     -11.145   6.485  67.422  1.00  0.00    -0.411 A  
HETATM   32  C   UNL     1     -10.273   7.405  66.844  1.00  0.00    -0.346 A  
HETATM   33  C   UNL     1     -10.156   6.915  69.586  1.00  0.00    -0.195 A  
HETATM   34  C   UNL     1     -11.097   6.251  68.795  1.00  0.00    -0.424 A  
HETATM   35  C   UNL     1      -9.327   8.064  67.633  1.00  0.00    -0.162 A  
ENDBRANCH  23  30
ENDBRANCH  22  23
ENDBRANCH  19  22
ENDBRANCH  15  16
ENDBRANCH  14  15
ENDBRANCH  13  14
ENDBRANCH  11  13
ENDBRANCH   8  11
ENDBRANCH   2   5
TORSDOF 10
ENDMDL
MODEL      146
REMARK 921   NORMALIZED FREE ENERGY PREDICTED BY IDOCK:   -4.27 KCAL/MOL
REMARK 922        TOTAL FREE ENERGY PREDICTED BY IDOCK:   -9.70 KCAL/MOL
REMARK 923 INTER-LIGAND FREE ENERGY PREDICTED BY IDOCK:   -7.86 KCAL/MOL
REMARK 924 INTRA-LIGAND FREE ENERGY PREDICTED BY IDOCK:   -1.84 KCAL/MOL
REMARK 927      BINDING AFFINITY PREDICTED BY RF-SCORE:    0.00 PKD
ROOT
HETATM    1  C   UNL     1      -5.530   4.689  71.645  1.00  0.00    -0.004 C  
HETATM    2  C   UNL     1      -6.970   4.857  72.175  1.00  0.00    -0.065 C  
HETATM    3  C   UNL     1      -6.895   5.731  73.447  1.00  0.00    -0.084 C  
HETATM    4  C   UNL     1      -7.487   3.454  72.560  1.00  0.00    -0.050 C  
ENDROOT
BRANCH   2   5
HETATM    5  C   UNL     1      -7.915   5.511  71.158  1.00  0.00    -0.111 A  
HETATM    6  C   UNL     1      -8.911   4.796  70.477  1.00  0.00    -0.142 A  
HETATM    7  C   UNL     1      -9.744   5.418  69.535  1.00  0.00    -0.238 A  
HETATM    8  C   UNL     1      -9.593   6.775  69.247  1.00  0.00    -0.144 A  
HETATM    9  C   UNL     1      -7.786   6.882  70.863  1.00  0.00    -0.097 A  
HETATM   10  C   UNL     1      -8.610   7.505  69.924  1.00  0.00    -0.139 A  
BRANCH   8  11
HETATM   11  C   UNL     1     -10.480   7.397  68.223  1.00  0.00    -0.189 C  
HETATM   12  O   UNL     1     -11.073   6.680  67.419  1.00  0.00    -0.346 OA 
BRANCH  11  13
HETATM   13  C   UNL     1     -10.609   8.907  68.223  1.00  0.00    -0.203 C  
BRANCH  13  14
HETATM   14  C   UNL     1     -10.387   9.500  66.835  1.00  0.00    -0.307 C  
BRANCH  14  15
HETATM   15  C   UNL     1     -10.900  10.939  66.726  1.00  0.00    -0.224 C  
BRANCH  15  16
HETATM   16  N   UNL     1      -9.929  11.994  67.055  1.00  0.00    -0.203 NA 
HETATM   17  C   UNL     1      -9.792  13.069  66.058  1.00  0.00    -0.255 C  
HETATM   18  C   UNL     1     -10.927  14.100  66.039  1.00  0.00    -0.304 C  
HETATM   19  C   UNL     1     -11.275  14.641  67.432  1.00  0.00    -0.342 C  
HETATM   20  C   UNL     1     -11.470  13.458  68.383  1.00  0.00    -0.351 C  
HETATM   21  C   UNL     1     -10.216  12.573  68.379  1.00  0.00    -0.228 C  
BRANCH  19  22
HETATM   22  O   UNL     1     -10.273  15.441  68.058  1.00  0.00    -0.231 OA 
BRANCH  22  23
HETATM   23  C   UNL     1      -9.231  16.028  67.275  1.00  0.00    -0.205 C  
BRANCH  23  24
HETATM   24  C   UNL     1      -7.911  15.703  67.979  1.00  0.00    -0.137 A  
HETATM   25  C   UNL     1      -7.512  16.384  69.145  1.00  0.00    -0.228 A  
HETATM   26  C   UNL     1      -6.313  16.068  69.788  1.00  0.00    -0.177 A  
HETATM   27  C   UNL     1      -7.063  14.710  67.468  1.00  0.00    -0.203 A  
HETATM   28  C   UNL     1      -5.492  15.067  69.273  1.00  0.00    -0.094 A  
HETATM   29  C   UNL     1      -5.864  14.393  68.112  1.00  0.00    -0.135 A  
ENDBRANCH  23  24
BRANCH  23  30
HETATM   30  C   UNL     1      -9.419  17.522  67.048  1.00  0.00    -0.268 A  
HETATM   31  C   UNL     1      -9.738  20.301  66.749  1.00  0.00    -0.571 A  
HETATM   32  C   UNL     1     -10.694  19.560  67.438  1.00  0.00    -0.589 A  
HETATM   33  C   UNL     1      -8.490  18.276  66.315  1.00  0.00    -0.216 A  
HETATM   34  C   UNL     1      -8.643  19.658  66.174  1.00  0.00    -0.357 A  
HETATM   35  C   UNL     1     -10.538  18.179  67.585  1.00  0.00    -0.424 A  
ENDBRANCH  23  30
ENDBRANCH  22  23
ENDBRANCH  19  22
ENDBRANCH  15  16
ENDBRANCH  14  15
ENDBRANCH  13  14
ENDBRANCH  11  13
ENDBRANCH   8  11
ENDBRANCH   2   5
TORSDOF 10
ENDMDL
MODEL      147
REMARK 921   NORMALIZED FREE ENERGY PREDICTED BY IDOCK:   -4.23 KCAL/MOL
REMARK 922        TOTAL FREE ENERGY PREDICTED BY IDOCK:   -9.64 KCAL/MOL
REMARK 923 INTER-LIGAND FREE ENERGY PREDICTED BY IDOCK:   -7.64 KCAL/MOL
REMARK 924 INTRA-LIGAND FREE ENERGY PREDICTED BY IDOCK:   -2.00 KCAL/MOL
REMARK 927      BINDING AFFINITY PREDICTED BY RF-SCORE:    0.00 PKD
ROOT
HETATM    1  C   UNL     1      -7.984   3.486  72.149  1.00  0.00    -0.060 C  
HETATM    2  C   UNL     1      -8.564   4.084  70.848  1.00  0.00    -0.108 C  
HETATM    3  C   UNL     1      -8.992   2.904  69.948  1.00  0.00    -0.171 C  
HETATM    4  C   UNL     1      -7.427   4.861  70.151  1.00  0.00    -0.059 C  
ENDROOT
BRANCH   2   5
HETATM    5  C   UNL     1      -9.766   5.006  71.092  1.00  0.00    -0.241 A  
HETATM    6  C   UNL     1     -10.216   5.344  72.377  1.00  0.00    -0.241 A  
HETATM    7  C   UNL     1     -11.333   6.170  72.567  1.00  0.00    -0.328 A  
HETATM    8  C   UNL     1     -12.033   6.674  71.470  1.00  0.00    -0.402 A  
HETATM    9  C   UNL     1     -10.478   5.534  69.998  1.00  0.00    -0.373 A  
HETATM   10  C   UNL     1     -11.592   6.354  70.182  1.00  0.00    -0.449 A  
BRANCH   8  11
HETATM   11  C   UNL     1     -13.230   7.530  71.710  1.00  0.00    -0.316 C  
HETATM   12  O   UNL     1     -14.287   7.266  71.141  1.00  0.00    -0.349 OA 
BRANCH  11  13
HETATM   13  C   UNL     1     -13.082   8.701  72.661  1.00  0.00    -0.265 C  
BRANCH  13  14
HETATM   14  C   UNL     1     -13.686   9.980  72.091  1.00  0.00    -0.244 C  
BRANCH  14  15
HETATM   15  C   UNL     1     -13.100  10.344  70.724  1.00  0.00    -0.286 C  
BRANCH  15  16
HETATM   16  N   UNL     1     -11.794  11.020  70.744  1.00  0.00    -0.321 NA 
HETATM   17  C   UNL     1     -10.798  10.515  69.784  1.00  0.00    -0.281 C  
HETATM   18  C   UNL     1     -11.012  10.941  68.326  1.00  0.00    -0.293 C  
HETATM   19  C   UNL     1     -11.260  12.446  68.167  1.00  0.00    -0.265 C  
HETATM   20  C   UNL     1     -12.354  12.870  69.149  1.00  0.00     0.090 C  
HETATM   21  C   UNL     1     -11.956  12.476  70.578  1.00  0.00    -0.189 C  
BRANCH  19  22
HETATM   22  O   UNL     1     -10.155  13.296  68.476  1.00  0.00    -0.239 OA 
BRANCH  22  23
HETATM   23  C   UNL     1      -9.211  13.644  67.460  1.00  0.00    -0.218 C  
BRANCH  23  24
HETATM   24  C   UNL     1      -8.004  12.721  67.641  1.00  0.00    -0.165 A  
HETATM   25  C   UNL     1      -7.068  12.927  68.673  1.00  0.00    -0.103 A  
HETATM   26  C   UNL     1      -5.979  12.068  68.839  1.00  0.00    -0.060 A  
HETATM   27  C   UNL     1      -7.804  11.639  66.771  1.00  0.00    -0.130 A  
HETATM   28  C   UNL     1      -5.806  10.991  67.973  1.00  0.00    -0.042 A  
HETATM   29  C   UNL     1      -6.715  10.780  66.938  1.00  0.00    -0.099 A  
ENDBRANCH  23  24
BRANCH  23  30
HETATM   30  C   UNL     1      -8.827  15.117  67.477  1.00  0.00    -0.190 A  
HETATM   31  C   UNL     1      -8.225  17.865  67.453  1.00  0.00    -0.224 A  
HETATM   32  C   UNL     1      -8.181  17.132  66.270  1.00  0.00    -0.306 A  
HETATM   33  C   UNL     1      -8.818  15.861  68.667  1.00  0.00    -0.206 A  
HETATM   34  C   UNL     1      -8.529  17.227  68.654  1.00  0.00    -0.260 A  
HETATM   35  C   UNL     1      -8.478  15.766  66.280  1.00  0.00    -0.245 A  
ENDBRANCH  23  30
ENDBRANCH  22  23
ENDBRANCH  19  22
ENDBRANCH  15  16
ENDBRANCH  14  15
ENDBRANCH  13  14
ENDBRANCH  11  13
ENDBRANCH   8  11
ENDBRANCH   2   5
TORSDOF 10
ENDMDL
MODEL      148
REMARK 921   NORMALIZED FREE ENERGY PREDICTED BY IDOCK:   -4.23 KCAL/MOL
REMARK 922        TOTAL FREE ENERGY PREDICTED BY IDOCK:   -9.63 KCAL/MOL
REMARK 923 INTER-LIGAND FREE ENERGY PREDICTED BY IDOCK:   -8.61 KCAL/MOL
REMARK 924 INTRA-LIGAND FREE ENERGY PREDICTED BY IDOCK:   -1.02 KCAL/MOL
REMARK 927      BINDING AFFINITY PREDICTED BY RF-SCORE:    0.00 PKD
ROOT
HETATM    1  C   UNL     1      -5.667   3.696  71.926  1.00  0.00    -0.008 C  
HETATM    2  C   UNL     1      -6.766   2.944  71.144  1.00  0.00    -0.031 C  
HETATM    3  C   UNL     1      -7.381   1.899  72.101  1.00  0.00    -0.039 C  
HETATM    4  C   UNL     1      -6.078   2.209  69.974  1.00  0.00    -0.024 C  
ENDROOT
BRANCH   2   5
HETATM    5  C   UNL     1      -7.870   3.870  70.616  1.00  0.00    -0.054 A  
HETATM    6  C   UNL     1      -9.006   4.203  71.367  1.00  0.00    -0.165 A  
HETATM    7  C   UNL     1     -10.010   5.033  70.847  1.00  0.00    -0.286 A  
HETATM    8  C   UNL     1      -9.901   5.545  69.553  1.00  0.00    -0.253 A  
HETATM    9  C   UNL     1      -7.773   4.406  69.318  1.00  0.00    -0.055 A  
HETATM   10  C   UNL     1      -8.771   5.230  68.794  1.00  0.00    -0.093 A  
BRANCH   8  11
HETATM   11  C   UNL     1     -10.999   6.405  69.025  1.00  0.00    -0.348 C  
HETATM   12  O   UNL     1     -11.275   6.367  67.827  1.00  0.00    -0.323 OA 
BRANCH  11  13
HETATM   13  C   UNL     1     -11.733   7.296  70.006  1.00  0.00    -0.022 C  
BRANCH  13  14
HETATM   14  C   UNL     1     -10.942   8.558  70.335  1.00  0.00    -0.254 C  
BRANCH  14  15
HETATM   15  C   UNL     1     -10.540   9.339  69.082  1.00  0.00    -0.212 C  
BRANCH  15  16
HETATM   16  N   UNL     1     -11.530  10.305  68.581  1.00  0.00    -0.171 NA 
HETATM   17  C   UNL     1     -12.374  10.945  69.604  1.00  0.00    -0.221 C  
HETATM   18  C   UNL     1     -11.693  12.048  70.425  1.00  0.00    -0.175 C  
HETATM   19  C   UNL     1     -10.952  13.074  69.559  1.00  0.00     0.097 C  
HETATM   20  C   UNL     1     -10.048  12.326  68.576  1.00  0.00    -0.192 C  
HETATM   21  C   UNL     1     -10.882  11.335  67.751  1.00  0.00    -0.235 C  
BRANCH  19  22
HETATM   22  O   UNL     1     -11.772  13.900  68.732  1.00  0.00    -0.310 OA 
BRANCH  22  23
HETATM   23  C   UNL     1     -12.031  15.256  69.105  1.00  0.00    -0.280 C  
BRANCH  23  24
HETATM   24  C   UNL     1     -10.759  16.050  68.803  1.00  0.00    -0.282 A  
HETATM   25  C   UNL     1      -9.482  15.538  69.104  1.00  0.00    -0.246 A  
HETATM   26  C   UNL     1      -8.327  16.265  68.809  1.00  0.00    -0.235 A  
HETATM   27  C   UNL     1     -10.841  17.320  68.214  1.00  0.00    -0.287 A  
HETATM   28  C   UNL     1      -8.430  17.519  68.210  1.00  0.00    -0.266 A  
HETATM   29  C   UNL     1      -9.685  18.047  67.918  1.00  0.00    -0.297 A  
ENDBRANCH  23  24
BRANCH  23  30
HETATM   30  C   UNL     1     -12.482  15.405  70.552  1.00  0.00    -0.468 A  
HETATM   31  C   UNL     1     -13.335  15.800  73.204  1.00  0.00    -0.685 A  
HETATM   32  C   UNL     1     -12.088  16.266  72.796  1.00  0.00    -0.637 A  
HETATM   33  C   UNL     1     -13.715  14.898  70.993  1.00  0.00    -0.367 A  
HETATM   34  C   UNL     1     -14.143  15.102  72.307  1.00  0.00    -0.633 A  
HETATM   35  C   UNL     1     -11.662  16.069  71.479  1.00  0.00    -0.554 A  
ENDBRANCH  23  30
ENDBRANCH  22  23
ENDBRANCH  19  22
ENDBRANCH  15  16
ENDBRANCH  14  15
ENDBRANCH  13  14
ENDBRANCH  11  13
ENDBRANCH   8  11
ENDBRANCH   2   5
TORSDOF 10
ENDMDL
MODEL      149
REMARK 921   NORMALIZED FREE ENERGY PREDICTED BY IDOCK:   -4.19 KCAL/MOL
REMARK 922        TOTAL FREE ENERGY PREDICTED BY IDOCK:   -9.57 KCAL/MOL
REMARK 923 INTER-LIGAND FREE ENERGY PREDICTED BY IDOCK:   -8.85 KCAL/MOL
REMARK 924 INTRA-LIGAND FREE ENERGY PREDICTED BY IDOCK:   -0.72 KCAL/MOL
REMARK 927      BINDING AFFINITY PREDICTED BY RF-SCORE:    0.00 PKD
ROOT
HETATM    1  C   UNL     1     -12.562  12.306  63.689  1.00  0.00    -0.599 C  
HETATM    2  C   UNL     1     -11.364  12.357  64.661  1.00  0.00    -0.364 C  
HETATM    3  C   UNL     1     -11.935  12.380  66.097  1.00  0.00    -0.397 C  
HETATM    4  C   UNL     1     -10.614  13.681  64.398  1.00  0.00    -0.360 C  
ENDROOT
BRANCH   2   5
HETATM    5  C   UNL     1     -10.410  11.165  64.507  1.00  0.00    -0.400 A  
HETATM    6  C   UNL     1     -10.126  10.278  65.555  1.00  0.00    -0.351 A  
HETATM    7  C   UNL     1      -9.231   9.211  65.389  1.00  0.00    -0.266 A  
HETATM    8  C   UNL     1      -8.591   9.012  64.165  1.00  0.00    -0.165 A  
HETATM    9  C   UNL     1      -9.764  10.940  63.276  1.00  0.00    -0.398 A  
HETATM   10  C   UNL     1      -8.869   9.882  63.107  1.00  0.00    -0.254 A  
BRANCH   8  11
HETATM   11  C   UNL     1      -7.627   7.882  64.033  1.00  0.00    -0.120 C  
HETATM   12  O   UNL     1      -7.130   7.635  62.936  1.00  0.00    -0.073 OA 
BRANCH  11  13
HETATM   13  C   UNL     1      -7.302   7.080  65.278  1.00  0.00    -0.077 C  
BRANCH  13  14
HETATM   14  C   UNL     1      -6.049   7.596  65.978  1.00  0.00    -0.038 C  
BRANCH  14  15
HETATM   15  C   UNL     1      -6.368   8.632  67.058  1.00  0.00    -0.057 C  
BRANCH  15  16
HETATM   16  N   UNL     1      -6.337   8.146  68.446  1.00  0.00    -0.049 NA 
HETATM   17  C   UNL     1      -6.238   9.183  69.485  1.00  0.00    -0.040 C  
HETATM   18  C   UNL     1      -7.532   9.957  69.771  1.00  0.00    -0.140 C  
HETATM   19  C   UNL     1      -8.748   9.046  69.976  1.00  0.00    -0.157 C  
HETATM   20  C   UNL     1      -8.814   8.048  68.817  1.00  0.00    -0.138 C  
HETATM   21  C   UNL     1      -7.493   7.272  68.719  1.00  0.00    -0.102 C  
BRANCH  19  22
HETATM   22  O   UNL     1      -8.726   8.230  71.147  1.00  0.00    -0.128 OA 
BRANCH  22  23
HETATM   23  C   UNL     1      -9.714   8.410  72.165  1.00  0.00    -0.300 C  
BRANCH  23  24
HETATM   24  C   UNL     1     -10.080   7.016  72.679  1.00  0.00    -0.204 A  
HETATM   25  C   UNL     1     -10.052   6.707  74.053  1.00  0.00    -0.373 A  
HETATM   26  C   UNL     1     -10.404   5.435  74.512  1.00  0.00    -0.272 A  
HETATM   27  C   UNL     1     -10.453   6.006  71.780  1.00  0.00    -0.268 A  
HETATM   28  C   UNL     1     -10.786   4.451  73.603  1.00  0.00    -0.339 A  
HETATM   29  C   UNL     1     -10.805   4.735  72.240  1.00  0.00    -0.131 A  
ENDBRANCH  23  24
BRANCH  23  30
HETATM   30  C   UNL     1     -10.929   9.194  71.690  1.00  0.00    -0.445 A  
HETATM   31  C   UNL     1     -13.174  10.577  70.707  1.00  0.00    -0.221 A  
HETATM   32  C   UNL     1     -11.913  10.827  70.174  1.00  0.00    -0.432 A  
HETATM   33  C   UNL     1     -12.200   8.990  72.250  1.00  0.00    -0.387 A  
HETATM   34  C   UNL     1     -13.317   9.669  71.756  1.00  0.00    -0.505 A  
HETATM   35  C   UNL     1     -10.797  10.143  70.662  1.00  0.00    -0.305 A  
ENDBRANCH  23  30
ENDBRANCH  22  23
ENDBRANCH  19  22
ENDBRANCH  15  16
ENDBRANCH  14  15
ENDBRANCH  13  14
ENDBRANCH  11  13
ENDBRANCH   8  11
ENDBRANCH   2   5
TORSDOF 10
ENDMDL
MODEL      150
REMARK 921   NORMALIZED FREE ENERGY PREDICTED BY IDOCK:   -4.16 KCAL/MOL
REMARK 922        TOTAL FREE ENERGY PREDICTED BY IDOCK:   -9.52 KCAL/MOL
REMARK 923 INTER-LIGAND FREE ENERGY PREDICTED BY IDOCK:   -7.25 KCAL/MOL
REMARK 924 INTRA-LIGAND FREE ENERGY PREDICTED BY IDOCK:   -2.27 KCAL/MOL
REMARK 927      BINDING AFFINITY PREDICTED BY RF-SCORE:    0.00 PKD
ROOT
HETATM    1  C   UNL     1     -12.263  15.240  64.056  1.00  0.00    -0.018 C  
HETATM    2  C   UNL     1     -11.825  14.057  64.947  1.00  0.00    -0.402 C  
HETATM    3  C   UNL     1     -11.634  12.831  64.027  1.00  0.00    -0.488 C  
HETATM    4  C   UNL     1     -12.979  13.770  65.932  1.00  0.00    -0.240 C  
ENDROOT
BRANCH   2   5
HETATM    5  C   UNL     1     -10.525  14.330  65.716  1.00  0.00    -0.326 A  
HETATM    6  C   UNL     1      -9.768  15.496  65.537  1.00  0.00    -0.307 A  
HETATM    7  C   UNL     1      -8.571  15.707  66.237  1.00  0.00    -0.265 A  
HETATM    8  C   UNL     1      -8.099  14.745  67.132  1.00  0.00    -0.226 A  
HETATM    9  C   UNL     1     -10.039  13.377  66.632  1.00  0.00    -0.275 A  
HETATM   10  C   UNL     1      -8.847  13.580  67.328  1.00  0.00    -0.225 A  
BRANCH   8  11
HETATM   11  C   UNL     1      -6.811  14.991  67.841  1.00  0.00    -0.156 C  
HETATM   12  O   UNL     1      -5.958  15.705  67.318  1.00  0.00    -0.316 OA 
BRANCH  11  13
HETATM   13  C   UNL     1      -6.613  14.338  69.195  1.00  0.00    -0.114 C  
BRANCH  13  14
HETATM   14  C   UNL     1      -5.658  13.151  69.123  1.00  0.00    -0.073 C  
BRANCH  14  15
HETATM   15  C   UNL     1      -6.018  12.049  70.122  1.00  0.00    -0.159 C  
BRANCH  15  16
HETATM   16  N   UNL     1      -5.996  10.674  69.599  1.00  0.00    -0.048 NA 
HETATM   17  C   UNL     1      -6.087   9.606  70.608  1.00  0.00    -0.078 C  
HETATM   18  C   UNL     1      -7.483   9.373  71.199  1.00  0.00     0.027 C  
HETATM   19  C   UNL     1      -8.579   9.258  70.132  1.00  0.00    -0.198 C  
HETATM   20  C   UNL     1      -8.455  10.443  69.172  1.00  0.00    -0.168 C  
HETATM   21  C   UNL     1      -7.041  10.487  68.576  1.00  0.00    -0.075 C  
BRANCH  19  22
HETATM   22  O   UNL     1      -8.511   8.108  69.290  1.00  0.00    -0.131 OA 
BRANCH  22  23
HETATM   23  C   UNL     1      -9.707   7.412  68.929  1.00  0.00    -0.150 C  
BRANCH  23  24
HETATM   24  C   UNL     1     -10.164   6.643  70.170  1.00  0.00    -0.215 A  
HETATM   25  C   UNL     1      -9.553   5.433  70.554  1.00  0.00    -0.232 A  
HETATM   26  C   UNL     1      -9.968   4.749  71.699  1.00  0.00    -0.257 A  
HETATM   27  C   UNL     1     -11.214   7.134  70.960  1.00  0.00    -0.298 A  
HETATM   28  C   UNL     1     -11.003   5.262  72.478  1.00  0.00    -0.298 A  
HETATM   29  C   UNL     1     -11.628   6.450  72.105  1.00  0.00    -0.357 A  
ENDBRANCH  23  24
BRANCH  23  30
HETATM   30  C   UNL     1      -9.534   6.509  67.715  1.00  0.00    -0.119 A  
HETATM   31  C   UNL     1      -9.286   4.918  65.408  1.00  0.00    -0.157 A  
HETATM   32  C   UNL     1     -10.475   4.916  66.132  1.00  0.00    -0.346 A  
HETATM   33  C   UNL     1      -8.325   6.462  67.002  1.00  0.00    -0.112 A  
HETATM   34  C   UNL     1      -8.205   5.680  65.851  1.00  0.00    -0.119 A  
HETATM   35  C   UNL     1     -10.599   5.704  67.279  1.00  0.00    -0.328 A  
ENDBRANCH  23  30
ENDBRANCH  22  23
ENDBRANCH  19  22
ENDBRANCH  15  16
ENDBRANCH  14  15
ENDBRANCH  13  14
ENDBRANCH  11  13
ENDBRANCH   8  11
ENDBRANCH   2   5
TORSDOF 10
ENDMDL
MODEL      151
REMARK 921   NORMALIZED FREE ENERGY PREDICTED BY IDOCK:   -4.16 KCAL/MOL
REMARK 922        TOTAL FREE ENERGY PREDICTED BY IDOCK:   -9.52 KCAL/MOL
REMARK 923 INTER-LIGAND FREE ENERGY PREDICTED BY IDOCK:   -7.35 KCAL/MOL
REMARK 924 INTRA-LIGAND FREE ENERGY PREDICTED BY IDOCK:   -2.17 KCAL/MOL
REMARK 927      BINDING AFFINITY PREDICTED BY RF-SCORE:    0.00 PKD
ROOT
HETATM    1  C   UNL     1     -11.954  15.983  68.756  1.00  0.00    -0.088 C  
HETATM    2  C   UNL     1     -11.398  14.653  69.309  1.00  0.00    -0.313 C  
HETATM    3  C   UNL     1     -12.268  13.514  68.735  1.00  0.00    -0.178 C  
HETATM    4  C   UNL     1     -11.563  14.686  70.843  1.00  0.00    -0.276 C  
ENDROOT
BRANCH   2   5
HETATM    5  C   UNL     1      -9.928  14.414  68.937  1.00  0.00    -0.183 A  
HETATM    6  C   UNL     1      -8.869  15.106  69.542  1.00  0.00    -0.125 A  
HETATM    7  C   UNL     1      -7.537  14.882  69.163  1.00  0.00    -0.160 A  
HETATM    8  C   UNL     1      -7.235  13.961  68.160  1.00  0.00    -0.120 A  
HETATM    9  C   UNL     1      -9.602  13.480  67.935  1.00  0.00    -0.218 A  
HETATM   10  C   UNL     1      -8.278  13.256  67.552  1.00  0.00    -0.184 A  
BRANCH   8  11
HETATM   11  C   UNL     1      -5.810  13.766  67.766  1.00  0.00    -0.095 C  
HETATM   12  O   UNL     1      -5.138  14.737  67.423  1.00  0.00    -0.330 OA 
BRANCH  11  13
HETATM   13  C   UNL     1      -5.251  12.358  67.810  1.00  0.00    -0.089 C  
BRANCH  13  14
HETATM   14  C   UNL     1      -5.871  11.531  68.932  1.00  0.00    -0.047 C  
BRANCH  14  15
HETATM   15  C   UNL     1      -5.935  10.040  68.592  1.00  0.00    -0.041 C  
BRANCH  15  16
HETATM   16  N   UNL     1      -7.251   9.531  68.174  1.00  0.00    -0.080 NA 
HETATM   17  C   UNL     1      -7.384   8.066  68.125  1.00  0.00    -0.096 C  
HETATM   18  C   UNL     1      -7.532   7.371  69.485  1.00  0.00    -0.090 C  
HETATM   19  C   UNL     1      -8.593   8.020  70.383  1.00  0.00    -0.131 C  
HETATM   20  C   UNL     1      -8.337   9.528  70.433  1.00  0.00    -0.226 C  
HETATM   21  C   UNL     1      -8.322  10.104  69.010  1.00  0.00    -0.138 C  
BRANCH  19  22
HETATM   22  O   UNL     1      -9.944   7.902  69.936  1.00  0.00    -0.187 OA 
BRANCH  22  23
HETATM   23  C   UNL     1     -10.928   7.298  70.779  1.00  0.00    -0.251 C  
BRANCH  23  24
HETATM   24  C   UNL     1     -11.896   8.408  71.195  1.00  0.00    -0.314 A  
HETATM   25  C   UNL     1     -13.000   8.147  72.031  1.00  0.00    -0.329 A  
HETATM   26  C   UNL     1     -13.867   9.171  72.417  1.00  0.00    -0.524 A  
HETATM   27  C   UNL     1     -11.701   9.722  70.746  1.00  0.00    -0.407 A  
HETATM   28  C   UNL     1     -13.647  10.473  71.971  1.00  0.00    -0.216 A  
HETATM   29  C   UNL     1     -12.569  10.746  71.134  1.00  0.00    -0.532 A  
ENDBRANCH  23  24
BRANCH  23  30
HETATM   30  C   UNL     1     -10.329   6.569  71.974  1.00  0.00    -0.221 A  
HETATM   31  C   UNL     1      -9.331   5.229  74.238  1.00  0.00    -0.131 A  
HETATM   32  C   UNL     1      -9.566   6.601  74.286  1.00  0.00    -0.296 A  
HETATM   33  C   UNL     1     -10.040   5.196  71.927  1.00  0.00    -0.255 A  
HETATM   34  C   UNL     1      -9.554   4.529  73.054  1.00  0.00    -0.153 A  
HETATM   35  C   UNL     1     -10.059   7.268  73.162  1.00  0.00    -0.319 A  
ENDBRANCH  23  30
ENDBRANCH  22  23
ENDBRANCH  19  22
ENDBRANCH  15  16
ENDBRANCH  14  15
ENDBRANCH  13  14
ENDBRANCH  11  13
ENDBRANCH   8  11
ENDBRANCH   2   5
TORSDOF 10
ENDMDL
MODEL      152
REMARK 921   NORMALIZED FREE ENERGY PREDICTED BY IDOCK:   -4.15 KCAL/MOL
REMARK 922        TOTAL FREE ENERGY PREDICTED BY IDOCK:   -9.50 KCAL/MOL
REMARK 923 INTER-LIGAND FREE ENERGY PREDICTED BY IDOCK:   -8.06 KCAL/MOL
REMARK 924 INTRA-LIGAND FREE ENERGY PREDICTED BY IDOCK:   -1.44 KCAL/MOL
REMARK 927      BINDING AFFINITY PREDICTED BY RF-SCORE:    0.00 PKD
ROOT
HETATM    1  C   UNL     1      -8.198   3.801  63.075  1.00  0.00    -0.081 C  
HETATM    2  C   UNL     1      -9.219   3.328  64.132  1.00  0.00    -0.127 C  
HETATM    3  C   UNL     1      -8.692   2.003  64.724  1.00  0.00    -0.106 C  
HETATM    4  C   UNL     1     -10.549   3.056  63.397  1.00  0.00    -0.235 C  
ENDROOT
BRANCH   2   5
HETATM    5  C   UNL     1      -9.434   4.346  65.261  1.00  0.00    -0.172 A  
HETATM    6  C   UNL     1     -10.689   4.891  65.563  1.00  0.00    -0.072 A  
HETATM    7  C   UNL     1     -10.849   5.837  66.587  1.00  0.00    -0.290 A  
HETATM    8  C   UNL     1      -9.748   6.266  67.329  1.00  0.00    -0.150 A  
HETATM    9  C   UNL     1      -8.337   4.781  66.029  1.00  0.00    -0.112 A  
HETATM   10  C   UNL     1      -8.490   5.725  67.046  1.00  0.00    -0.107 A  
BRANCH   8  11
HETATM   11  C   UNL     1      -9.951   7.291  68.392  1.00  0.00    -0.161 C  
HETATM   12  O   UNL     1     -10.517   6.976  69.437  1.00  0.00    -0.200 OA 
BRANCH  11  13
HETATM   13  C   UNL     1      -9.440   8.694  68.129  1.00  0.00    -0.152 C  
BRANCH  13  14
HETATM   14  C   UNL     1      -9.626   9.105  66.672  1.00  0.00    -0.263 C  
BRANCH  14  15
HETATM   15  C   UNL     1      -8.743  10.293  66.283  1.00  0.00    -0.146 C  
BRANCH  15  16
HETATM   16  N   UNL     1      -9.445  11.561  66.028  1.00  0.00    -0.224 NA 
HETATM   17  C   UNL     1     -10.884  11.567  66.338  1.00  0.00    -0.285 C  
HETATM   18  C   UNL     1     -11.238  11.655  67.828  1.00  0.00    -0.333 C  
HETATM   19  C   UNL     1     -10.481  12.767  68.565  1.00  0.00    -0.238 C  
HETATM   20  C   UNL     1      -8.989  12.642  68.243  1.00  0.00    -0.176 C  
HETATM   21  C   UNL     1      -8.778  12.676  66.723  1.00  0.00    -0.134 C  
BRANCH  19  22
HETATM   22  O   UNL     1     -10.815  14.103  68.189  1.00  0.00    -0.239 OA 
BRANCH  22  23
HETATM   23  C   UNL     1     -10.536  15.189  69.077  1.00  0.00    -0.245 C  
BRANCH  23  24
HETATM   24  C   UNL     1     -11.564  15.110  70.208  1.00  0.00    -0.325 A  
HETATM   25  C   UNL     1     -12.825  14.512  70.018  1.00  0.00    -0.067 A  
HETATM   26  C   UNL     1     -13.748  14.432  71.063  1.00  0.00    -0.201 A  
HETATM   27  C   UNL     1     -11.266  15.641  71.472  1.00  0.00    -0.373 A  
HETATM   28  C   UNL     1     -13.427  14.952  72.315  1.00  0.00    -0.510 A  
HETATM   29  C   UNL     1     -12.190  15.559  72.517  1.00  0.00    -0.512 A  
ENDBRANCH  23  24
BRANCH  23  30
HETATM   30  C   UNL     1     -10.534  16.545  68.384  1.00  0.00    -0.307 A  
HETATM   31  C   UNL     1     -10.405  19.056  67.122  1.00  0.00    -0.496 A  
HETATM   32  C   UNL     1     -10.261  18.962  68.504  1.00  0.00    -0.407 A  
HETATM   33  C   UNL     1     -10.727  16.663  66.999  1.00  0.00    -0.174 A  
HETATM   34  C   UNL     1     -10.653  17.908  66.371  1.00  0.00    -0.238 A  
HETATM   35  C   UNL     1     -10.326  17.716  69.132  1.00  0.00    -0.202 A  
ENDBRANCH  23  30
ENDBRANCH  22  23
ENDBRANCH  19  22
ENDBRANCH  15  16
ENDBRANCH  14  15
ENDBRANCH  13  14
ENDBRANCH  11  13
ENDBRANCH   8  11
ENDBRANCH   2   5
TORSDOF 10
ENDMDL
MODEL      153
REMARK 921   NORMALIZED FREE ENERGY PREDICTED BY IDOCK:   -4.14 KCAL/MOL
REMARK 922        TOTAL FREE ENERGY PREDICTED BY IDOCK:   -9.49 KCAL/MOL
REMARK 923 INTER-LIGAND FREE ENERGY PREDICTED BY IDOCK:   -7.80 KCAL/MOL
REMARK 924 INTRA-LIGAND FREE ENERGY PREDICTED BY IDOCK:   -1.69 KCAL/MOL
REMARK 927      BINDING AFFINITY PREDICTED BY RF-SCORE:    0.00 PKD
ROOT
HETATM    1  C   UNL     1      -5.297  11.707  69.245  1.00  0.00    -0.048 C  
HETATM    2  C   UNL     1      -6.198  11.948  68.015  1.00  0.00    -0.055 C  
HETATM    3  C   UNL     1      -7.478  11.103  68.207  1.00  0.00    -0.094 C  
HETATM    4  C   UNL     1      -5.436  11.429  66.776  1.00  0.00    -0.126 C  
ENDROOT
BRANCH   2   5
HETATM    5  C   UNL     1      -6.580  13.422  67.826  1.00  0.00    -0.168 A  
HETATM    6  C   UNL     1      -5.891  14.471  68.452  1.00  0.00    -0.105 A  
HETATM    7  C   UNL     1      -6.278  15.808  68.278  1.00  0.00    -0.118 A  
HETATM    8  C   UNL     1      -7.375  16.125  67.476  1.00  0.00    -0.185 A  
HETATM    9  C   UNL     1      -7.676  13.764  67.011  1.00  0.00     0.163 A  
HETATM   10  C   UNL     1      -8.068  15.092  66.838  1.00  0.00    -0.194 A  
BRANCH   8  11
HETATM   11  C   UNL     1      -7.773  17.555  67.334  1.00  0.00    -0.198 C  
HETATM   12  O   UNL     1      -7.084  18.312  66.653  1.00  0.00    -0.193 OA 
BRANCH  11  13
HETATM   13  C   UNL     1      -9.030  18.013  68.047  1.00  0.00    -0.274 C  
BRANCH  13  14
HETATM   14  C   UNL     1     -10.241  18.026  67.120  1.00  0.00    -0.366 C  
BRANCH  14  15
HETATM   15  C   UNL     1     -10.628  16.624  66.644  1.00  0.00    -0.203 C  
BRANCH  15  16
HETATM   16  N   UNL     1     -11.771  16.003  67.332  1.00  0.00     0.233 NA 
HETATM   17  C   UNL     1     -12.314  14.789  66.702  1.00  0.00     0.145 C  
HETATM   18  C   UNL     1     -11.484  13.514  66.901  1.00  0.00    -0.374 C  
HETATM   19  C   UNL     1     -11.081  13.279  68.362  1.00  0.00    -0.270 C  
HETATM   20  C   UNL     1     -10.463  14.566  68.915  1.00  0.00    -0.246 C  
HETATM   21  C   UNL     1     -11.446  15.732  68.744  1.00  0.00    -0.388 C  
BRANCH  19  22
HETATM   22  O   UNL     1     -12.148  12.981  69.263  1.00  0.00    -0.278 OA 
BRANCH  22  23
HETATM   23  C   UNL     1     -11.889  12.853  70.664  1.00  0.00     0.045 C  
BRANCH  23  24
HETATM   24  C   UNL     1     -12.269  11.424  71.056  1.00  0.00    -0.391 A  
HETATM   25  C   UNL     1     -11.531  10.314  70.599  1.00  0.00    -0.435 A  
HETATM   26  C   UNL     1     -11.878   9.015  70.977  1.00  0.00    -0.339 A  
HETATM   27  C   UNL     1     -13.374  11.188  71.887  1.00  0.00    -0.409 A  
HETATM   28  C   UNL     1     -12.970   8.804  71.816  1.00  0.00    -0.404 A  
HETATM   29  C   UNL     1     -13.719   9.888  72.266  1.00  0.00    -0.255 A  
ENDBRANCH  23  24
BRANCH  23  30
HETATM   30  C   UNL     1     -12.608  13.899  71.504  1.00  0.00    -0.419 A  
HETATM   31  C   UNL     1     -13.844  15.912  73.034  1.00  0.00    -0.477 A  
HETATM   32  C   UNL     1     -12.714  15.262  73.521  1.00  0.00    -0.690 A  
HETATM   33  C   UNL     1     -13.777  14.530  71.050  1.00  0.00    -0.241 A  
HETATM   34  C   UNL     1     -14.385  15.537  71.805  1.00  0.00    -0.556 A  
HETATM   35  C   UNL     1     -12.100  14.261  72.764  1.00  0.00     0.115 A  
ENDBRANCH  23  30
ENDBRANCH  22  23
ENDBRANCH  19  22
ENDBRANCH  15  16
ENDBRANCH  14  15
ENDBRANCH  13  14
ENDBRANCH  11  13
ENDBRANCH   8  11
ENDBRANCH   2   5
TORSDOF 10
ENDMDL
MODEL      154
REMARK 921   NORMALIZED FREE ENERGY PREDICTED BY IDOCK:   -4.13 KCAL/MOL
REMARK 922        TOTAL FREE ENERGY PREDICTED BY IDOCK:   -9.48 KCAL/MOL
REMARK 923 INTER-LIGAND FREE ENERGY PREDICTED BY IDOCK:   -7.59 KCAL/MOL
REMARK 924 INTRA-LIGAND FREE ENERGY PREDICTED BY IDOCK:   -1.88 KCAL/MOL
REMARK 927      BINDING AFFINITY PREDICTED BY RF-SCORE:    0.00 PKD
ROOT
HETATM    1  C   UNL     1      -8.581   7.819  73.759  1.00  0.00    -0.306 C  
HETATM    2  C   UNL     1      -7.207   7.284  73.298  1.00  0.00    -0.079 C  
HETATM    3  C   UNL     1      -6.966   5.943  74.025  1.00  0.00    -0.081 C  
HETATM    4  C   UNL     1      -6.140   8.301  73.755  1.00  0.00    -0.117 C  
ENDROOT
BRANCH   2   5
HETATM    5  C   UNL     1      -7.122   7.069  71.781  1.00  0.00    -0.070 A  
HETATM    6  C   UNL     1      -7.559   5.892  71.155  1.00  0.00    -0.100 A  
HETATM    7  C   UNL     1      -7.446   5.716  69.768  1.00  0.00    -0.074 A  
HETATM    8  C   UNL     1      -6.884   6.716  68.973  1.00  0.00    -0.058 A  
HETATM    9  C   UNL     1      -6.570   8.071  70.961  1.00  0.00    -0.038 A  
HETATM   10  C   UNL     1      -6.452   7.899  69.581  1.00  0.00    -0.034 A  
BRANCH   8  11
HETATM   11  C   UNL     1      -6.758   6.484  67.506  1.00  0.00    -0.067 C  
HETATM   12  O   UNL     1      -5.664   6.626  66.962  1.00  0.00    -0.013 OA 
BRANCH  11  13
HETATM   13  C   UNL     1      -8.004   6.078  66.745  1.00  0.00    -0.102 C  
BRANCH  13  14
HETATM   14  C   UNL     1      -8.805   7.287  66.273  1.00  0.00    -0.179 C  
BRANCH  14  15
HETATM   15  C   UNL     1      -9.742   7.827  67.356  1.00  0.00    -0.163 C  
BRANCH  15  16
HETATM   16  N   UNL     1     -10.353   9.138  67.084  1.00  0.00    -0.260 NA 
HETATM   17  C   UNL     1     -11.034   9.774  68.223  1.00  0.00    -0.164 C  
HETATM   18  C   UNL     1     -10.113  10.406  69.274  1.00  0.00    -0.248 C  
HETATM   19  C   UNL     1      -9.033  11.309  68.666  1.00  0.00    -0.147 C  
HETATM   20  C   UNL     1      -8.330  10.545  67.541  1.00  0.00    -0.118 C  
HETATM   21  C   UNL     1      -9.362  10.066  66.511  1.00  0.00    -0.162 C  
BRANCH  19  22
HETATM   22  O   UNL     1      -9.500  12.507  68.045  1.00  0.00    -0.196 OA 
BRANCH  22  23
HETATM   23  C   UNL     1     -10.886  12.854  68.107  1.00  0.00    -0.236 C  
BRANCH  23  24
HETATM   24  C   UNL     1     -11.299  13.282  66.698  1.00  0.00    -0.353 A  
HETATM   25  C   UNL     1     -10.844  14.489  66.131  1.00  0.00    -0.317 A  
HETATM   26  C   UNL     1     -11.214  14.861  64.837  1.00  0.00    -0.415 A  
HETATM   27  C   UNL     1     -12.150  12.471  65.933  1.00  0.00    -0.420 A  
HETATM   28  C   UNL     1     -12.050  14.034  64.089  1.00  0.00    -0.456 A  
HETATM   29  C   UNL     1     -12.520  12.844  64.639  1.00  0.00    -0.499 A  
ENDBRANCH  23  24
BRANCH  23  30
HETATM   30  C   UNL     1     -11.192  13.917  69.153  1.00  0.00    -0.311 A  
HETATM   31  C   UNL     1     -11.710  15.808  71.172  1.00  0.00    -0.476 A  
HETATM   32  C   UNL     1     -12.483  14.653  71.083  1.00  0.00    -0.402 A  
HETATM   33  C   UNL     1     -10.455  15.110  69.227  1.00  0.00    -0.261 A  
HETATM   34  C   UNL     1     -10.705  16.044  70.235  1.00  0.00    -0.278 A  
HETATM   35  C   UNL     1     -12.229  13.714  70.080  1.00  0.00    -0.395 A  
ENDBRANCH  23  30
ENDBRANCH  22  23
ENDBRANCH  19  22
ENDBRANCH  15  16
ENDBRANCH  14  15
ENDBRANCH  13  14
ENDBRANCH  11  13
ENDBRANCH   8  11
ENDBRANCH   2   5
TORSDOF 10
ENDMDL
MODEL      155
REMARK 921   NORMALIZED FREE ENERGY PREDICTED BY IDOCK:   -4.10 KCAL/MOL
REMARK 922        TOTAL FREE ENERGY PREDICTED BY IDOCK:   -9.42 KCAL/MOL
REMARK 923 INTER-LIGAND FREE ENERGY PREDICTED BY IDOCK:   -7.19 KCAL/MOL
REMARK 924 INTRA-LIGAND FREE ENERGY PREDICTED BY IDOCK:   -2.24 KCAL/MOL
REMARK 927      BINDING AFFINITY PREDICTED BY RF-SCORE:    0.00 PKD
ROOT
HETATM    1  C   UNL     1     -12.634  13.716  66.505  1.00  0.00    -0.225 C  
HETATM    2  C   UNL     1     -11.610  14.331  65.526  1.00  0.00    -0.338 C  
HETATM    3  C   UNL     1     -12.405  15.085  64.438  1.00  0.00    -0.283 C  
HETATM    4  C   UNL     1     -10.843  13.163  64.868  1.00  0.00    -0.348 C  
ENDROOT
BRANCH   2   5
HETATM    5  C   UNL     1     -10.628  15.295  66.206  1.00  0.00    -0.312 A  
HETATM    6  C   UNL     1      -9.438  15.721  65.599  1.00  0.00    -0.252 A  
HETATM    7  C   UNL     1      -8.550  16.584  66.257  1.00  0.00    -0.367 A  
HETATM    8  C   UNL     1      -8.832  17.037  67.546  1.00  0.00    -0.214 A  
HETATM    9  C   UNL     1     -10.901  15.772  67.502  1.00  0.00    -0.315 A  
HETATM   10  C   UNL     1     -10.018  16.629  68.162  1.00  0.00    -0.259 A  
BRANCH   8  11
HETATM   11  C   UNL     1      -7.853  17.935  68.224  1.00  0.00    -0.285 C  
HETATM   12  O   UNL     1      -7.879  19.143  67.996  1.00  0.00    -0.273 OA 
BRANCH  11  13
HETATM   13  C   UNL     1      -6.858  17.304  69.178  1.00  0.00    -0.234 C  
BRANCH  13  14
HETATM   14  C   UNL     1      -5.600  16.827  68.458  1.00  0.00    -0.126 C  
BRANCH  14  15
HETATM   15  C   UNL     1      -5.812  15.497  67.730  1.00  0.00    -0.137 C  
BRANCH  15  16
HETATM   16  N   UNL     1      -5.873  14.299  68.582  1.00  0.00    -0.082 NA 
HETATM   17  C   UNL     1      -6.956  14.278  69.579  1.00  0.00    -0.083 C  
HETATM   18  C   UNL     1      -8.355  13.973  69.027  1.00  0.00     0.137 C  
HETATM   19  C   UNL     1      -8.387  12.745  68.109  1.00  0.00    -0.172 C  
HETATM   20  C   UNL     1      -7.278  12.884  67.064  1.00  0.00     0.158 C  
HETATM   21  C   UNL     1      -5.924  13.076  67.761  1.00  0.00    -0.145 C  
BRANCH  19  22
HETATM   22  O   UNL     1      -8.129  11.490  68.738  1.00  0.00    -0.145 OA 
BRANCH  22  23
HETATM   23  C   UNL     1      -8.944  10.355  68.435  1.00  0.00    -0.137 C  
BRANCH  23  24
HETATM   24  C   UNL     1     -10.146  10.408  69.380  1.00  0.00    -0.251 A  
HETATM   25  C   UNL     1     -11.210  11.306  69.169  1.00  0.00    -0.337 A  
HETATM   26  C   UNL     1     -12.310  11.335  70.030  1.00  0.00    -0.330 A  
HETATM   27  C   UNL     1     -10.211   9.554  70.491  1.00  0.00    -0.349 A  
HETATM   28  C   UNL     1     -12.362  10.468  71.119  1.00  0.00    -0.510 A  
HETATM   29  C   UNL     1     -11.312   9.583  71.351  1.00  0.00    -0.462 A  
ENDBRANCH  23  24
BRANCH  23  30
HETATM   30  C   UNL     1      -8.192   9.035  68.522  1.00  0.00    -0.112 A  
HETATM   31  C   UNL     1      -6.841   6.582  68.800  1.00  0.00    -0.070 A  
HETATM   32  C   UNL     1      -6.356   7.721  69.437  1.00  0.00    -0.035 A  
HETATM   33  C   UNL     1      -8.639   7.888  67.847  1.00  0.00    -0.125 A  
HETATM   34  C   UNL     1      -7.974   6.668  67.992  1.00  0.00    -0.110 A  
HETATM   35  C   UNL     1      -7.025   8.940  69.299  1.00  0.00    -0.057 A  
ENDBRANCH  23  30
ENDBRANCH  22  23
ENDBRANCH  19  22
ENDBRANCH  15  16
ENDBRANCH  14  15
ENDBRANCH  13  14
ENDBRANCH  11  13
ENDBRANCH   8  11
ENDBRANCH   2   5
TORSDOF 10
ENDMDL
MODEL      156
REMARK 921   NORMALIZED FREE ENERGY PREDICTED BY IDOCK:   -4.09 KCAL/MOL
REMARK 922        TOTAL FREE ENERGY PREDICTED BY IDOCK:   -9.41 KCAL/MOL
REMARK 923 INTER-LIGAND FREE ENERGY PREDICTED BY IDOCK:   -7.80 KCAL/MOL
REMARK 924 INTRA-LIGAND FREE ENERGY PREDICTED BY IDOCK:   -1.61 KCAL/MOL
REMARK 927      BINDING AFFINITY PREDICTED BY RF-SCORE:    0.00 PKD
ROOT
HETATM    1  C   UNL     1      -8.214   3.635  63.150  1.00  0.00    -0.084 C  
HETATM    2  C   UNL     1      -9.217   3.137  64.213  1.00  0.00    -0.131 C  
HETATM    3  C   UNL     1      -8.694   1.784  64.744  1.00  0.00    -0.103 C  
HETATM    4  C   UNL     1     -10.568   2.909  63.501  1.00  0.00    -0.224 C  
ENDROOT
BRANCH   2   5
HETATM    5  C   UNL     1      -9.391   4.116  65.383  1.00  0.00    -0.163 A  
HETATM    6  C   UNL     1     -10.625   4.695  65.712  1.00  0.00    -0.264 A  
HETATM    7  C   UNL     1     -10.747   5.604  66.773  1.00  0.00    -0.358 A  
HETATM    8  C   UNL     1      -9.629   5.962  67.527  1.00  0.00    -0.114 A  
HETATM    9  C   UNL     1      -8.277   4.480  66.163  1.00  0.00    -0.106 A  
HETATM   10  C   UNL     1      -8.392   5.388  67.217  1.00  0.00    -0.107 A  
BRANCH   8  11
HETATM   11  C   UNL     1      -9.791   6.951  68.631  1.00  0.00    -0.145 C  
HETATM   12  O   UNL     1     -10.463   6.653  69.617  1.00  0.00    -0.191 OA 
BRANCH  11  13
HETATM   13  C   UNL     1      -9.107   8.295  68.482  1.00  0.00    -0.136 C  
BRANCH  13  14
HETATM   14  C   UNL     1      -9.086   8.768  67.032  1.00  0.00    -0.160 C  
BRANCH  14  15
HETATM   15  C   UNL     1      -7.825   9.568  66.697  1.00  0.00    -0.101 C  
BRANCH  15  16
HETATM   16  N   UNL     1      -8.042  10.949  66.238  1.00  0.00    -0.162 NA 
HETATM   17  C   UNL     1      -9.442  11.400  66.207  1.00  0.00    -0.209 C  
HETATM   18  C   UNL     1     -10.055  11.743  67.571  1.00  0.00    -0.207 C  
HETATM   19  C   UNL     1      -9.167  12.664  68.417  1.00  0.00    -0.135 C  
HETATM   20  C   UNL     1      -7.751  12.083  68.453  1.00  0.00    -0.138 C  
HETATM   21  C   UNL     1      -7.228  11.894  67.023  1.00  0.00    -0.118 C  
BRANCH  19  22
HETATM   22  O   UNL     1      -8.995  13.992  67.922  1.00  0.00    -0.172 OA 
BRANCH  22  23
HETATM   23  C   UNL     1     -10.059  14.941  68.031  1.00  0.00    -0.221 C  
BRANCH  23  24
HETATM   24  C   UNL     1     -10.885  14.829  66.748  1.00  0.00    -0.316 A  
HETATM   25  C   UNL     1     -10.456  15.416  65.542  1.00  0.00    -0.402 A  
HETATM   26  C   UNL     1     -11.211  15.294  64.373  1.00  0.00    -0.191 A  
HETATM   27  C   UNL     1     -12.102  14.131  66.749  1.00  0.00    -0.474 A  
HETATM   28  C   UNL     1     -12.410  14.584  64.392  1.00  0.00    -0.437 A  
HETATM   29  C   UNL     1     -12.856  14.008  65.579  1.00  0.00    -0.453 A  
ENDBRANCH  23  24
BRANCH  23  30
HETATM   30  C   UNL     1      -9.573  16.360  68.290  1.00  0.00    -0.221 A  
HETATM   31  C   UNL     1      -8.708  18.970  68.887  1.00  0.00    -0.288 A  
HETATM   32  C   UNL     1     -10.070  18.685  68.818  1.00  0.00    -0.398 A  
HETATM   33  C   UNL     1      -8.206  16.675  68.315  1.00  0.00    -0.200 A  
HETATM   34  C   UNL     1      -7.776  17.969  68.622  1.00  0.00    -0.304 A  
HETATM   35  C   UNL     1     -10.501  17.390  68.519  1.00  0.00    -0.370 A  
ENDBRANCH  23  30
ENDBRANCH  22  23
ENDBRANCH  19  22
ENDBRANCH  15  16
ENDBRANCH  14  15
ENDBRANCH  13  14
ENDBRANCH  11  13
ENDBRANCH   8  11
ENDBRANCH   2   5
TORSDOF 10
ENDMDL
MODEL      157
REMARK 921   NORMALIZED FREE ENERGY PREDICTED BY IDOCK:   -4.08 KCAL/MOL
REMARK 922        TOTAL FREE ENERGY PREDICTED BY IDOCK:   -9.39 KCAL/MOL
REMARK 923 INTER-LIGAND FREE ENERGY PREDICTED BY IDOCK:   -8.82 KCAL/MOL
REMARK 924 INTRA-LIGAND FREE ENERGY PREDICTED BY IDOCK:   -0.57 KCAL/MOL
REMARK 927      BINDING AFFINITY PREDICTED BY RF-SCORE:    0.00 PKD
ROOT
HETATM    1  C   UNL     1      -8.148  20.526  67.157  1.00  0.00    -0.358 C  
HETATM    2  C   UNL     1      -9.430  19.667  67.209  1.00  0.00    -0.446 C  
HETATM    3  C   UNL     1     -10.319  20.091  66.019  1.00  0.00    -0.556 C  
HETATM    4  C   UNL     1     -10.160  20.007  68.526  1.00  0.00    -0.487 C  
ENDROOT
BRANCH   2   5
HETATM    5  C   UNL     1      -9.150  18.160  67.130  1.00  0.00    -0.257 A  
HETATM    6  C   UNL     1      -9.691  17.338  66.131  1.00  0.00    -0.243 A  
HETATM    7  C   UNL     1      -9.435  15.960  66.099  1.00  0.00    -0.375 A  
HETATM    8  C   UNL     1      -8.633  15.369  67.076  1.00  0.00    -0.262 A  
HETATM    9  C   UNL     1      -8.334  17.547  68.100  1.00  0.00    -0.249 A  
HETATM   10  C   UNL     1      -8.079  16.175  68.075  1.00  0.00    -0.149 A  
BRANCH   8  11
HETATM   11  C   UNL     1      -8.403  13.896  67.025  1.00  0.00    -0.092 C  
HETATM   12  O   UNL     1      -9.236  13.170  66.487  1.00  0.00    -0.241 OA 
BRANCH  11  13
HETATM   13  C   UNL     1      -7.130  13.358  67.649  1.00  0.00    -0.168 C  
BRANCH  13  14
HETATM   14  C   UNL     1      -6.710  12.027  67.034  1.00  0.00    -0.099 C  
BRANCH  14  15
HETATM   15  C   UNL     1      -7.074  10.833  67.920  1.00  0.00    -0.085 C  
BRANCH  15  16
HETATM   16  N   UNL     1      -8.431  10.293  67.746  1.00  0.00    -0.114 NA 
HETATM   17  C   UNL     1      -8.511   8.862  67.412  1.00  0.00    -0.115 C  
HETATM   18  C   UNL     1      -8.261   7.896  68.577  1.00  0.00    -0.127 C  
HETATM   19  C   UNL     1      -9.069   8.244  69.833  1.00  0.00    -0.147 C  
HETATM   20  C   UNL     1      -8.872   9.729  70.148  1.00  0.00    -0.226 C  
HETATM   21  C   UNL     1      -9.262  10.578  68.930  1.00  0.00    -0.183 C  
BRANCH  19  22
HETATM   22  O   UNL     1     -10.484   8.087  69.728  1.00  0.00    -0.219 OA 
BRANCH  22  23
HETATM   23  C   UNL     1     -11.082   6.805  69.940  1.00  0.00    -0.323 C  
BRANCH  23  24
HETATM   24  C   UNL     1     -10.871   6.457  71.414  1.00  0.00    -0.301 A  
HETATM   25  C   UNL     1     -10.980   5.133  71.881  1.00  0.00    -0.112 A  
HETATM   26  C   UNL     1     -10.769   4.824  73.227  1.00  0.00    -0.313 A  
HETATM   27  C   UNL     1     -10.564   7.463  72.342  1.00  0.00    -0.285 A  
HETATM   28  C   UNL     1     -10.450   5.837  74.130  1.00  0.00    -0.266 A  
HETATM   29  C   UNL     1     -10.353   7.154  73.688  1.00  0.00    -0.411 A  
ENDBRANCH  23  24
BRANCH  23  30
HETATM   30  C   UNL     1     -10.545   5.731  69.004  1.00  0.00    -0.351 A  
HETATM   31  C   UNL     1      -9.474   3.829  67.229  1.00  0.00    -0.238 A  
HETATM   32  C   UNL     1     -10.298   4.843  66.749  1.00  0.00    -0.264 A  
HETATM   33  C   UNL     1      -9.753   4.673  69.478  1.00  0.00    -0.278 A  
HETATM   34  C   UNL     1      -9.213   3.735  68.595  1.00  0.00    -0.216 A  
HETATM   35  C   UNL     1     -10.833   5.787  67.630  1.00  0.00    -0.264 A  
ENDBRANCH  23  30
ENDBRANCH  22  23
ENDBRANCH  19  22
ENDBRANCH  15  16
ENDBRANCH  14  15
ENDBRANCH  13  14
ENDBRANCH  11  13
ENDBRANCH   8  11
ENDBRANCH   2   5
TORSDOF 10
ENDMDL
MODEL      158
REMARK 921   NORMALIZED FREE ENERGY PREDICTED BY IDOCK:   -4.05 KCAL/MOL
REMARK 922        TOTAL FREE ENERGY PREDICTED BY IDOCK:   -9.34 KCAL/MOL
REMARK 923 INTER-LIGAND FREE ENERGY PREDICTED BY IDOCK:   -7.29 KCAL/MOL
REMARK 924 INTRA-LIGAND FREE ENERGY PREDICTED BY IDOCK:   -2.05 KCAL/MOL
REMARK 927      BINDING AFFINITY PREDICTED BY RF-SCORE:    0.00 PKD
ROOT
HETATM    1  C   UNL     1     -12.224  15.381  64.112  1.00  0.00    -0.075 C  
HETATM    2  C   UNL     1     -11.751  14.140  64.900  1.00  0.00    -0.395 C  
HETATM    3  C   UNL     1     -11.550  12.995  63.882  1.00  0.00    -0.508 C  
HETATM    4  C   UNL     1     -12.884  13.752  65.874  1.00  0.00    -0.369 C  
ENDROOT
BRANCH   2   5
HETATM    5  C   UNL     1     -10.445  14.377  65.671  1.00  0.00    -0.347 A  
HETATM    6  C   UNL     1      -9.813  15.628  65.729  1.00  0.00    -0.386 A  
HETATM    7  C   UNL     1      -8.608  15.807  66.422  1.00  0.00    -0.346 A  
HETATM    8  C   UNL     1      -8.000  14.731  67.071  1.00  0.00    -0.139 A  
HETATM    9  C   UNL     1      -9.823  13.306  66.341  1.00  0.00    -0.281 A  
HETATM   10  C   UNL     1      -8.621  13.479  67.030  1.00  0.00    -0.169 A  
BRANCH   8  11
HETATM   11  C   UNL     1      -6.706  14.954  67.778  1.00  0.00    -0.172 C  
HETATM   12  O   UNL     1      -5.955  15.850  67.399  1.00  0.00    -0.205 OA 
BRANCH  11  13
HETATM   13  C   UNL     1      -6.376  14.049  68.948  1.00  0.00    -0.092 C  
BRANCH  13  14
HETATM   14  C   UNL     1      -5.315  13.013  68.589  1.00  0.00    -0.066 C  
BRANCH  14  15
HETATM   15  C   UNL     1      -5.227  11.885  69.620  1.00  0.00    -0.068 C  
BRANCH  15  16
HETATM   16  N   UNL     1      -5.396  10.521  69.097  1.00  0.00    -0.038 NA 
HETATM   17  C   UNL     1      -5.196   9.434  70.070  1.00  0.00    -0.032 C  
HETATM   18  C   UNL     1      -6.349   9.213  71.058  1.00  0.00    -0.071 C  
HETATM   19  C   UNL     1      -7.722   9.137  70.377  1.00  0.00    -0.127 C  
HETATM   20  C   UNL     1      -7.872  10.339  69.441  1.00  0.00    -0.157 C  
HETATM   21  C   UNL     1      -6.707  10.371  68.441  1.00  0.00    -0.060 C  
BRANCH  19  22
HETATM   22  O   UNL     1      -7.940   8.003  69.539  1.00  0.00    -0.110 OA 
BRANCH  22  23
HETATM   23  C   UNL     1      -8.803   6.948  69.971  1.00  0.00    -0.142 C  
BRANCH  23  24
HETATM   24  C   UNL     1      -9.298   6.236  68.710  1.00  0.00    -0.124 A  
HETATM   25  C   UNL     1      -9.311   4.831  68.615  1.00  0.00    -0.187 A  
HETATM   26  C   UNL     1      -9.780   4.192  67.464  1.00  0.00    -0.185 A  
HETATM   27  C   UNL     1      -9.752   6.978  67.610  1.00  0.00    -0.163 A  
HETATM   28  C   UNL     1     -10.240   4.948  66.388  1.00  0.00    -0.313 A  
HETATM   29  C   UNL     1     -10.221   6.339  66.460  1.00  0.00    -0.163 A  
ENDBRANCH  23  24
BRANCH  23  30
HETATM   30  C   UNL     1      -9.946   7.430  70.854  1.00  0.00    -0.184 A  
HETATM   31  C   UNL     1     -11.977   8.397  72.544  1.00  0.00    -0.418 A  
HETATM   32  C   UNL     1     -11.010   7.527  73.042  1.00  0.00    -0.443 A  
HETATM   33  C   UNL     1     -10.956   8.268  70.356  1.00  0.00    -0.244 A  
HETATM   34  C   UNL     1     -11.959   8.756  71.198  1.00  0.00    -0.331 A  
HETATM   35  C   UNL     1     -10.002   7.044  72.204  1.00  0.00    -0.179 A  
ENDBRANCH  23  30
ENDBRANCH  22  23
ENDBRANCH  19  22
ENDBRANCH  15  16
ENDBRANCH  14  15
ENDBRANCH  13  14
ENDBRANCH  11  13
ENDBRANCH   8  11
ENDBRANCH   2   5
TORSDOF 10
ENDMDL
MODEL      159
REMARK 921   NORMALIZED FREE ENERGY PREDICTED BY IDOCK:   -4.03 KCAL/MOL
REMARK 922        TOTAL FREE ENERGY PREDICTED BY IDOCK:   -9.31 KCAL/MOL
REMARK 923 INTER-LIGAND FREE ENERGY PREDICTED BY IDOCK:   -7.71 KCAL/MOL
REMARK 924 INTRA-LIGAND FREE ENERGY PREDICTED BY IDOCK:   -1.60 KCAL/MOL
REMARK 927      BINDING AFFINITY PREDICTED BY RF-SCORE:    0.00 PKD
ROOT
HETATM    1  C   UNL     1     -11.701   8.610  72.122  1.00  0.00    -0.442 C  
HETATM    2  C   UNL     1     -11.202   7.149  72.104  1.00  0.00    -0.290 C  
HETATM    3  C   UNL     1     -12.373   6.255  72.568  1.00  0.00     0.037 C  
HETATM    4  C   UNL     1     -10.052   7.041  73.128  1.00  0.00    -0.260 C  
ENDROOT
BRANCH   2   5
HETATM    5  C   UNL     1     -10.726   6.692  70.718  1.00  0.00    -0.282 A  
HETATM    6  C   UNL     1     -11.610   6.336  69.690  1.00  0.00    -0.287 A  
HETATM    7  C   UNL     1     -11.143   5.900  68.441  1.00  0.00    -0.158 A  
HETATM    8  C   UNL     1      -9.773   5.802  68.196  1.00  0.00    -0.146 A  
HETATM    9  C   UNL     1      -9.347   6.598  70.447  1.00  0.00    -0.160 A  
HETATM   10  C   UNL     1      -8.877   6.161  69.208  1.00  0.00    -0.124 A  
BRANCH   8  11
HETATM   11  C   UNL     1      -9.312   5.311  66.865  1.00  0.00    -0.127 C  
HETATM   12  O   UNL     1      -9.546   4.150  66.534  1.00  0.00    -0.179 OA 
BRANCH  11  13
HETATM   13  C   UNL     1      -8.568   6.284  65.972  1.00  0.00    -0.146 C  
BRANCH  13  14
HETATM   14  C   UNL     1      -9.298   7.617  65.845  1.00  0.00     0.003 C  
BRANCH  14  15
HETATM   15  C   UNL     1      -8.524   8.771  66.486  1.00  0.00    -0.116 C  
BRANCH  15  16
HETATM   16  N   UNL     1      -9.103   9.328  67.718  1.00  0.00    -0.127 NA 
HETATM   17  C   UNL     1      -8.395  10.485  68.291  1.00  0.00    -0.122 C  
HETATM   18  C   UNL     1      -8.618  11.819  67.567  1.00  0.00    -0.157 C  
HETATM   19  C   UNL     1     -10.098  12.120  67.296  1.00  0.00    -0.202 C  
HETATM   20  C   UNL     1     -10.736  10.893  66.639  1.00  0.00    -0.289 C  
HETATM   21  C   UNL     1     -10.526   9.657  67.524  1.00  0.00    -0.262 C  
BRANCH  19  22
HETATM   22  O   UNL     1     -10.905  12.366  68.448  1.00  0.00    -0.219 OA 
BRANCH  22  23
HETATM   23  C   UNL     1     -11.913  13.379  68.414  1.00  0.00    -0.324 C  
BRANCH  23  24
HETATM   24  C   UNL     1     -11.809  14.062  67.049  1.00  0.00    -0.458 A  
HETATM   25  C   UNL     1     -12.623  13.676  65.967  1.00  0.00    -0.441 A  
HETATM   26  C   UNL     1     -12.530  14.318  64.730  1.00  0.00    -0.390 A  
HETATM   27  C   UNL     1     -10.887  15.100  66.846  1.00  0.00    -0.317 A  
HETATM   28  C   UNL     1     -11.617  15.356  64.554  1.00  0.00    -0.296 A  
HETATM   29  C   UNL     1     -10.794  15.742  65.609  1.00  0.00    -0.316 A  
ENDBRANCH  23  24
BRANCH  23  30
HETATM   30  C   UNL     1     -11.813  14.365  69.569  1.00  0.00    -0.376 A  
HETATM   31  C   UNL     1     -11.596  16.275  71.624  1.00  0.00    -0.436 A  
HETATM   32  C   UNL     1     -10.448  15.759  71.027  1.00  0.00     0.419 A  
HETATM   33  C   UNL     1     -12.958  14.858  70.216  1.00  0.00    -0.192 A  
HETATM   34  C   UNL     1     -12.851  15.814  71.229  1.00  0.00    -0.486 A  
HETATM   35  C   UNL     1     -10.555  14.809  70.008  1.00  0.00    -0.043 A  
ENDBRANCH  23  30
ENDBRANCH  22  23
ENDBRANCH  19  22
ENDBRANCH  15  16
ENDBRANCH  14  15
ENDBRANCH  13  14
ENDBRANCH  11  13
ENDBRANCH   8  11
ENDBRANCH   2   5
TORSDOF 10
ENDMDL
MODEL      160
REMARK 921   NORMALIZED FREE ENERGY PREDICTED BY IDOCK:   -4.03 KCAL/MOL
REMARK 922        TOTAL FREE ENERGY PREDICTED BY IDOCK:   -9.31 KCAL/MOL
REMARK 923 INTER-LIGAND FREE ENERGY PREDICTED BY IDOCK:   -7.21 KCAL/MOL
REMARK 924 INTRA-LIGAND FREE ENERGY PREDICTED BY IDOCK:   -2.10 KCAL/MOL
REMARK 927      BINDING AFFINITY PREDICTED BY RF-SCORE:    0.00 PKD
ROOT
HETATM    1  C   UNL     1      -7.996  19.555  65.962  1.00  0.00    -0.312 C  
HETATM    2  C   UNL     1      -9.056  19.074  66.975  1.00  0.00    -0.319 C  
HETATM    3  C   UNL     1     -10.427  19.600  66.495  1.00  0.00    -0.612 C  
HETATM    4  C   UNL     1      -8.720  19.720  68.337  1.00  0.00    -0.296 C  
ENDROOT
BRANCH   2   5
HETATM    5  C   UNL     1      -9.112  17.546  67.111  1.00  0.00    -0.247 A  
HETATM    6  C   UNL     1      -9.234  16.897  68.347  1.00  0.00    -0.253 A  
HETATM    7  C   UNL     1      -9.258  15.497  68.440  1.00  0.00    -0.191 A  
HETATM    8  C   UNL     1      -9.153  14.713  67.291  1.00  0.00    -0.215 A  
HETATM    9  C   UNL     1      -9.019  16.737  65.962  1.00  0.00    -0.220 A  
HETATM   10  C   UNL     1      -9.039  15.344  66.049  1.00  0.00    -0.284 A  
BRANCH   8  11
HETATM   11  C   UNL     1      -9.157  13.228  67.430  1.00  0.00    -0.216 C  
HETATM   12  O   UNL     1      -8.481  12.699  68.311  1.00  0.00    -0.169 OA 
BRANCH  11  13
HETATM   13  C   UNL     1     -10.011  12.431  66.464  1.00  0.00    -0.242 C  
BRANCH  13  14
HETATM   14  C   UNL     1      -9.166  11.548  65.550  1.00  0.00    -0.156 C  
BRANCH  14  15
HETATM   15  C   UNL     1      -9.632  10.090  65.552  1.00  0.00    -0.266 C  
BRANCH  15  16
HETATM   16  N   UNL     1      -8.834   9.161  66.365  1.00  0.00    -0.135 NA 
HETATM   17  C   UNL     1      -8.667   9.530  67.780  1.00  0.00    -0.115 C  
HETATM   18  C   UNL     1      -9.889   9.285  68.675  1.00  0.00    -0.173 C  
HETATM   19  C   UNL     1     -10.487   7.882  68.508  1.00  0.00    -0.167 C  
HETATM   20  C   UNL     1     -10.692   7.610  67.016  1.00  0.00    -0.340 C  
HETATM   21  C   UNL     1      -9.365   7.790  66.265  1.00  0.00    -0.151 C  
BRANCH  19  22
HETATM   22  O   UNL     1      -9.673   6.800  68.959  1.00  0.00    -0.145 OA 
BRANCH  22  23
HETATM   23  C   UNL     1      -8.874   6.946  70.136  1.00  0.00    -0.145 C  
BRANCH  23  24
HETATM   24  C   UNL     1      -7.566   6.194  69.879  1.00  0.00    -0.088 A  
HETATM   25  C   UNL     1      -6.808   5.653  70.935  1.00  0.00    -0.057 A  
HETATM   26  C   UNL     1      -5.624   4.954  70.687  1.00  0.00    -0.015 A  
HETATM   27  C   UNL     1      -7.090   6.028  68.570  1.00  0.00    -0.082 A  
HETATM   28  C   UNL     1      -5.177   4.789  69.378  1.00  0.00     0.000 A  
HETATM   29  C   UNL     1      -5.907   5.329  68.322  1.00  0.00    -0.017 A  
ENDBRANCH  23  24
BRANCH  23  30
HETATM   30  C   UNL     1      -9.577   6.476  71.402  1.00  0.00    -0.174 A  
HETATM   31  C   UNL     1     -10.784   5.530  73.761  1.00  0.00    -0.300 A  
HETATM   32  C   UNL     1     -10.765   4.733  72.619  1.00  0.00    -0.263 A  
HETATM   33  C   UNL     1      -9.649   7.286  72.546  1.00  0.00    -0.186 A  
HETATM   34  C   UNL     1     -10.238   6.813  73.721  1.00  0.00    -0.378 A  
HETATM   35  C   UNL     1     -10.169   5.202  71.446  1.00  0.00    -0.282 A  
ENDBRANCH  23  30
ENDBRANCH  22  23
ENDBRANCH  19  22
ENDBRANCH  15  16
ENDBRANCH  14  15
ENDBRANCH  13  14
ENDBRANCH  11  13
ENDBRANCH   8  11
ENDBRANCH   2   5
TORSDOF 10
ENDMDL
MODEL      161
REMARK 921   NORMALIZED FREE ENERGY PREDICTED BY IDOCK:   -4.03 KCAL/MOL
REMARK 922        TOTAL FREE ENERGY PREDICTED BY IDOCK:   -9.31 KCAL/MOL
REMARK 923 INTER-LIGAND FREE ENERGY PREDICTED BY IDOCK:   -7.70 KCAL/MOL
REMARK 924 INTRA-LIGAND FREE ENERGY PREDICTED BY IDOCK:   -1.61 KCAL/MOL
REMARK 927      BINDING AFFINITY PREDICTED BY RF-SCORE:    0.00 PKD
ROOT
HETATM    1  C   UNL     1     -12.272  15.447  69.371  1.00  0.00    -0.250 C  
HETATM    2  C   UNL     1     -11.550  14.201  68.815  1.00  0.00    -0.362 C  
HETATM    3  C   UNL     1     -10.031  14.462  68.921  1.00  0.00    -0.183 C  
HETATM    4  C   UNL     1     -11.934  14.071  67.326  1.00  0.00    -0.448 C  
ENDROOT
BRANCH   2   5
HETATM    5  C   UNL     1     -11.903  12.912  69.570  1.00  0.00    -0.383 A  
HETATM    6  C   UNL     1     -11.723  11.635  69.019  1.00  0.00    -0.388 A  
HETATM    7  C   UNL     1     -12.078  10.476  69.725  1.00  0.00    -0.285 A  
HETATM    8  C   UNL     1     -12.631  10.571  71.002  1.00  0.00    -0.499 A  
HETATM    9  C   UNL     1     -12.451  12.986  70.865  1.00  0.00    -0.396 A  
HETATM   10  C   UNL     1     -12.809  11.836  71.570  1.00  0.00    -0.450 A  
BRANCH   8  11
HETATM   11  C   UNL     1     -13.019   9.319  71.714  1.00  0.00    -0.396 C  
HETATM   12  O   UNL     1     -14.183   8.927  71.660  1.00  0.00    -0.361 OA 
BRANCH  11  13
HETATM   13  C   UNL     1     -11.940   8.579  72.480  1.00  0.00    -0.401 C  
BRANCH  13  14
HETATM   14  C   UNL     1     -10.551   8.841  71.908  1.00  0.00    -0.425 C  
BRANCH  14  15
HETATM   15  C   UNL     1      -9.557   7.730  72.255  1.00  0.00    -0.176 C  
BRANCH  15  16
HETATM   16  N   UNL     1      -9.391   6.675  71.242  1.00  0.00    -0.159 NA 
HETATM   17  C   UNL     1      -9.977   6.959  69.922  1.00  0.00    -0.176 C  
HETATM   18  C   UNL     1      -9.189   7.941  69.047  1.00  0.00    -0.147 C  
HETATM   19  C   UNL     1      -7.694   7.605  68.958  1.00  0.00    -0.117 C  
HETATM   20  C   UNL     1      -7.153   7.397  70.375  1.00  0.00    -0.064 C  
HETATM   21  C   UNL     1      -7.971   6.313  71.092  1.00  0.00    -0.116 C  
BRANCH  19  22
HETATM   22  O   UNL     1      -7.367   6.398  68.271  1.00  0.00    -0.082 OA 
BRANCH  22  23
HETATM   23  C   UNL     1      -8.398   5.617  67.662  1.00  0.00    -0.100 C  
BRANCH  23  24
HETATM   24  C   UNL     1      -8.272   4.200  68.226  1.00  0.00    -0.091 A  
HETATM   25  C   UNL     1      -7.054   3.494  68.178  1.00  0.00    -0.051 A  
HETATM   26  C   UNL     1      -6.947   2.207  68.711  1.00  0.00    -0.040 A  
HETATM   27  C   UNL     1      -9.381   3.569  68.808  1.00  0.00    -0.233 A  
HETATM   28  C   UNL     1      -8.058   1.604  69.298  1.00  0.00    -0.059 A  
HETATM   29  C   UNL     1      -9.273   2.282  69.341  1.00  0.00    -0.187 A  
ENDBRANCH  23  24
BRANCH  23  30
HETATM   30  C   UNL     1      -8.354   5.645  66.141  1.00  0.00    -0.120 A  
HETATM   31  C   UNL     1      -8.155   5.657  63.334  1.00  0.00    -0.105 A  
HETATM   32  C   UNL     1      -7.506   6.636  64.083  1.00  0.00    -0.097 A  
HETATM   33  C   UNL     1      -9.042   4.696  65.368  1.00  0.00    -0.149 A  
HETATM   34  C   UNL     1      -8.935   4.696  63.975  1.00  0.00    -0.117 A  
HETATM   35  C   UNL     1      -7.606   6.632  65.477  1.00  0.00    -0.088 A  
ENDBRANCH  23  30
ENDBRANCH  22  23
ENDBRANCH  19  22
ENDBRANCH  15  16
ENDBRANCH  14  15
ENDBRANCH  13  14
ENDBRANCH  11  13
ENDBRANCH   8  11
ENDBRANCH   2   5
TORSDOF 10
ENDMDL
MODEL      162
REMARK 921   NORMALIZED FREE ENERGY PREDICTED BY IDOCK:   -4.01 KCAL/MOL
REMARK 922        TOTAL FREE ENERGY PREDICTED BY IDOCK:   -9.29 KCAL/MOL
REMARK 923 INTER-LIGAND FREE ENERGY PREDICTED BY IDOCK:   -7.96 KCAL/MOL
REMARK 924 INTRA-LIGAND FREE ENERGY PREDICTED BY IDOCK:   -1.33 KCAL/MOL
REMARK 927      BINDING AFFINITY PREDICTED BY RF-SCORE:    0.00 PKD
ROOT
HETATM    1  C   UNL     1     -10.610  10.910  67.013  1.00  0.00    -0.307 C  
HETATM    2  C   UNL     1      -9.678  10.296  65.945  1.00  0.00    -0.283 C  
HETATM    3  C   UNL     1      -8.283  10.934  66.127  1.00  0.00    -0.168 C  
HETATM    4  C   UNL     1     -10.236  10.694  64.562  1.00  0.00    -0.399 C  
ENDROOT
BRANCH   2   5
HETATM    5  C   UNL     1      -9.563   8.769  66.052  1.00  0.00    -0.297 A  
HETATM    6  C   UNL     1      -8.592   8.030  65.361  1.00  0.00    -0.138 A  
HETATM    7  C   UNL     1      -8.527   6.633  65.462  1.00  0.00    -0.135 A  
HETATM    8  C   UNL     1      -9.442   5.939  66.255  1.00  0.00    -0.161 A  
HETATM    9  C   UNL     1     -10.470   8.053  66.857  1.00  0.00    -0.387 A  
HETATM   10  C   UNL     1     -10.411   6.662  66.958  1.00  0.00    -0.369 A  
BRANCH   8  11
HETATM   11  C   UNL     1      -9.359   4.452  66.319  1.00  0.00    -0.160 C  
HETATM   12  O   UNL     1      -9.944   3.775  65.476  1.00  0.00    -0.152 OA 
BRANCH  11  13
HETATM   13  C   UNL     1      -8.542   3.838  67.438  1.00  0.00    -0.112 C  
BRANCH  13  14
HETATM   14  C   UNL     1      -9.424   3.289  68.555  1.00  0.00    -0.206 C  
BRANCH  14  15
HETATM   15  C   UNL     1      -8.609   2.677  69.697  1.00  0.00    -0.067 C  
BRANCH  15  16
HETATM   16  N   UNL     1      -8.571   3.452  70.947  1.00  0.00    -0.069 NA 
HETATM   17  C   UNL     1      -7.546   4.506  71.015  1.00  0.00    -0.064 C  
HETATM   18  C   UNL     1      -7.856   5.781  70.220  1.00  0.00    -0.100 C  
HETATM   19  C   UNL     1      -9.267   6.325  70.478  1.00  0.00    -0.158 C  
HETATM   20  C   UNL     1     -10.272   5.181  70.316  1.00  0.00    -0.342 C  
HETATM   21  C   UNL     1      -9.896   4.021  71.249  1.00  0.00    -0.172 C  
BRANCH  19  22
HETATM   22  O   UNL     1      -9.510   6.830  71.790  1.00  0.00    -0.152 OA 
BRANCH  22  23
HETATM   23  C   UNL     1      -9.406   8.233  72.050  1.00  0.00    -0.230 C  
BRANCH  23  24
HETATM   24  C   UNL     1     -10.780   8.840  71.759  1.00  0.00    -0.413 A  
HETATM   25  C   UNL     1     -10.965   9.785  70.732  1.00  0.00    -0.406 A  
HETATM   26  C   UNL     1     -12.228  10.321  70.465  1.00  0.00    -0.390 A  
HETATM   27  C   UNL     1     -11.895   8.463  72.521  1.00  0.00    -0.427 A  
HETATM   28  C   UNL     1     -13.325   9.921  71.225  1.00  0.00    -0.419 A  
HETATM   29  C   UNL     1     -13.158   8.998  72.254  1.00  0.00    -0.508 A  
ENDBRANCH  23  24
BRANCH  23  30
HETATM   30  C   UNL     1      -8.292   8.908  71.262  1.00  0.00    -0.223 A  
HETATM   31  C   UNL     1      -6.278  10.265  69.841  1.00  0.00    -0.070 A  
HETATM   32  C   UNL     1      -7.581  10.240  69.351  1.00  0.00    -0.137 A  
HETATM   33  C   UNL     1      -6.963   8.901  71.716  1.00  0.00    -0.035 A  
HETATM   34  C   UNL     1      -5.965   9.584  71.016  1.00  0.00    -0.076 A  
HETATM   35  C   UNL     1      -8.582   9.564  70.054  1.00  0.00    -0.234 A  
ENDBRANCH  23  30
ENDBRANCH  22  23
ENDBRANCH  19  22
ENDBRANCH  15  16
ENDBRANCH  14  15
ENDBRANCH  13  14
ENDBRANCH  11  13
ENDBRANCH   8  11
ENDBRANCH   2   5
TORSDOF 10
ENDMDL
MODEL      163
REMARK 921   NORMALIZED FREE ENERGY PREDICTED BY IDOCK:   -4.01 KCAL/MOL
REMARK 922        TOTAL FREE ENERGY PREDICTED BY IDOCK:   -9.29 KCAL/MOL
REMARK 923 INTER-LIGAND FREE ENERGY PREDICTED BY IDOCK:   -7.61 KCAL/MOL
REMARK 924 INTRA-LIGAND FREE ENERGY PREDICTED BY IDOCK:   -1.67 KCAL/MOL
REMARK 927      BINDING AFFINITY PREDICTED BY RF-SCORE:    0.00 PKD
ROOT
HETATM    1  C   UNL     1     -12.494   9.154  71.394  1.00  0.00    -0.396 C  
HETATM    2  C   UNL     1     -11.529   7.951  71.476  1.00  0.00    -0.301 C  
HETATM    3  C   UNL     1     -12.244   6.741  70.835  1.00  0.00    -0.386 C  
HETATM    4  C   UNL     1     -11.286   7.657  72.972  1.00  0.00    -0.334 C  
ENDROOT
BRANCH   2   5
HETATM    5  C   UNL     1     -10.195   8.198  70.759  1.00  0.00    -0.215 A  
HETATM    6  C   UNL     1     -10.074   9.050  69.651  1.00  0.00    -0.202 A  
HETATM    7  C   UNL     1      -8.844   9.237  69.002  1.00  0.00    -0.136 A  
HETATM    8  C   UNL     1      -7.704   8.566  69.446  1.00  0.00    -0.092 A  
HETATM    9  C   UNL     1      -9.030   7.540  71.199  1.00  0.00    -0.144 A  
HETATM   10  C   UNL     1      -7.805   7.720  70.555  1.00  0.00    -0.096 A  
BRANCH   8  11
HETATM   11  C   UNL     1      -6.419   8.770  68.717  1.00  0.00    -0.053 C  
HETATM   12  O   UNL     1      -5.690   7.806  68.493  1.00  0.00    -0.026 OA 
BRANCH  11  13
HETATM   13  C   UNL     1      -6.070  10.179  68.282  1.00  0.00    -0.045 C  
BRANCH  13  14
HETATM   14  C   UNL     1      -6.126  11.167  69.443  1.00  0.00    -0.071 C  
BRANCH  14  15
HETATM   15  C   UNL     1      -5.405  12.480  69.128  1.00  0.00    -0.068 C  
BRANCH  15  16
HETATM   16  N   UNL     1      -6.052  13.704  69.625  1.00  0.00    -0.114 NA 
HETATM   17  C   UNL     1      -5.436  14.971  69.199  1.00  0.00    -0.093 C  
HETATM   18  C   UNL     1      -5.724  15.391  67.752  1.00  0.00    -0.138 C  
HETATM   19  C   UNL     1      -7.212  15.317  67.387  1.00  0.00    -0.204 C  
HETATM   20  C   UNL     1      -7.751  13.945  67.799  1.00  0.00    -0.177 C  
HETATM   21  C   UNL     1      -7.487  13.708  69.293  1.00  0.00     0.188 C  
BRANCH  19  22
HETATM   22  O   UNL     1      -8.064  16.250  68.051  1.00  0.00    -0.145 OA 
BRANCH  22  23
HETATM   23  C   UNL     1      -9.423  16.402  67.636  1.00  0.00    -0.225 C  
BRANCH  23  24
HETATM   24  C   UNL     1      -9.682  17.904  67.506  1.00  0.00    -0.278 A  
HETATM   25  C   UNL     1      -9.958  18.704  68.632  1.00  0.00    -0.431 A  
HETATM   26  C   UNL     1     -10.176  20.078  68.503  1.00  0.00    -0.484 A  
HETATM   27  C   UNL     1      -9.649  18.522  66.247  1.00  0.00    -0.279 A  
HETATM   28  C   UNL     1     -10.124  20.674  67.244  1.00  0.00    -0.350 A  
HETATM   29  C   UNL     1      -9.866  19.895  66.118  1.00  0.00    -0.562 A  
ENDBRANCH  23  24
BRANCH  23  30
HETATM   30  C   UNL     1     -10.415  15.718  68.567  1.00  0.00    -0.236 A  
HETATM   31  C   UNL     1     -12.305  14.563  70.302  1.00  0.00    -0.408 A  
HETATM   32  C   UNL     1     -11.302  15.384  70.810  1.00  0.00    -0.376 A  
HETATM   33  C   UNL     1     -11.402  14.848  68.077  1.00  0.00    -0.337 A  
HETATM   34  C   UNL     1     -12.347  14.283  68.937  1.00  0.00    -0.116 A  
HETATM   35  C   UNL     1     -10.362  15.957  69.950  1.00  0.00    -0.282 A  
ENDBRANCH  23  30
ENDBRANCH  22  23
ENDBRANCH  19  22
ENDBRANCH  15  16
ENDBRANCH  14  15
ENDBRANCH  13  14
ENDBRANCH  11  13
ENDBRANCH   8  11
ENDBRANCH   2   5
TORSDOF 10
ENDMDL
MODEL      164
REMARK 921   NORMALIZED FREE ENERGY PREDICTED BY IDOCK:   -3.97 KCAL/MOL
REMARK 922        TOTAL FREE ENERGY PREDICTED BY IDOCK:   -9.21 KCAL/MOL
REMARK 923 INTER-LIGAND FREE ENERGY PREDICTED BY IDOCK:   -6.91 KCAL/MOL
REMARK 924 INTRA-LIGAND FREE ENERGY PREDICTED BY IDOCK:   -2.31 KCAL/MOL
REMARK 927      BINDING AFFINITY PREDICTED BY RF-SCORE:    0.00 PKD
ROOT
HETATM    1  C   UNL     1     -11.928   6.553  71.296  1.00  0.00    -0.364 C  
HETATM    2  C   UNL     1     -10.635   5.818  70.881  1.00  0.00    -0.329 C  
HETATM    3  C   UNL     1     -10.678   5.639  69.347  1.00  0.00    -0.365 C  
HETATM    4  C   UNL     1     -10.660   4.427  71.549  1.00  0.00     0.115 C  
ENDROOT
BRANCH   2   5
HETATM    5  C   UNL     1      -9.359   6.575  71.274  1.00  0.00    -0.158 A  
HETATM    6  C   UNL     1      -8.096   5.966  71.312  1.00  0.00    -0.118 A  
HETATM    7  C   UNL     1      -6.951   6.678  71.698  1.00  0.00    -0.075 A  
HETATM    8  C   UNL     1      -7.047   8.021  72.065  1.00  0.00    -0.085 A  
HETATM    9  C   UNL     1      -9.433   7.934  71.636  1.00  0.00    -0.194 A  
HETATM   10  C   UNL     1      -8.297   8.646  72.025  1.00  0.00    -0.169 A  
BRANCH   8  11
HETATM   11  C   UNL     1      -5.813   8.741  72.494  1.00  0.00    -0.076 C  
HETATM   12  O   UNL     1      -5.354   8.539  73.617  1.00  0.00    -0.063 OA 
BRANCH  11  13
HETATM   13  C   UNL     1      -5.176   9.700  71.509  1.00  0.00    -0.069 C  
BRANCH  13  14
HETATM   14  C   UNL     1      -5.158   9.135  70.092  1.00  0.00    -0.028 C  
BRANCH  14  15
HETATM   15  C   UNL     1      -5.726  10.117  69.064  1.00  0.00    -0.038 C  
BRANCH  15  16
HETATM   16  N   UNL     1      -6.935  10.848  69.473  1.00  0.00    -0.122 NA 
HETATM   17  C   UNL     1      -6.841  12.316  69.428  1.00  0.00     0.007 C  
HETATM   18  C   UNL     1      -6.920  12.941  68.029  1.00  0.00    -0.108 C  
HETATM   19  C   UNL     1      -8.093  12.409  67.196  1.00  0.00    -0.167 C  
HETATM   20  C   UNL     1      -8.073  10.879  67.240  1.00  0.00    -0.123 C  
HETATM   21  C   UNL     1      -8.105  10.398  68.697  1.00  0.00    -0.118 C  
BRANCH  19  22
HETATM   22  O   UNL     1      -9.397  12.762  67.660  1.00  0.00    -0.178 OA 
BRANCH  22  23
HETATM   23  C   UNL     1      -9.980  14.011  67.279  1.00  0.00    -0.242 C  
BRANCH  23  24
HETATM   24  C   UNL     1     -10.729  14.541  68.502  1.00  0.00    -0.253 A  
HETATM   25  C   UNL     1     -11.820  13.844  69.058  1.00  0.00    -0.397 A  
HETATM   26  C   UNL     1     -12.486  14.330  70.185  1.00  0.00    -0.393 A  
HETATM   27  C   UNL     1     -10.341  15.748  69.102  1.00  0.00    -0.240 A  
HETATM   28  C   UNL     1     -12.074  15.524  70.774  1.00  0.00    -0.435 A  
HETATM   29  C   UNL     1     -11.007  16.233  70.230  1.00  0.00    -0.314 A  
ENDBRANCH  23  24
BRANCH  23  30
HETATM   30  C   UNL     1     -10.871  13.907  66.049  1.00  0.00    -0.290 A  
HETATM   31  C   UNL     1     -12.432  13.776  63.712  1.00  0.00    -0.219 A  
HETATM   32  C   UNL     1     -12.310  14.979  64.403  1.00  0.00    -0.283 A  
HETATM   33  C   UNL     1     -11.045  12.691  65.368  1.00  0.00    -0.327 A  
HETATM   34  C   UNL     1     -11.811  12.629  64.202  1.00  0.00    -0.483 A  
HETATM   35  C   UNL     1     -11.537  15.045  65.565  1.00  0.00    -0.208 A  
ENDBRANCH  23  30
ENDBRANCH  22  23
ENDBRANCH  19  22
ENDBRANCH  15  16
ENDBRANCH  14  15
ENDBRANCH  13  14
ENDBRANCH  11  13
ENDBRANCH   8  11
ENDBRANCH   2   5
TORSDOF 10
ENDMDL
MODEL      165
REMARK 921   NORMALIZED FREE ENERGY PREDICTED BY IDOCK:   -3.95 KCAL/MOL
REMARK 922        TOTAL FREE ENERGY PREDICTED BY IDOCK:   -9.18 KCAL/MOL
REMARK 923 INTER-LIGAND FREE ENERGY PREDICTED BY IDOCK:   -6.10 KCAL/MOL
REMARK 924 INTRA-LIGAND FREE ENERGY PREDICTED BY IDOCK:   -3.08 KCAL/MOL
REMARK 927      BINDING AFFINITY PREDICTED BY RF-SCORE:    0.00 PKD
ROOT
HETATM    1  C   UNL     1      -6.739   7.983  73.493  1.00  0.00    -0.120 C  
HETATM    2  C   UNL     1      -6.643   7.875  71.956  1.00  0.00    -0.059 C  
HETATM    3  C   UNL     1      -5.226   8.332  71.548  1.00  0.00    -0.033 C  
HETATM    4  C   UNL     1      -7.677   8.855  71.360  1.00  0.00    -0.126 C  
ENDROOT
BRANCH   2   5
HETATM    5  C   UNL     1      -6.895   6.454  71.435  1.00  0.00    -0.067 A  
HETATM    6  C   UNL     1      -6.068   5.835  70.487  1.00  0.00    -0.030 A  
HETATM    7  C   UNL     1      -6.338   4.543  70.013  1.00  0.00    -0.027 A  
HETATM    8  C   UNL     1      -7.452   3.841  70.474  1.00  0.00    -0.041 A  
HETATM    9  C   UNL     1      -8.008   5.725  71.897  1.00  0.00    -0.107 A  
HETATM   10  C   UNL     1      -8.283   4.440  71.425  1.00  0.00    -0.091 A  
BRANCH   8  11
HETATM   11  C   UNL     1      -7.722   2.479  69.929  1.00  0.00    -0.043 C  
HETATM   12  O   UNL     1      -7.659   1.504  70.676  1.00  0.00    -0.033 OA 
BRANCH  11  13
HETATM   13  C   UNL     1      -8.067   2.362  68.458  1.00  0.00    -0.069 C  
BRANCH  13  14
HETATM   14  C   UNL     1      -9.301   3.182  68.093  1.00  0.00    -0.247 C  
BRANCH  14  15
HETATM   15  C   UNL     1      -8.971   4.352  67.163  1.00  0.00    -0.119 C  
BRANCH  15  16
HETATM   16  N   UNL     1      -8.580   5.607  67.822  1.00  0.00    -0.102 NA 
HETATM   17  C   UNL     1      -8.047   6.655  66.936  1.00  0.00    -0.113 C  
HETATM   18  C   UNL     1      -9.090   7.405  66.099  1.00  0.00    -0.167 C  
HETATM   19  C   UNL     1     -10.287   7.896  66.923  1.00  0.00    -0.330 C  
HETATM   20  C   UNL     1     -10.820   6.728  67.757  1.00  0.00    -0.339 C  
HETATM   21  C   UNL     1      -9.694   6.147  68.622  1.00  0.00    -0.128 C  
BRANCH  19  22
HETATM   22  O   UNL     1     -10.008   8.918  67.879  1.00  0.00    -0.162 OA 
BRANCH  22  23
HETATM   23  C   UNL     1     -10.942   9.981  68.086  1.00  0.00    -0.235 C  
BRANCH  23  24
HETATM   24  C   UNL     1     -10.219  11.282  67.732  1.00  0.00    -0.203 A  
HETATM   25  C   UNL     1      -9.073  11.702  68.436  1.00  0.00    -0.180 A  
HETATM   26  C   UNL     1      -8.412  12.884  68.094  1.00  0.00    -0.176 A  
HETATM   27  C   UNL     1     -10.688  12.092  66.688  1.00  0.00    -0.280 A  
HETATM   28  C   UNL     1      -8.886  13.666  67.043  1.00  0.00    -0.233 A  
HETATM   29  C   UNL     1     -10.026  13.273  66.345  1.00  0.00    -0.288 A  
ENDBRANCH  23  24
BRANCH  23  30
HETATM   30  C   UNL     1     -11.527  10.002  69.491  1.00  0.00    -0.176 A  
HETATM   31  C   UNL     1     -12.494  10.069  72.132  1.00  0.00    -0.176 A  
HETATM   32  C   UNL     1     -11.695   9.010  71.709  1.00  0.00    -0.440 A  
HETATM   33  C   UNL     1     -12.374  11.036  69.919  1.00  0.00    -0.356 A  
HETATM   34  C   UNL     1     -12.846  11.075  71.233  1.00  0.00    -0.528 A  
HETATM   35  C   UNL     1     -11.215   8.974  70.397  1.00  0.00    -0.275 A  
ENDBRANCH  23  30
ENDBRANCH  22  23
ENDBRANCH  19  22
ENDBRANCH  15  16
ENDBRANCH  14  15
ENDBRANCH  13  14
ENDBRANCH  11  13
ENDBRANCH   8  11
ENDBRANCH   2   5
TORSDOF 10
ENDMDL
MODEL      166
REMARK 921   NORMALIZED FREE ENERGY PREDICTED BY IDOCK:   -3.93 KCAL/MOL
REMARK 922        TOTAL FREE ENERGY PREDICTED BY IDOCK:   -9.16 KCAL/MOL
REMARK 923 INTER-LIGAND FREE ENERGY PREDICTED BY IDOCK:   -6.33 KCAL/MOL
REMARK 924 INTRA-LIGAND FREE ENERGY PREDICTED BY IDOCK:   -2.82 KCAL/MOL
REMARK 927      BINDING AFFINITY PREDICTED BY RF-SCORE:    0.00 PKD
ROOT
HETATM    1  C   UNL     1      -7.085   9.915  66.019  1.00  0.00    -0.105 C  
HETATM    2  C   UNL     1      -7.968   8.896  65.267  1.00  0.00    -0.116 C  
HETATM    3  C   UNL     1      -7.679   9.058  63.758  1.00  0.00    -0.125 C  
HETATM    4  C   UNL     1      -9.440   9.273  65.539  1.00  0.00    -0.309 C  
ENDROOT
BRANCH   2   5
HETATM    5  C   UNL     1      -7.705   7.443  65.687  1.00  0.00    -0.104 A  
HETATM    6  C   UNL     1      -8.626   6.410  65.466  1.00  0.00    -0.115 A  
HETATM    7  C   UNL     1      -8.366   5.096  65.884  1.00  0.00    -0.118 A  
HETATM    8  C   UNL     1      -7.175   4.788  66.542  1.00  0.00    -0.077 A  
HETATM    9  C   UNL     1      -6.503   7.111  66.342  1.00  0.00    -0.051 A  
HETATM   10  C   UNL     1      -6.242   5.806  66.763  1.00  0.00    -0.030 A  
BRANCH   8  11
HETATM   11  C   UNL     1      -6.943   3.386  66.993  1.00  0.00    -0.054 C  
HETATM   12  O   UNL     1      -6.414   2.582  66.228  1.00  0.00    -0.027 OA 
BRANCH  11  13
HETATM   13  C   UNL     1      -7.377   3.015  68.397  1.00  0.00    -0.049 C  
BRANCH  13  14
HETATM   14  C   UNL     1      -8.165   4.136  69.067  1.00  0.00    -0.078 C  
BRANCH  14  15
HETATM   15  C   UNL     1      -7.415   4.750  70.252  1.00  0.00    -0.051 C  
BRANCH  15  16
HETATM   16  N   UNL     1      -8.122   5.816  70.978  1.00  0.00    -0.118 NA 
HETATM   17  C   UNL     1      -7.314   6.996  71.327  1.00  0.00    -0.080 C  
HETATM   18  C   UNL     1      -7.021   7.960  70.170  1.00  0.00    -0.049 C  
HETATM   19  C   UNL     1      -8.271   8.331  69.361  1.00  0.00    -0.117 C  
HETATM   20  C   UNL     1      -9.009   7.045  68.982  1.00  0.00    -0.133 C  
HETATM   21  C   UNL     1      -9.330   6.235  70.246  1.00  0.00    -0.161 C  
BRANCH  19  22
HETATM   22  O   UNL     1      -9.248   9.113  70.047  1.00  0.00    -0.165 OA 
BRANCH  22  23
HETATM   23  C   UNL     1     -10.526   9.347  69.451  1.00  0.00    -0.220 C  
BRANCH  23  24
HETATM   24  C   UNL     1     -10.419  10.662  68.675  1.00  0.00    -0.211 A  
HETATM   25  C   UNL     1      -9.265  11.467  68.745  1.00  0.00    -0.108 A  
HETATM   26  C   UNL     1      -9.173  12.657  68.020  1.00  0.00    -0.208 A  
HETATM   27  C   UNL     1     -11.482  11.097  67.870  1.00  0.00    -0.359 A  
HETATM   28  C   UNL     1     -10.235  13.063  67.214  1.00  0.00    -0.239 A  
HETATM   29  C   UNL     1     -11.389  12.287  67.144  1.00  0.00    -0.398 A  
ENDBRANCH  23  24
BRANCH  23  30
HETATM   30  C   UNL     1     -11.666   9.356  70.459  1.00  0.00    -0.254 A  
HETATM   31  C   UNL     1     -13.692   9.341  72.412  1.00  0.00    -0.517 A  
HETATM   32  C   UNL     1     -13.157   8.141  71.954  1.00  0.00    -0.349 A  
HETATM   33  C   UNL     1     -12.252  10.555  70.896  1.00  0.00    -0.490 A  
HETATM   34  C   UNL     1     -13.250  10.549  71.873  1.00  0.00    -0.526 A  
HETATM   35  C   UNL     1     -12.152   8.146  70.983  1.00  0.00    -0.223 A  
ENDBRANCH  23  30
ENDBRANCH  22  23
ENDBRANCH  19  22
ENDBRANCH  15  16
ENDBRANCH  14  15
ENDBRANCH  13  14
ENDBRANCH  11  13
ENDBRANCH   8  11
ENDBRANCH   2   5
TORSDOF 10
ENDMDL
MODEL      167
REMARK 921   NORMALIZED FREE ENERGY PREDICTED BY IDOCK:   -3.90 KCAL/MOL
REMARK 922        TOTAL FREE ENERGY PREDICTED BY IDOCK:   -9.11 KCAL/MOL
REMARK 923 INTER-LIGAND FREE ENERGY PREDICTED BY IDOCK:   -7.21 KCAL/MOL
REMARK 924 INTRA-LIGAND FREE ENERGY PREDICTED BY IDOCK:   -1.91 KCAL/MOL
REMARK 927      BINDING AFFINITY PREDICTED BY RF-SCORE:    0.00 PKD
ROOT
HETATM    1  C   UNL     1      -5.668   4.596  72.705  1.00  0.00    -0.008 C  
HETATM    2  C   UNL     1      -7.134   4.309  73.099  1.00  0.00    -0.068 C  
HETATM    3  C   UNL     1      -7.323   4.789  74.555  1.00  0.00    -0.081 C  
HETATM    4  C   UNL     1      -7.335   2.780  73.044  1.00  0.00    -0.041 C  
ENDROOT
BRANCH   2   5
HETATM    5  C   UNL     1      -8.151   5.013  72.190  1.00  0.00    -0.112 A  
HETATM    6  C   UNL     1      -9.219   4.339  71.581  1.00  0.00    -0.186 A  
HETATM    7  C   UNL     1     -10.119   5.005  70.736  1.00  0.00    -0.307 A  
HETATM    8  C   UNL     1      -9.963   6.367  70.474  1.00  0.00    -0.214 A  
HETATM    9  C   UNL     1      -8.018   6.389  71.923  1.00  0.00    -0.104 A  
HETATM   10  C   UNL     1      -8.908   7.056  71.080  1.00  0.00    -0.146 A  
BRANCH   8  11
HETATM   11  C   UNL     1     -10.924   7.037  69.552  1.00  0.00    -0.220 C  
HETATM   12  O   UNL     1     -11.862   6.396  69.082  1.00  0.00    -0.067 OA 
BRANCH  11  13
HETATM   13  C   UNL     1     -10.694   8.502  69.234  1.00  0.00    -0.147 C  
BRANCH  13  14
HETATM   14  C   UNL     1      -9.457   8.711  68.367  1.00  0.00    -0.144 C  
BRANCH  14  15
HETATM   15  C   UNL     1      -9.414  10.104  67.736  1.00  0.00    -0.144 C  
BRANCH  15  16
HETATM   16  N   UNL     1     -10.013  11.189  68.529  1.00  0.00    -0.193 NA 
HETATM   17  C   UNL     1      -9.075  12.203  69.037  1.00  0.00     0.397 C  
HETATM   18  C   UNL     1      -8.577  13.219  68.002  1.00  0.00    -0.178 C  
HETATM   19  C   UNL     1      -9.708  13.838  67.171  1.00  0.00    -0.244 C  
HETATM   20  C   UNL     1     -10.590  12.713  66.625  1.00  0.00    -0.267 C  
HETATM   21  C   UNL     1     -11.102  11.843  67.782  1.00  0.00    -0.239 C  
BRANCH  19  22
HETATM   22  O   UNL     1     -10.610  14.686  67.881  1.00  0.00    -0.240 OA 
BRANCH  22  23
HETATM   23  C   UNL     1     -10.124  15.546  68.915  1.00  0.00    -0.214 C  
BRANCH  23  24
HETATM   24  C   UNL     1     -11.135  15.479  70.060  1.00  0.00    -0.326 A  
HETATM   25  C   UNL     1     -10.857  16.037  71.323  1.00  0.00     0.250 A  
HETATM   26  C   UNL     1     -11.795  15.984  72.357  1.00  0.00    -0.639 A  
HETATM   27  C   UNL     1     -12.375  14.850  69.874  1.00  0.00    -0.322 A  
HETATM   28  C   UNL     1     -13.026  15.367  72.145  1.00  0.00    -0.480 A  
HETATM   29  C   UNL     1     -13.313  14.798  70.907  1.00  0.00    -0.372 A  
ENDBRANCH  23  24
BRANCH  23  30
HETATM   30  C   UNL     1      -9.873  16.971  68.441  1.00  0.00    -0.283 A  
HETATM   31  C   UNL     1      -9.489  19.644  67.652  1.00  0.00    -0.438 A  
HETATM   32  C   UNL     1     -10.682  18.993  67.350  1.00  0.00    -0.559 A  
HETATM   33  C   UNL     1      -8.658  17.626  68.693  1.00  0.00    -0.264 A  
HETATM   34  C   UNL     1      -8.470  18.957  68.311  1.00  0.00    -0.365 A  
HETATM   35  C   UNL     1     -10.873  17.665  67.739  1.00  0.00    -0.241 A  
ENDBRANCH  23  30
ENDBRANCH  22  23
ENDBRANCH  19  22
ENDBRANCH  15  16
ENDBRANCH  14  15
ENDBRANCH  13  14
ENDBRANCH  11  13
ENDBRANCH   8  11
ENDBRANCH   2   5
TORSDOF 10
ENDMDL
MODEL      168
REMARK 921   NORMALIZED FREE ENERGY PREDICTED BY IDOCK:   -3.90 KCAL/MOL
REMARK 922        TOTAL FREE ENERGY PREDICTED BY IDOCK:   -9.11 KCAL/MOL
REMARK 923 INTER-LIGAND FREE ENERGY PREDICTED BY IDOCK:   -7.52 KCAL/MOL
REMARK 924 INTRA-LIGAND FREE ENERGY PREDICTED BY IDOCK:   -1.59 KCAL/MOL
REMARK 927      BINDING AFFINITY PREDICTED BY RF-SCORE:    0.00 PKD
ROOT
HETATM    1  C   UNL     1      -7.231   4.533  65.473  1.00  0.00    -0.068 C  
HETATM    2  C   UNL     1      -8.454   4.537  66.416  1.00  0.00    -0.112 C  
HETATM    3  C   UNL     1      -8.485   3.173  67.139  1.00  0.00    -0.104 C  
HETATM    4  C   UNL     1      -9.715   4.667  65.534  1.00  0.00    -0.192 C  
ENDROOT
BRANCH   2   5
HETATM    5  C   UNL     1      -8.412   5.668  67.453  1.00  0.00    -0.106 A  
HETATM    6  C   UNL     1      -8.821   6.978  67.165  1.00  0.00    -0.121 A  
HETATM    7  C   UNL     1      -8.748   7.995  68.128  1.00  0.00    -0.126 A  
HETATM    8  C   UNL     1      -8.255   7.724  69.405  1.00  0.00    -0.131 A  
HETATM    9  C   UNL     1      -7.929   5.411  68.750  1.00  0.00    -0.087 A  
HETATM   10  C   UNL     1      -7.851   6.421  69.711  1.00  0.00    -0.114 A  
BRANCH   8  11
HETATM   11  C   UNL     1      -8.169   8.835  70.395  1.00  0.00    -0.122 C  
HETATM   12  O   UNL     1      -8.235   8.583  71.597  1.00  0.00    -0.138 OA 
BRANCH  11  13
HETATM   13  C   UNL     1      -8.000  10.245  69.863  1.00  0.00    -0.092 C  
BRANCH  13  14
HETATM   14  C   UNL     1      -6.560  10.531  69.449  1.00  0.00    -0.069 C  
BRANCH  14  15
HETATM   15  C   UNL     1      -6.107  11.938  69.846  1.00  0.00    -0.153 C  
BRANCH  15  16
HETATM   16  N   UNL     1      -5.943  12.896  68.742  1.00  0.00    -0.068 NA 
HETATM   17  C   UNL     1      -6.508  12.482  67.447  1.00  0.00    -0.153 C  
HETATM   18  C   UNL     1      -8.034  12.588  67.329  1.00  0.00    -0.173 C  
HETATM   19  C   UNL     1      -8.584  13.941  67.796  1.00  0.00    -0.182 C  
HETATM   20  C   UNL     1      -8.002  14.257  69.176  1.00  0.00     0.046 C  
HETATM   21  C   UNL     1      -6.468  14.221  69.117  1.00  0.00    -0.109 C  
BRANCH  19  22
HETATM   22  O   UNL     1      -8.231  15.068  66.994  1.00  0.00    -0.205 OA 
BRANCH  22  23
HETATM   23  C   UNL     1      -9.188  15.638  66.098  1.00  0.00    -0.343 C  
BRANCH  23  24
HETATM   24  C   UNL     1      -9.643  16.960  66.719  1.00  0.00    -0.273 A  
HETATM   25  C   UNL     1      -9.579  17.182  68.109  1.00  0.00    -0.270 A  
HETATM   26  C   UNL     1      -9.982  18.399  68.663  1.00  0.00    -0.415 A  
HETATM   27  C   UNL     1     -10.140  17.990  65.907  1.00  0.00    -0.167 A  
HETATM   28  C   UNL     1     -10.459  19.414  67.836  1.00  0.00    -0.536 A  
HETATM   29  C   UNL     1     -10.543  19.207  66.461  1.00  0.00    -0.523 A  
ENDBRANCH  23  24
BRANCH  23  30
HETATM   30  C   UNL     1     -10.352  14.707  65.791  1.00  0.00    -0.349 A  
HETATM   31  C   UNL     1     -12.568  13.083  65.182  1.00  0.00    -0.530 A  
HETATM   32  C   UNL     1     -12.611  13.938  66.280  1.00  0.00    -0.376 A  
HETATM   33  C   UNL     1     -10.307  13.804  64.717  1.00  0.00    -0.422 A  
HETATM   34  C   UNL     1     -11.411  13.005  64.408  1.00  0.00    -0.397 A  
HETATM   35  C   UNL     1     -11.511  14.743  66.585  1.00  0.00    -0.339 A  
ENDBRANCH  23  30
ENDBRANCH  22  23
ENDBRANCH  19  22
ENDBRANCH  15  16
ENDBRANCH  14  15
ENDBRANCH  13  14
ENDBRANCH  11  13
ENDBRANCH   8  11
ENDBRANCH   2   5
TORSDOF 10
ENDMDL
MODEL      169
REMARK 921   NORMALIZED FREE ENERGY PREDICTED BY IDOCK:   -3.90 KCAL/MOL
REMARK 922        TOTAL FREE ENERGY PREDICTED BY IDOCK:   -9.10 KCAL/MOL
REMARK 923 INTER-LIGAND FREE ENERGY PREDICTED BY IDOCK:   -7.14 KCAL/MOL
REMARK 924 INTRA-LIGAND FREE ENERGY PREDICTED BY IDOCK:   -1.97 KCAL/MOL
REMARK 927      BINDING AFFINITY PREDICTED BY RF-SCORE:    0.00 PKD
ROOT
HETATM    1  C   UNL     1      -8.503  19.966  66.102  1.00  0.00    -0.350 C  
HETATM    2  C   UNL     1      -9.804  19.262  66.544  1.00  0.00    -0.444 C  
HETATM    3  C   UNL     1     -10.960  19.864  65.714  1.00  0.00    -0.200 C  
HETATM    4  C   UNL     1     -10.028  19.600  68.034  1.00  0.00    -0.541 C  
ENDROOT
BRANCH   2   5
HETATM    5  C   UNL     1      -9.766  17.741  66.343  1.00  0.00    -0.315 A  
HETATM    6  C   UNL     1     -10.635  17.067  65.473  1.00  0.00    -0.184 A  
HETATM    7  C   UNL     1     -10.590  15.673  65.329  1.00  0.00    -0.448 A  
HETATM    8  C   UNL     1      -9.674  14.917  66.062  1.00  0.00    -0.358 A  
HETATM    9  C   UNL     1      -8.840  16.963  67.065  1.00  0.00    -0.231 A  
HETATM   10  C   UNL     1      -8.795  15.574  66.928  1.00  0.00    -0.284 A  
BRANCH   8  11
HETATM   11  C   UNL     1      -9.672  13.435  65.902  1.00  0.00    -0.182 C  
HETATM   12  O   UNL     1     -10.610  12.885  65.328  1.00  0.00    -0.284 OA 
BRANCH  11  13
HETATM   13  C   UNL     1      -8.492  12.665  66.464  1.00  0.00     0.119 C  
BRANCH  13  14
HETATM   14  C   UNL     1      -8.834  11.977  67.781  1.00  0.00    -0.165 C  
BRANCH  14  15
HETATM   15  C   UNL     1      -7.721  11.040  68.257  1.00  0.00    -0.113 C  
BRANCH  15  16
HETATM   16  N   UNL     1      -8.131   9.662  68.570  1.00  0.00    -0.103 NA 
HETATM   17  C   UNL     1      -9.335   9.180  67.875  1.00  0.00    -0.137 C  
HETATM   18  C   UNL     1      -9.140   8.801  66.401  1.00  0.00    -0.221 C  
HETATM   19  C   UNL     1      -7.931   7.888  66.167  1.00  0.00    -0.104 C  
HETATM   20  C   UNL     1      -6.712   8.499  66.862  1.00  0.00    -0.062 C  
HETATM   21  C   UNL     1      -7.016   8.723  68.350  1.00  0.00    -0.066 C  
BRANCH  19  22
HETATM   22  O   UNL     1      -8.028   6.572  66.712  1.00  0.00    -0.106 OA 
BRANCH  22  23
HETATM   23  C   UNL     1      -9.270   5.864  66.658  1.00  0.00    -0.140 C  
BRANCH  23  24
HETATM   24  C   UNL     1      -9.485   5.242  68.039  1.00  0.00    -0.147 A  
HETATM   25  C   UNL     1     -10.184   5.925  69.054  1.00  0.00    -0.261 A  
HETATM   26  C   UNL     1     -10.388   5.340  70.306  1.00  0.00    -0.350 A  
HETATM   27  C   UNL     1      -8.984   3.963  68.326  1.00  0.00    -0.162 A  
HETATM   28  C   UNL     1      -9.895   4.063  70.565  1.00  0.00    -0.214 A  
HETATM   29  C   UNL     1      -9.190   3.379  69.578  1.00  0.00    -0.225 A  
ENDBRANCH  23  24
BRANCH  23  30
HETATM   30  C   UNL     1      -9.324   4.833  65.539  1.00  0.00    -0.163 A  
HETATM   31  C   UNL     1      -9.453   3.019  63.392  1.00  0.00    -0.096 A  
HETATM   32  C   UNL     1     -10.622   3.564  63.916  1.00  0.00    -0.269 A  
HETATM   33  C   UNL     1      -8.159   4.237  65.032  1.00  0.00    -0.098 A  
HETATM   34  C   UNL     1      -8.221   3.344  63.959  1.00  0.00    -0.090 A  
HETATM   35  C   UNL     1     -10.560   4.463  64.984  1.00  0.00    -0.144 A  
ENDBRANCH  23  30
ENDBRANCH  22  23
ENDBRANCH  19  22
ENDBRANCH  15  16
ENDBRANCH  14  15
ENDBRANCH  13  14
ENDBRANCH  11  13
ENDBRANCH   8  11
ENDBRANCH   2   5
TORSDOF 10
ENDMDL
MODEL      170
REMARK 921   NORMALIZED FREE ENERGY PREDICTED BY IDOCK:   -3.84 KCAL/MOL
REMARK 922        TOTAL FREE ENERGY PREDICTED BY IDOCK:   -9.02 KCAL/MOL
REMARK 923 INTER-LIGAND FREE ENERGY PREDICTED BY IDOCK:   -5.70 KCAL/MOL
REMARK 924 INTRA-LIGAND FREE ENERGY PREDICTED BY IDOCK:   -3.32 KCAL/MOL
REMARK 927      BINDING AFFINITY PREDICTED BY RF-SCORE:    0.00 PKD
ROOT
HETATM    1  C   UNL     1      -5.590   7.029  63.593  1.00  0.00    -0.036 C  
HETATM    2  C   UNL     1      -7.047   6.524  63.509  1.00  0.00    -0.055 C  
HETATM    3  C   UNL     1      -7.116   5.503  62.353  1.00  0.00    -0.040 C  
HETATM    4  C   UNL     1      -7.936   7.738  63.161  1.00  0.00    -0.117 C  
ENDROOT
BRANCH   2   5
HETATM    5  C   UNL     1      -7.532   5.865  64.808  1.00  0.00    -0.078 A  
HETATM    6  C   UNL     1      -8.690   5.077  64.873  1.00  0.00    -0.150 A  
HETATM    7  C   UNL     1      -9.120   4.506  66.080  1.00  0.00    -0.130 A  
HETATM    8  C   UNL     1      -8.401   4.720  67.256  1.00  0.00    -0.105 A  
HETATM    9  C   UNL     1      -6.813   6.058  66.003  1.00  0.00    -0.061 A  
HETATM   10  C   UNL     1      -7.239   5.496  67.207  1.00  0.00    -0.075 A  
BRANCH   8  11
HETATM   11  C   UNL     1      -8.901   4.118  68.526  1.00  0.00    -0.105 C  
HETATM   12  O   UNL     1      -9.745   3.225  68.482  1.00  0.00    -0.112 OA 
BRANCH  11  13
HETATM   13  C   UNL     1      -8.335   4.646  69.829  1.00  0.00    -0.081 C  
BRANCH  13  14
HETATM   14  C   UNL     1      -9.424   4.886  70.870  1.00  0.00    -0.227 C  
BRANCH  14  15
HETATM   15  C   UNL     1      -9.640   6.375  71.155  1.00  0.00    -0.174 C  
BRANCH  15  16
HETATM   16  N   UNL     1      -9.076   7.308  70.168  1.00  0.00    -0.149 NA 
HETATM   17  C   UNL     1      -9.904   7.557  68.977  1.00  0.00    -0.170 C  
HETATM   18  C   UNL     1     -11.105   8.488  69.191  1.00  0.00     0.174 C  
HETATM   19  C   UNL     1     -10.740   9.784  69.926  1.00  0.00    -0.268 C  
HETATM   20  C   UNL     1      -9.944   9.428  71.184  1.00  0.00    -0.311 C  
HETATM   21  C   UNL     1      -8.717   8.587  70.805  1.00  0.00    -0.160 C  
BRANCH  19  22
HETATM   22  O   UNL     1      -9.895  10.688  69.213  1.00  0.00    -0.218 OA 
BRANCH  22  23
HETATM   23  C   UNL     1      -9.946  10.744  67.785  1.00  0.00    -0.171 C  
BRANCH  23  24
HETATM   24  C   UNL     1      -8.499  10.761  67.290  1.00  0.00    -0.124 A  
HETATM   25  C   UNL     1      -7.613  11.799  67.641  1.00  0.00    -0.132 A  
HETATM   26  C   UNL     1      -6.289  11.796  67.196  1.00  0.00    -0.145 A  
HETATM   27  C   UNL     1      -8.020   9.732  66.466  1.00  0.00    -0.112 A  
HETATM   28  C   UNL     1      -5.830  10.756  66.390  1.00  0.00    -0.109 A  
HETATM   29  C   UNL     1      -6.696   9.729  66.022  1.00  0.00    -0.087 A  
ENDBRANCH  23  24
BRANCH  23  30
HETATM   30  C   UNL     1     -10.757  11.919  67.260  1.00  0.00    -0.276 A  
HETATM   31  C   UNL     1     -12.350  14.015  66.264  1.00  0.00    -0.482 A  
HETATM   32  C   UNL     1     -11.792  13.087  65.389  1.00  0.00    -0.428 A  
HETATM   33  C   UNL     1     -11.286  12.892  68.123  1.00  0.00    -0.305 A  
HETATM   34  C   UNL     1     -12.085  13.927  67.630  1.00  0.00    -0.342 A  
HETATM   35  C   UNL     1     -10.999  12.047  65.881  1.00  0.00    -0.342 A  
ENDBRANCH  23  30
ENDBRANCH  22  23
ENDBRANCH  19  22
ENDBRANCH  15  16
ENDBRANCH  14  15
ENDBRANCH  13  14
ENDBRANCH  11  13
ENDBRANCH   8  11
ENDBRANCH   2   5
TORSDOF 10
ENDMDL
MODEL      171
REMARK 921   NORMALIZED FREE ENERGY PREDICTED BY IDOCK:   -3.84 KCAL/MOL
REMARK 922        TOTAL FREE ENERGY PREDICTED BY IDOCK:   -9.01 KCAL/MOL
REMARK 923 INTER-LIGAND FREE ENERGY PREDICTED BY IDOCK:   -7.18 KCAL/MOL
REMARK 924 INTRA-LIGAND FREE ENERGY PREDICTED BY IDOCK:   -1.83 KCAL/MOL
REMARK 927      BINDING AFFINITY PREDICTED BY RF-SCORE:    0.00 PKD
ROOT
HETATM    1  C   UNL     1     -11.130   9.906  71.435  1.00  0.00    -0.207 C  
HETATM    2  C   UNL     1     -12.292  10.692  70.788  1.00  0.00    -0.472 C  
HETATM    3  C   UNL     1     -12.674  11.832  71.757  1.00  0.00    -0.299 C  
HETATM    4  C   UNL     1     -13.487   9.723  70.657  1.00  0.00     0.041 C  
ENDROOT
BRANCH   2   5
HETATM    5  C   UNL     1     -11.931  11.281  69.418  1.00  0.00    -0.410 A  
HETATM    6  C   UNL     1     -12.116  12.634  69.100  1.00  0.00    -0.191 A  
HETATM    7  C   UNL     1     -11.799  13.138  67.830  1.00  0.00    -0.390 A  
HETATM    8  C   UNL     1     -11.294  12.292  66.842  1.00  0.00    -0.392 A  
HETATM    9  C   UNL     1     -11.409  10.446  68.411  1.00  0.00    -0.292 A  
HETATM   10  C   UNL     1     -11.096  10.941  67.145  1.00  0.00    -0.308 A  
BRANCH   8  11
HETATM   11  C   UNL     1     -10.991  12.857  65.496  1.00  0.00    -0.274 C  
HETATM   12  O   UNL     1     -10.667  14.039  65.393  1.00  0.00    -0.306 OA 
BRANCH  11  13
HETATM   13  C   UNL     1     -11.097  11.931  64.300  1.00  0.00    -0.418 C  
BRANCH  13  14
HETATM   14  C   UNL     1      -9.729  11.455  63.822  1.00  0.00    -0.314 C  
BRANCH  14  15
HETATM   15  C   UNL     1      -8.704  11.389  64.957  1.00  0.00     0.237 C  
BRANCH  15  16
HETATM   16  N   UNL     1      -7.788  10.238  64.931  1.00  0.00    -0.147 NA 
HETATM   17  C   UNL     1      -6.890  10.110  66.090  1.00  0.00    -0.108 C  
HETATM   18  C   UNL     1      -7.540   9.581  67.375  1.00  0.00    -0.095 C  
HETATM   19  C   UNL     1      -8.380   8.317  67.149  1.00  0.00    -0.123 C  
HETATM   20  C   UNL     1      -9.332   8.563  65.976  1.00  0.00    -0.266 C  
HETATM   21  C   UNL     1      -8.533   8.982  64.734  1.00  0.00    -0.180 C  
BRANCH  19  22
HETATM   22  O   UNL     1      -7.655   7.144  66.780  1.00  0.00    -0.090 OA 
BRANCH  22  23
HETATM   23  C   UNL     1      -8.064   5.865  67.270  1.00  0.00    -0.102 C  
BRANCH  23  24
HETATM   24  C   UNL     1      -8.572   5.071  66.065  1.00  0.00    -0.121 A  
HETATM   25  C   UNL     1      -8.496   5.587  64.757  1.00  0.00    -0.125 A  
HETATM   26  C   UNL     1      -8.949   4.846  63.663  1.00  0.00    -0.024 A  
HETATM   27  C   UNL     1      -9.132   3.797  66.242  1.00  0.00    -0.152 A  
HETATM   28  C   UNL     1      -9.488   3.577  63.859  1.00  0.00    -0.135 A  
HETATM   29  C   UNL     1      -9.583   3.056  65.147  1.00  0.00    -0.048 A  
ENDBRANCH  23  24
BRANCH  23  30
HETATM   30  C   UNL     1      -9.093   5.951  68.388  1.00  0.00    -0.115 A  
HETATM   31  C   UNL     1     -10.944   6.217  70.491  1.00  0.00    -0.384 A  
HETATM   32  C   UNL     1      -9.624   5.871  70.764  1.00  0.00    -0.203 A  
HETATM   33  C   UNL     1     -10.439   6.250  68.126  1.00  0.00    -0.278 A  
HETATM   34  C   UNL     1     -11.356   6.393  69.170  1.00  0.00    -0.366 A  
HETATM   35  C   UNL     1      -8.704   5.736  69.721  1.00  0.00    -0.127 A  
ENDBRANCH  23  30
ENDBRANCH  22  23
ENDBRANCH  19  22
ENDBRANCH  15  16
ENDBRANCH  14  15
ENDBRANCH  13  14
ENDBRANCH  11  13
ENDBRANCH   8  11
ENDBRANCH   2   5
TORSDOF 10
ENDMDL
MODEL      172
REMARK 921   NORMALIZED FREE ENERGY PREDICTED BY IDOCK:   -3.79 KCAL/MOL
REMARK 922        TOTAL FREE ENERGY PREDICTED BY IDOCK:   -8.94 KCAL/MOL
REMARK 923 INTER-LIGAND FREE ENERGY PREDICTED BY IDOCK:   -7.41 KCAL/MOL
REMARK 924 INTRA-LIGAND FREE ENERGY PREDICTED BY IDOCK:   -1.52 KCAL/MOL
REMARK 927      BINDING AFFINITY PREDICTED BY RF-SCORE:    0.00 PKD
ROOT
HETATM    1  C   UNL     1      -9.450   2.183  68.891  1.00  0.00    -0.168 C  
HETATM    2  C   UNL     1      -8.571   3.356  69.375  1.00  0.00    -0.113 C  
HETATM    3  C   UNL     1      -7.167   2.786  69.679  1.00  0.00    -0.044 C  
HETATM    4  C   UNL     1      -9.191   3.888  70.685  1.00  0.00    -0.197 C  
ENDROOT
BRANCH   2   5
HETATM    5  C   UNL     1      -8.453   4.487  68.344  1.00  0.00    -0.100 A  
HETATM    6  C   UNL     1      -7.383   5.392  68.328  1.00  0.00    -0.072 A  
HETATM    7  C   UNL     1      -7.316   6.430  67.387  1.00  0.00    -0.087 A  
HETATM    8  C   UNL     1      -8.329   6.590  66.441  1.00  0.00    -0.120 A  
HETATM    9  C   UNL     1      -9.460   4.657  67.374  1.00  0.00    -0.177 A  
HETATM   10  C   UNL     1      -9.400   5.691  66.438  1.00  0.00    -0.165 A  
BRANCH   8  11
HETATM   11  C   UNL     1      -8.238   7.720  65.472  1.00  0.00    -0.137 C  
HETATM   12  O   UNL     1      -7.901   7.496  64.311  1.00  0.00    -0.128 OA 
BRANCH  11  13
HETATM   13  C   UNL     1      -8.571   9.111  65.974  1.00  0.00    -0.162 C  
BRANCH  13  14
HETATM   14  C   UNL     1     -10.061   9.417  65.865  1.00  0.00    -0.243 C  
BRANCH  14  15
HETATM   15  C   UNL     1     -10.332  10.875  65.487  1.00  0.00    -0.252 C  
BRANCH  15  16
HETATM   16  N   UNL     1     -10.828  11.739  66.569  1.00  0.00    -0.269 NA 
HETATM   17  C   UNL     1      -9.888  11.981  67.675  1.00  0.00    -0.189 C  
HETATM   18  C   UNL     1      -8.761  12.978  67.378  1.00  0.00    -0.205 C  
HETATM   19  C   UNL     1      -9.261  14.283  66.745  1.00  0.00    -0.264 C  
HETATM   20  C   UNL     1     -10.171  13.939  65.563  1.00  0.00    -0.348 C  
HETATM   21  C   UNL     1     -11.311  13.023  66.032  1.00  0.00    -0.310 C  
BRANCH  19  22
HETATM   22  O   UNL     1     -10.064  15.114  67.583  1.00  0.00    -0.229 OA 
BRANCH  22  23
HETATM   23  C   UNL     1      -9.462  16.175  68.330  1.00  0.00    -0.208 C  
BRANCH  23  24
HETATM   24  C   UNL     1      -9.816  17.479  67.612  1.00  0.00    -0.291 A  
HETATM   25  C   UNL     1     -10.311  17.483  66.293  1.00  0.00    -0.335 A  
HETATM   26  C   UNL     1     -10.646  18.679  65.654  1.00  0.00    -0.171 A  
HETATM   27  C   UNL     1      -9.652  18.711  68.261  1.00  0.00    -0.382 A  
HETATM   28  C   UNL     1     -10.490  19.891  66.322  1.00  0.00    -0.590 A  
HETATM   29  C   UNL     1      -9.989  19.907  67.622  1.00  0.00    -0.553 A  
ENDBRANCH  23  24
BRANCH  23  30
HETATM   30  C   UNL     1      -7.961  16.001  68.516  1.00  0.00    -0.159 A  
HETATM   31  C   UNL     1      -5.178  15.801  68.883  1.00  0.00    -0.103 A  
HETATM   32  C   UNL     1      -5.689  16.395  67.732  1.00  0.00    -0.151 A  
HETATM   33  C   UNL     1      -7.430  15.360  69.647  1.00  0.00    -0.170 A  
HETATM   34  C   UNL     1      -6.049  15.270  69.834  1.00  0.00    -0.151 A  
HETATM   35  C   UNL     1      -7.070  16.493  67.547  1.00  0.00    -0.169 A  
ENDBRANCH  23  30
ENDBRANCH  22  23
ENDBRANCH  19  22
ENDBRANCH  15  16
ENDBRANCH  14  15
ENDBRANCH  13  14
ENDBRANCH  11  13
ENDBRANCH   8  11
ENDBRANCH   2   5
TORSDOF 10
ENDMDL
MODEL      173
REMARK 921   NORMALIZED FREE ENERGY PREDICTED BY IDOCK:   -3.79 KCAL/MOL
REMARK 922        TOTAL FREE ENERGY PREDICTED BY IDOCK:   -8.93 KCAL/MOL
REMARK 923 INTER-LIGAND FREE ENERGY PREDICTED BY IDOCK:   -8.34 KCAL/MOL
REMARK 924 INTRA-LIGAND FREE ENERGY PREDICTED BY IDOCK:   -0.59 KCAL/MOL
REMARK 927      BINDING AFFINITY PREDICTED BY RF-SCORE:    0.00 PKD
ROOT
HETATM    1  C   UNL     1      -7.927   3.451  71.927  1.00  0.00    -0.062 C  
HETATM    2  C   UNL     1      -8.709   3.892  70.670  1.00  0.00    -0.119 C  
HETATM    3  C   UNL     1      -9.224   2.612  69.975  1.00  0.00    -0.202 C  
HETATM    4  C   UNL     1      -7.710   4.605  69.733  1.00  0.00    -0.058 C  
ENDROOT
BRANCH   2   5
HETATM    5  C   UNL     1      -9.892   4.815  70.989  1.00  0.00    -0.267 A  
HETATM    6  C   UNL     1     -10.323   5.073  72.298  1.00  0.00    -0.267 A  
HETATM    7  C   UNL     1     -11.424   5.904  72.556  1.00  0.00    -0.347 A  
HETATM    8  C   UNL     1     -12.125   6.493  71.503  1.00  0.00    -0.363 A  
HETATM    9  C   UNL     1     -10.604   5.429  69.940  1.00  0.00    -0.351 A  
HETATM   10  C   UNL     1     -11.702   6.253  70.192  1.00  0.00    -0.274 A  
BRANCH   8  11
HETATM   11  C   UNL     1     -13.304   7.351  71.813  1.00  0.00    -0.312 C  
HETATM   12  O   UNL     1     -14.384   7.114  71.276  1.00  0.00    -0.361 OA 
BRANCH  11  13
HETATM   13  C   UNL     1     -13.110   8.491  72.794  1.00  0.00    -0.082 C  
BRANCH  13  14
HETATM   14  C   UNL     1     -13.227   9.853  72.117  1.00  0.00    -0.511 C  
BRANCH  14  15
HETATM   15  C   UNL     1     -12.672   9.846  70.690  1.00  0.00    -0.154 C  
BRANCH  15  16
HETATM   16  N   UNL     1     -11.355  10.476  70.510  1.00  0.00    -0.325 NA 
HETATM   17  C   UNL     1     -10.545   9.956  69.396  1.00  0.00    -0.229 C  
HETATM   18  C   UNL     1     -10.972  10.418  67.997  1.00  0.00    -0.347 C  
HETATM   19  C   UNL     1     -11.186  11.934  67.901  1.00  0.00    -0.263 C  
HETATM   20  C   UNL     1     -12.094  12.376  69.051  1.00  0.00    -0.185 C  
HETATM   21  C   UNL     1     -11.487  11.939  70.392  1.00  0.00     0.227 C  
BRANCH  19  22
HETATM   22  O   UNL     1     -10.015  12.738  68.041  1.00  0.00    -0.212 OA 
BRANCH  22  23
HETATM   23  C   UNL     1      -9.204  13.029  66.900  1.00  0.00    -0.236 C  
BRANCH  23  24
HETATM   24  C   UNL     1     -10.141  13.081  65.692  1.00  0.00    -0.276 A  
HETATM   25  C   UNL     1     -10.274  11.986  64.815  1.00  0.00    -0.311 A  
HETATM   26  C   UNL     1     -11.145  12.039  63.725  1.00  0.00    -0.510 A  
HETATM   27  C   UNL     1     -10.894  14.234  65.429  1.00  0.00    -0.348 A  
HETATM   28  C   UNL     1     -11.895  13.190  63.490  1.00  0.00    -0.539 A  
HETATM   29  C   UNL     1     -11.765  14.287  64.339  1.00  0.00    -0.405 A  
ENDBRANCH  23  24
BRANCH  23  30
HETATM   30  C   UNL     1      -8.060  12.043  66.710  1.00  0.00    -0.081 A  
HETATM   31  C   UNL     1      -5.935  10.259  66.241  1.00  0.00    -0.072 A  
HETATM   32  C   UNL     1      -7.188  10.012  65.686  1.00  0.00    -0.120 A  
HETATM   33  C   UNL     1      -6.805  12.250  67.302  1.00  0.00    -0.140 A  
HETATM   34  C   UNL     1      -5.747  11.370  67.061  1.00  0.00    -0.106 A  
HETATM   35  C   UNL     1      -8.245  10.896  65.920  1.00  0.00    -0.133 A  
ENDBRANCH  23  30
ENDBRANCH  22  23
ENDBRANCH  19  22
ENDBRANCH  15  16
ENDBRANCH  14  15
ENDBRANCH  13  14
ENDBRANCH  11  13
ENDBRANCH   8  11
ENDBRANCH   2   5
TORSDOF 10
ENDMDL
MODEL      174
REMARK 921   NORMALIZED FREE ENERGY PREDICTED BY IDOCK:   -3.78 KCAL/MOL
REMARK 922        TOTAL FREE ENERGY PREDICTED BY IDOCK:   -8.92 KCAL/MOL
REMARK 923 INTER-LIGAND FREE ENERGY PREDICTED BY IDOCK:   -7.85 KCAL/MOL
REMARK 924 INTRA-LIGAND FREE ENERGY PREDICTED BY IDOCK:   -1.07 KCAL/MOL
REMARK 927      BINDING AFFINITY PREDICTED BY RF-SCORE:    0.00 PKD
ROOT
HETATM    1  C   UNL     1      -8.125   4.447  67.690  1.00  0.00    -0.099 C  
HETATM    2  C   UNL     1      -9.087   5.488  67.079  1.00  0.00    -0.112 C  
HETATM    3  C   UNL     1      -9.705   6.288  68.247  1.00  0.00    -0.122 C  
HETATM    4  C   UNL     1     -10.207   4.711  66.354  1.00  0.00    -0.293 C  
ENDROOT
BRANCH   2   5
HETATM    5  C   UNL     1      -8.394   6.452  66.106  1.00  0.00    -0.128 A  
HETATM    6  C   UNL     1      -7.877   7.693  66.505  1.00  0.00    -0.105 A  
HETATM    7  C   UNL     1      -7.269   8.562  65.588  1.00  0.00    -0.079 A  
HETATM    8  C   UNL     1      -7.171   8.210  64.241  1.00  0.00    -0.089 A  
HETATM    9  C   UNL     1      -8.274   6.109  64.746  1.00  0.00    -0.112 A  
HETATM   10  C   UNL     1      -7.674   6.972  63.828  1.00  0.00    -0.111 A  
BRANCH   8  11
HETATM   11  C   UNL     1      -6.541   9.169  63.289  1.00  0.00    -0.090 C  
HETATM   12  O   UNL     1      -5.481   8.872  62.742  1.00  0.00    -0.070 OA 
BRANCH  11  13
HETATM   13  C   UNL     1      -7.250  10.486  63.040  1.00  0.00    -0.027 C  
BRANCH  13  14
HETATM   14  C   UNL     1      -8.704  10.283  62.628  1.00  0.00    -0.224 C  
BRANCH  14  15
HETATM   15  C   UNL     1      -9.590  11.473  63.004  1.00  0.00    -0.346 C  
BRANCH  15  16
HETATM   16  N   UNL     1     -10.748  11.169  63.858  1.00  0.00    -0.378 NA 
HETATM   17  C   UNL     1     -10.485  10.270  64.994  1.00  0.00     0.034 C  
HETATM   18  C   UNL     1      -9.757  10.907  66.185  1.00  0.00    -0.252 C  
HETATM   19  C   UNL     1     -10.375  12.238  66.629  1.00  0.00    -0.215 C  
HETATM   20  C   UNL     1     -10.547  13.134  65.400  1.00  0.00    -0.311 C  
HETATM   21  C   UNL     1     -11.384  12.409  64.337  1.00  0.00    -0.340 C  
BRANCH  19  22
HETATM   22  O   UNL     1     -11.682  12.160  67.198  1.00  0.00    -0.465 OA 
BRANCH  22  23
HETATM   23  C   UNL     1     -11.848  12.176  68.618  1.00  0.00    -0.306 C  
BRANCH  23  24
HETATM   24  C   UNL     1     -11.527  13.597  69.085  1.00  0.00    -0.346 A  
HETATM   25  C   UNL     1     -10.353  14.259  68.676  1.00  0.00    -0.246 A  
HETATM   26  C   UNL     1     -10.078  15.563  69.096  1.00  0.00    -0.239 A  
HETATM   27  C   UNL     1     -12.405  14.276  69.943  1.00  0.00    -0.377 A  
HETATM   28  C   UNL     1     -10.971  16.224  69.936  1.00  0.00    -0.365 A  
HETATM   29  C   UNL     1     -12.130  15.579  70.362  1.00  0.00    -0.426 A  
ENDBRANCH  23  24
BRANCH  23  30
HETATM   30  C   UNL     1     -11.012  11.124  69.333  1.00  0.00    -0.298 A  
HETATM   31  C   UNL     1      -9.519   9.092  70.581  1.00  0.00    -0.286 A  
HETATM   32  C   UNL     1     -10.881   9.216  70.841  1.00  0.00    -0.345 A  
HETATM   33  C   UNL     1      -9.629  11.015  69.120  1.00  0.00    -0.081 A  
HETATM   34  C   UNL     1      -8.889  10.000  69.731  1.00  0.00    -0.205 A  
HETATM   35  C   UNL     1     -11.624  10.225  70.224  1.00  0.00    -0.396 A  
ENDBRANCH  23  30
ENDBRANCH  22  23
ENDBRANCH  19  22
ENDBRANCH  15  16
ENDBRANCH  14  15
ENDBRANCH  13  14
ENDBRANCH  11  13
ENDBRANCH   8  11
ENDBRANCH   2   5
TORSDOF 10
ENDMDL
MODEL      175
REMARK 921   NORMALIZED FREE ENERGY PREDICTED BY IDOCK:   -3.78 KCAL/MOL
REMARK 922        TOTAL FREE ENERGY PREDICTED BY IDOCK:   -8.91 KCAL/MOL
REMARK 923 INTER-LIGAND FREE ENERGY PREDICTED BY IDOCK:   -6.95 KCAL/MOL
REMARK 924 INTRA-LIGAND FREE ENERGY PREDICTED BY IDOCK:   -1.96 KCAL/MOL
REMARK 927      BINDING AFFINITY PREDICTED BY RF-SCORE:    0.00 PKD
ROOT
HETATM    1  C   UNL     1     -14.387  15.366  71.673  1.00  0.00    -0.615 C  
HETATM    2  C   UNL     1     -12.911  15.052  72.000  1.00  0.00    -0.427 C  
HETATM    3  C   UNL     1     -12.898  13.828  72.943  1.00  0.00    -0.159 C  
HETATM    4  C   UNL     1     -12.337  16.272  72.753  1.00  0.00    -0.543 C  
ENDROOT
BRANCH   2   5
HETATM    5  C   UNL     1     -12.068  14.750  70.754  1.00  0.00    -0.374 A  
HETATM    6  C   UNL     1     -10.914  15.475  70.425  1.00  0.00    -0.360 A  
HETATM    7  C   UNL     1     -10.177  15.190  69.266  1.00  0.00    -0.251 A  
HETATM    8  C   UNL     1     -10.586  14.173  68.402  1.00  0.00    -0.263 A  
HETATM    9  C   UNL     1     -12.458  13.720  69.877  1.00  0.00    -0.259 A  
HETATM   10  C   UNL     1     -11.731  13.436  68.720  1.00  0.00    -0.377 A  
BRANCH   8  11
HETATM   11  C   UNL     1      -9.793  13.915  67.166  1.00  0.00    -0.241 C  
HETATM   12  O   UNL     1     -10.370  13.577  66.135  1.00  0.00    -0.284 OA 
BRANCH  11  13
HETATM   13  C   UNL     1      -8.288  14.085  67.245  1.00  0.00    -0.209 C  
BRANCH  13  14
HETATM   14  C   UNL     1      -7.684  13.304  68.408  1.00  0.00    -0.138 C  
BRANCH  14  15
HETATM   15  C   UNL     1      -7.041  11.990  67.958  1.00  0.00    -0.086 C  
BRANCH  15  16
HETATM   16  N   UNL     1      -7.924  10.814  67.939  1.00  0.00    -0.109 NA 
HETATM   17  C   UNL     1      -7.563   9.759  66.978  1.00  0.00    -0.092 C  
HETATM   18  C   UNL     1      -6.375   8.877  67.382  1.00  0.00    -0.056 C  
HETATM   19  C   UNL     1      -6.480   8.344  68.817  1.00  0.00    -0.053 C  
HETATM   20  C   UNL     1      -6.785   9.515  69.754  1.00  0.00    -0.057 C  
HETATM   21  C   UNL     1      -8.057  10.238  69.289  1.00  0.00    -0.155 C  
BRANCH  19  22
HETATM   22  O   UNL     1      -7.531   7.409  69.060  1.00  0.00    -0.094 OA 
BRANCH  22  23
HETATM   23  C   UNL     1      -7.445   6.505  70.164  1.00  0.00    -0.094 C  
BRANCH  23  24
HETATM   24  C   UNL     1      -7.707   5.103  69.610  1.00  0.00    -0.068 A  
HETATM   25  C   UNL     1      -7.622   3.959  70.428  1.00  0.00    -0.044 A  
HETATM   26  C   UNL     1      -7.879   2.686  69.914  1.00  0.00    -0.049 A  
HETATM   27  C   UNL     1      -8.040   4.927  68.259  1.00  0.00    -0.085 A  
HETATM   28  C   UNL     1      -8.222   2.535  68.573  1.00  0.00    -0.073 A  
HETATM   29  C   UNL     1      -8.298   3.653  67.746  1.00  0.00    -0.100 A  
ENDBRANCH  23  24
BRANCH  23  30
HETATM   30  C   UNL     1      -8.383   6.864  71.308  1.00  0.00    -0.119 A  
HETATM   31  C   UNL     1     -10.189   7.435  73.389  1.00  0.00    -0.402 A  
HETATM   32  C   UNL     1     -10.524   7.738  72.072  1.00  0.00    -0.277 A  
HETATM   33  C   UNL     1      -8.041   6.611  72.646  1.00  0.00    -0.102 A  
HETATM   34  C   UNL     1      -8.941   6.884  73.678  1.00  0.00    -0.174 A  
HETATM   35  C   UNL     1      -9.628   7.457  71.038  1.00  0.00    -0.161 A  
ENDBRANCH  23  30
ENDBRANCH  22  23
ENDBRANCH  19  22
ENDBRANCH  15  16
ENDBRANCH  14  15
ENDBRANCH  13  14
ENDBRANCH  11  13
ENDBRANCH   8  11
ENDBRANCH   2   5
TORSDOF 10
ENDMDL
MODEL      176
REMARK 921   NORMALIZED FREE ENERGY PREDICTED BY IDOCK:   -3.77 KCAL/MOL
REMARK 922        TOTAL FREE ENERGY PREDICTED BY IDOCK:   -8.90 KCAL/MOL
REMARK 923 INTER-LIGAND FREE ENERGY PREDICTED BY IDOCK:   -7.84 KCAL/MOL
REMARK 924 INTRA-LIGAND FREE ENERGY PREDICTED BY IDOCK:   -1.06 KCAL/MOL
REMARK 927      BINDING AFFINITY PREDICTED BY RF-SCORE:    0.00 PKD
ROOT
HETATM    1  C   UNL     1      -8.593   4.813  63.455  1.00  0.00    -0.132 C  
HETATM    2  C   UNL     1      -9.368   4.104  64.587  1.00  0.00    -0.163 C  
HETATM    3  C   UNL     1      -8.632   2.780  64.892  1.00  0.00    -0.098 C  
HETATM    4  C   UNL     1     -10.778   3.781  64.049  1.00  0.00    -0.256 C  
ENDROOT
BRANCH   2   5
HETATM    5  C   UNL     1      -9.466   4.943  65.868  1.00  0.00    -0.171 A  
HETATM    6  C   UNL     1     -10.012   4.448  67.061  1.00  0.00    -0.197 A  
HETATM    7  C   UNL     1     -10.110   5.248  68.209  1.00  0.00    -0.219 A  
HETATM    8  C   UNL     1      -9.668   6.572  68.185  1.00  0.00    -0.126 A  
HETATM    9  C   UNL     1      -9.015   6.277  65.868  1.00  0.00    -0.122 A  
HETATM   10  C   UNL     1      -9.114   7.079  67.006  1.00  0.00    -0.150 A  
BRANCH   8  11
HETATM   11  C   UNL     1      -9.810   7.400  69.417  1.00  0.00    -0.168 C  
HETATM   12  O   UNL     1     -10.799   8.119  69.554  1.00  0.00    -0.213 OA 
BRANCH  11  13
HETATM   13  C   UNL     1      -8.711   7.314  70.457  1.00  0.00    -0.148 C  
BRANCH  13  14
HETATM   14  C   UNL     1      -7.812   8.546  70.442  1.00  0.00    -0.089 C  
BRANCH  14  15
HETATM   15  C   UNL     1      -7.153   8.772  69.080  1.00  0.00    -0.065 C  
BRANCH  15  16
HETATM   16  N   UNL     1      -6.854  10.170  68.733  1.00  0.00    -0.060 NA 
HETATM   17  C   UNL     1      -6.567  10.429  67.313  1.00  0.00    -0.068 C  
HETATM   18  C   UNL     1      -7.788  10.446  66.384  1.00  0.00    -0.128 C  
HETATM   19  C   UNL     1      -8.936  11.315  66.912  1.00  0.00    -0.162 C  
HETATM   20  C   UNL     1      -9.214  10.931  68.367  1.00  0.00    -0.168 C  
HETATM   21  C   UNL     1      -7.930  11.064  69.198  1.00  0.00    -0.078 C  
BRANCH  19  22
HETATM   22  O   UNL     1      -8.684  12.720  66.956  1.00  0.00    -0.202 OA 
BRANCH  22  23
HETATM   23  C   UNL     1      -9.689  13.642  66.527  1.00  0.00    -0.292 C  
BRANCH  23  24
HETATM   24  C   UNL     1     -10.424  14.112  67.784  1.00  0.00    -0.246 A  
HETATM   25  C   UNL     1     -10.028  15.272  68.479  1.00  0.00    -0.222 A  
HETATM   26  C   UNL     1     -10.717  15.701  69.616  1.00  0.00    -0.278 A  
HETATM   27  C   UNL     1     -11.520  13.388  68.276  1.00  0.00    -0.350 A  
HETATM   28  C   UNL     1     -11.812  14.974  70.079  1.00  0.00    -0.360 A  
HETATM   29  C   UNL     1     -12.209  13.817  69.412  1.00  0.00    -0.325 A  
ENDBRANCH  23  24
BRANCH  23  30
HETATM   30  C   UNL     1     -10.632  13.060  65.483  1.00  0.00    -0.297 A  
HETATM   31  C   UNL     1     -12.404  12.100  63.520  1.00  0.00    -0.682 A  
HETATM   32  C   UNL     1     -12.901  12.670  64.689  1.00  0.00    -0.361 A  
HETATM   33  C   UNL     1     -10.148  12.438  64.322  1.00  0.00    -0.305 A  
HETATM   34  C   UNL     1     -11.027  11.970  63.342  1.00  0.00    -0.475 A  
HETATM   35  C   UNL     1     -12.022  13.145  65.666  1.00  0.00    -0.462 A  
ENDBRANCH  23  30
ENDBRANCH  22  23
ENDBRANCH  19  22
ENDBRANCH  15  16
ENDBRANCH  14  15
ENDBRANCH  13  14
ENDBRANCH  11  13
ENDBRANCH   8  11
ENDBRANCH   2   5
TORSDOF 10
ENDMDL
MODEL      177
REMARK 921   NORMALIZED FREE ENERGY PREDICTED BY IDOCK:   -3.74 KCAL/MOL
REMARK 922        TOTAL FREE ENERGY PREDICTED BY IDOCK:   -8.85 KCAL/MOL
REMARK 923 INTER-LIGAND FREE ENERGY PREDICTED BY IDOCK:   -7.13 KCAL/MOL
REMARK 924 INTRA-LIGAND FREE ENERGY PREDICTED BY IDOCK:   -1.71 KCAL/MOL
REMARK 927      BINDING AFFINITY PREDICTED BY RF-SCORE:    0.00 PKD
ROOT
HETATM    1  C   UNL     1      -7.445   7.839  63.497  1.00  0.00    -0.115 C  
HETATM    2  C   UNL     1      -7.603   9.141  64.312  1.00  0.00    -0.115 C  
HETATM    3  C   UNL     1      -9.074   9.593  64.179  1.00  0.00    -0.256 C  
HETATM    4  C   UNL     1      -6.690  10.204  63.665  1.00  0.00    -0.117 C  
ENDROOT
BRANCH   2   5
HETATM    5  C   UNL     1      -7.251   8.969  65.796  1.00  0.00    -0.089 A  
HETATM    6  C   UNL     1      -6.728   7.779  66.320  1.00  0.00    -0.054 A  
HETATM    7  C   UNL     1      -6.438   7.645  67.686  1.00  0.00    -0.058 A  
HETATM    8  C   UNL     1      -6.673   8.704  68.563  1.00  0.00    -0.060 A  
HETATM    9  C   UNL     1      -7.469  10.031  66.695  1.00  0.00    -0.104 A  
HETATM   10  C   UNL     1      -7.186   9.902  68.056  1.00  0.00    -0.083 A  
BRANCH   8  11
HETATM   11  C   UNL     1      -6.376   8.518  70.013  1.00  0.00    -0.034 C  
HETATM   12  O   UNL     1      -5.208   8.528  70.398  1.00  0.00    -0.022 OA 
BRANCH  11  13
HETATM   13  C   UNL     1      -7.547   8.324  70.955  1.00  0.00    -0.076 C  
BRANCH  13  14
HETATM   14  C   UNL     1      -8.483   7.215  70.482  1.00  0.00    -0.139 C  
BRANCH  14  15
HETATM   15  C   UNL     1      -9.846   7.265  71.177  1.00  0.00    -0.182 C  
BRANCH  15  16
HETATM   16  N   UNL     1     -10.973   7.721  70.350  1.00  0.00    -0.249 NA 
HETATM   17  C   UNL     1     -12.168   8.166  71.086  1.00  0.00    -0.239 C  
HETATM   18  C   UNL     1     -12.065   9.553  71.734  1.00  0.00    -0.459 C  
HETATM   19  C   UNL     1     -11.539  10.629  70.776  1.00  0.00    -0.292 C  
HETATM   20  C   UNL     1     -10.262  10.112  70.109  1.00  0.00    -0.235 C  
HETATM   21  C   UNL     1     -10.542   8.773  69.412  1.00  0.00    -0.209 C  
BRANCH  19  22
HETATM   22  O   UNL     1     -12.398  10.967  69.687  1.00  0.00    -0.321 OA 
BRANCH  22  23
HETATM   23  C   UNL     1     -12.571  12.335  69.307  1.00  0.00     0.579 C  
BRANCH  23  24
HETATM   24  C   UNL     1     -11.592  12.604  68.162  1.00  0.00    -0.386 A  
HETATM   25  C   UNL     1     -10.233  12.882  68.404  1.00  0.00    -0.238 A  
HETATM   26  C   UNL     1      -9.346  13.110  67.350  1.00  0.00    -0.213 A  
HETATM   27  C   UNL     1     -12.036  12.578  66.831  1.00  0.00    -0.306 A  
HETATM   28  C   UNL     1      -9.804  13.066  66.035  1.00  0.00    -0.259 A  
HETATM   29  C   UNL     1     -11.148  12.805  65.777  1.00  0.00    -0.316 A  
ENDBRANCH  23  24
BRANCH  23  30
HETATM   30  C   UNL     1     -12.394  13.306  70.466  1.00  0.00    -0.389 A  
HETATM   31  C   UNL     1     -12.118  15.190  72.537  1.00  0.00    -0.483 A  
HETATM   32  C   UNL     1     -11.287  15.255  71.421  1.00  0.00    -0.419 A  
HETATM   33  C   UNL     1     -13.189  13.226  71.620  1.00  0.00    -0.446 A  
HETATM   34  C   UNL     1     -13.059  14.168  72.644  1.00  0.00    -0.564 A  
HETATM   35  C   UNL     1     -11.422  14.319  70.393  1.00  0.00    -0.188 A  
ENDBRANCH  23  30
ENDBRANCH  22  23
ENDBRANCH  19  22
ENDBRANCH  15  16
ENDBRANCH  14  15
ENDBRANCH  13  14
ENDBRANCH  11  13
ENDBRANCH   8  11
ENDBRANCH   2   5
TORSDOF 10
ENDMDL
MODEL      178
REMARK 921   NORMALIZED FREE ENERGY PREDICTED BY IDOCK:   -3.72 KCAL/MOL
REMARK 922        TOTAL FREE ENERGY PREDICTED BY IDOCK:   -8.83 KCAL/MOL
REMARK 923 INTER-LIGAND FREE ENERGY PREDICTED BY IDOCK:   -6.20 KCAL/MOL
REMARK 924 INTRA-LIGAND FREE ENERGY PREDICTED BY IDOCK:   -2.63 KCAL/MOL
REMARK 927      BINDING AFFINITY PREDICTED BY RF-SCORE:    0.00 PKD
ROOT
HETATM    1  C   UNL     1     -12.047  14.255  66.759  1.00  0.00    -0.446 C  
HETATM    2  C   UNL     1     -11.148  13.452  65.794  1.00  0.00    -0.295 C  
HETATM    3  C   UNL     1     -10.584  14.445  64.754  1.00  0.00    -0.417 C  
HETATM    4  C   UNL     1     -12.048  12.426  65.072  1.00  0.00    -0.468 C  
ENDROOT
BRANCH   2   5
HETATM    5  C   UNL     1      -9.990  12.737  66.503  1.00  0.00    -0.256 A  
HETATM    6  C   UNL     1      -9.329  13.280  67.614  1.00  0.00    -0.212 A  
HETATM    7  C   UNL     1      -8.258  12.613  68.226  1.00  0.00    -0.164 A  
HETATM    8  C   UNL     1      -7.817  11.384  67.731  1.00  0.00    -0.117 A  
HETATM    9  C   UNL     1      -9.539  11.492  66.026  1.00  0.00    -0.251 A  
HETATM   10  C   UNL     1      -8.470  10.826  66.629  1.00  0.00    -0.142 A  
BRANCH   8  11
HETATM   11  C   UNL     1      -6.659  10.716  68.392  1.00  0.00    -0.055 C  
HETATM   12  O   UNL     1      -5.795  10.179  67.702  1.00  0.00    -0.045 OA 
BRANCH  11  13
HETATM   13  C   UNL     1      -6.605  10.732  69.907  1.00  0.00    -0.149 C  
BRANCH  13  14
HETATM   14  C   UNL     1      -7.199   9.464  70.514  1.00  0.00    -0.126 C  
BRANCH  14  15
HETATM   15  C   UNL     1      -8.705   9.349  70.267  1.00  0.00    -0.230 C  
BRANCH  15  16
HETATM   16  N   UNL     1      -9.230   7.982  70.121  1.00  0.00    -0.152 NA 
HETATM   17  C   UNL     1     -10.577   7.874  69.538  1.00  0.00    -0.219 C  
HETATM   18  C   UNL     1     -10.657   8.081  68.020  1.00  0.00    -0.190 C  
HETATM   19  C   UNL     1      -9.620   7.261  67.242  1.00  0.00    -0.152 C  
HETATM   20  C   UNL     1      -8.243   7.488  67.871  1.00  0.00    -0.123 C  
HETATM   21  C   UNL     1      -8.287   7.139  69.365  1.00  0.00    -0.133 C  
BRANCH  19  22
HETATM   22  O   UNL     1      -9.797   5.845  67.272  1.00  0.00    -0.122 OA 
BRANCH  22  23
HETATM   23  C   UNL     1      -8.741   4.981  66.841  1.00  0.00    -0.107 C  
BRANCH  23  24
HETATM   24  C   UNL     1      -9.062   4.576  65.401  1.00  0.00    -0.146 A  
HETATM   25  C   UNL     1      -8.100   4.675  64.376  1.00  0.00    -0.106 A  
HETATM   26  C   UNL     1      -8.399   4.286  63.068  1.00  0.00    -0.093 A  
HETATM   27  C   UNL     1     -10.335   4.092  65.068  1.00  0.00    -0.174 A  
HETATM   28  C   UNL     1      -9.666   3.795  62.763  1.00  0.00    -0.133 A  
HETATM   29  C   UNL     1     -10.634   3.703  63.761  1.00  0.00    -0.284 A  
ENDBRANCH  23  24
BRANCH  23  30
HETATM   30  C   UNL     1      -8.538   3.780  67.754  1.00  0.00    -0.112 A  
HETATM   31  C   UNL     1      -8.056   1.613  69.482  1.00  0.00    -0.059 A  
HETATM   32  C   UNL     1      -7.291   1.769  68.329  1.00  0.00    -0.043 A  
HETATM   33  C   UNL     1      -9.332   3.580  68.894  1.00  0.00    -0.236 A  
HETATM   34  C   UNL     1      -9.087   2.510  69.757  1.00  0.00    -0.183 A  
HETATM   35  C   UNL     1      -7.530   2.843  67.469  1.00  0.00    -0.057 A  
ENDBRANCH  23  30
ENDBRANCH  22  23
ENDBRANCH  19  22
ENDBRANCH  15  16
ENDBRANCH  14  15
ENDBRANCH  13  14
ENDBRANCH  11  13
ENDBRANCH   8  11
ENDBRANCH   2   5
TORSDOF 10
ENDMDL
MODEL      179
REMARK 921   NORMALIZED FREE ENERGY PREDICTED BY IDOCK:   -3.71 KCAL/MOL
REMARK 922        TOTAL FREE ENERGY PREDICTED BY IDOCK:   -8.81 KCAL/MOL
REMARK 923 INTER-LIGAND FREE ENERGY PREDICTED BY IDOCK:   -6.69 KCAL/MOL
REMARK 924 INTRA-LIGAND FREE ENERGY PREDICTED BY IDOCK:   -2.12 KCAL/MOL
REMARK 927      BINDING AFFINITY PREDICTED BY RF-SCORE:    0.00 PKD
ROOT
HETATM    1  C   UNL     1     -11.457   9.780  71.465  1.00  0.00    -0.393 C  
HETATM    2  C   UNL     1     -12.600  10.645  70.892  1.00  0.00    -0.503 C  
HETATM    3  C   UNL     1     -13.201  11.452  72.064  1.00  0.00    -0.432 C  
HETATM    4  C   UNL     1     -13.675   9.682  70.342  1.00  0.00     0.610 C  
ENDROOT
BRANCH   2   5
HETATM    5  C   UNL     1     -12.134  11.606  69.790  1.00  0.00    -0.357 A  
HETATM    6  C   UNL     1     -11.981  12.984  70.000  1.00  0.00    -0.383 A  
HETATM    7  C   UNL     1     -11.576  13.842  68.966  1.00  0.00    -0.356 A  
HETATM    8  C   UNL     1     -11.322  13.336  67.691  1.00  0.00    -0.328 A  
HETATM    9  C   UNL     1     -11.861  11.114  68.500  1.00  0.00    -0.330 A  
HETATM   10  C   UNL     1     -11.462  11.964  67.467  1.00  0.00    -0.396 A  
BRANCH   8  11
HETATM   11  C   UNL     1     -10.917  14.281  66.610  1.00  0.00    -0.310 C  
HETATM   12  O   UNL     1     -11.731  14.597  65.745  1.00  0.00    -0.352 OA 
BRANCH  11  13
HETATM   13  C   UNL     1      -9.497  14.813  66.632  1.00  0.00    -0.293 C  
BRANCH  13  14
HETATM   14  C   UNL     1      -8.728  14.338  67.860  1.00  0.00    -0.178 C  
BRANCH  14  15
HETATM   15  C   UNL     1      -7.234  14.158  67.581  1.00  0.00    -0.180 C  
BRANCH  15  16
HETATM   16  N   UNL     1      -6.821  12.820  67.131  1.00  0.00    -0.070 NA 
HETATM   17  C   UNL     1      -5.649  12.249  67.815  1.00  0.00    -0.092 C  
HETATM   18  C   UNL     1      -5.907  11.709  69.228  1.00  0.00    -0.061 C  
HETATM   19  C   UNL     1      -7.131  10.788  69.307  1.00  0.00    -0.116 C  
HETATM   20  C   UNL     1      -8.316  11.487  68.637  1.00  0.00    -0.123 C  
HETATM   21  C   UNL     1      -7.949  11.874  67.198  1.00  0.00    -0.172 C  
BRANCH  19  22
HETATM   22  O   UNL     1      -7.019   9.541  68.621  1.00  0.00    -0.063 OA 
BRANCH  22  23
HETATM   23  C   UNL     1      -8.126   9.032  67.874  1.00  0.00    -0.106 C  
BRANCH  23  24
HETATM   24  C   UNL     1      -8.874   8.065  68.794  1.00  0.00    -0.138 A  
HETATM   25  C   UNL     1      -8.241   7.462  69.899  1.00  0.00    -0.132 A  
HETATM   26  C   UNL     1      -8.938   6.593  70.742  1.00  0.00    -0.151 A  
HETATM   27  C   UNL     1     -10.220   7.755  68.552  1.00  0.00    -0.227 A  
HETATM   28  C   UNL     1     -10.279   6.310  70.492  1.00  0.00    -0.240 A  
HETATM   29  C   UNL     1     -10.917   6.886  69.396  1.00  0.00    -0.274 A  
ENDBRANCH  23  24
BRANCH  23  30
HETATM   30  C   UNL     1      -7.717   8.385  66.558  1.00  0.00    -0.089 A  
HETATM   31  C   UNL     1      -7.010   7.085  64.165  1.00  0.00    -0.056 A  
HETATM   32  C   UNL     1      -6.323   6.800  65.342  1.00  0.00    -0.042 A  
HETATM   33  C   UNL     1      -8.365   8.697  65.353  1.00  0.00    -0.165 A  
HETATM   34  C   UNL     1      -8.022   8.044  64.167  1.00  0.00    -0.137 A  
HETATM   35  C   UNL     1      -6.671   7.447  66.531  1.00  0.00    -0.061 A  
ENDBRANCH  23  30
ENDBRANCH  22  23
ENDBRANCH  19  22
ENDBRANCH  15  16
ENDBRANCH  14  15
ENDBRANCH  13  14
ENDBRANCH  11  13
ENDBRANCH   8  11
ENDBRANCH   2   5
TORSDOF 10
ENDMDL
MODEL      180
REMARK 921   NORMALIZED FREE ENERGY PREDICTED BY IDOCK:   -3.71 KCAL/MOL
REMARK 922        TOTAL FREE ENERGY PREDICTED BY IDOCK:   -8.81 KCAL/MOL
REMARK 923 INTER-LIGAND FREE ENERGY PREDICTED BY IDOCK:   -5.75 KCAL/MOL
REMARK 924 INTRA-LIGAND FREE ENERGY PREDICTED BY IDOCK:   -3.06 KCAL/MOL
REMARK 927      BINDING AFFINITY PREDICTED BY RF-SCORE:    0.00 PKD
ROOT
HETATM    1  C   UNL     1     -12.684  13.638  66.834  1.00  0.00     0.249 C  
HETATM    2  C   UNL     1     -11.492  13.954  65.905  1.00  0.00    -0.328 C  
HETATM    3  C   UNL     1     -12.053  14.691  64.668  1.00  0.00    -0.466 C  
HETATM    4  C   UNL     1     -10.889  12.606  65.454  1.00  0.00    -0.318 C  
ENDROOT
BRANCH   2   5
HETATM    5  C   UNL     1     -10.417  14.820  66.576  1.00  0.00    -0.291 A  
HETATM    6  C   UNL     1      -9.426  15.498  65.851  1.00  0.00    -0.377 A  
HETATM    7  C   UNL     1      -8.443  16.263  66.495  1.00  0.00    -0.338 A  
HETATM    8  C   UNL     1      -8.426  16.361  67.887  1.00  0.00    -0.171 A  
HETATM    9  C   UNL     1     -10.390  14.941  67.978  1.00  0.00    -0.244 A  
HETATM   10  C   UNL     1      -9.412  15.699  68.624  1.00  0.00    -0.204 A  
BRANCH   8  11
HETATM   11  C   UNL     1      -7.351  17.164  68.539  1.00  0.00    -0.231 C  
HETATM   12  O   UNL     1      -7.168  18.328  68.191  1.00  0.00    -0.235 OA 
BRANCH  11  13
HETATM   13  C   UNL     1      -6.524  16.492  69.618  1.00  0.00    -0.198 C  
BRANCH  13  14
HETATM   14  C   UNL     1      -5.211  15.940  69.072  1.00  0.00    -0.100 C  
BRANCH  14  15
HETATM   15  C   UNL     1      -5.428  14.894  67.976  1.00  0.00    -0.129 C  
BRANCH  15  16
HETATM   16  N   UNL     1      -5.194  13.495  68.366  1.00  0.00    -0.088 NA 
HETATM   17  C   UNL     1      -5.743  13.096  69.673  1.00  0.00    -0.105 C  
HETATM   18  C   UNL     1      -7.259  12.866  69.709  1.00  0.00     0.669 C  
HETATM   19  C   UNL     1      -7.762  11.971  68.570  1.00  0.00    -0.127 C  
HETATM   20  C   UNL     1      -7.203  12.499  67.247  1.00  0.00    -0.114 C  
HETATM   21  C   UNL     1      -5.672  12.574  67.320  1.00  0.00    -0.083 C  
BRANCH  19  22
HETATM   22  O   UNL     1      -7.340  10.608  68.617  1.00  0.00    -0.083 OA 
BRANCH  22  23
HETATM   23  C   UNL     1      -8.304   9.563  68.777  1.00  0.00    -0.117 C  
BRANCH  23  24
HETATM   24  C   UNL     1      -8.459   8.891  67.411  1.00  0.00    -0.115 A  
HETATM   25  C   UNL     1      -9.177   7.688  67.260  1.00  0.00    -0.154 A  
HETATM   26  C   UNL     1      -9.325   7.092  66.005  1.00  0.00    -0.019 A  
HETATM   27  C   UNL     1      -7.881   9.465  66.270  1.00  0.00    -0.100 A  
HETATM   28  C   UNL     1      -8.755   7.687  64.882  1.00  0.00     0.198 A  
HETATM   29  C   UNL     1      -8.030   8.869  65.015  1.00  0.00    -0.125 A  
ENDBRANCH  23  24
BRANCH  23  30
HETATM   30  C   UNL     1      -9.631  10.053  69.340  1.00  0.00    -0.237 A  
HETATM   31  C   UNL     1     -12.021  11.022  70.465  1.00  0.00    -0.474 A  
HETATM   32  C   UNL     1     -11.273  10.060  71.139  1.00  0.00    -0.339 A  
HETATM   33  C   UNL     1     -10.422  10.986  68.652  1.00  0.00    -0.214 A  
HETATM   34  C   UNL     1     -11.603  11.475  69.215  1.00  0.00    -0.388 A  
HETATM   35  C   UNL     1     -10.088   9.576  70.580  1.00  0.00    -0.353 A  
ENDBRANCH  23  30
ENDBRANCH  22  23
ENDBRANCH  19  22
ENDBRANCH  15  16
ENDBRANCH  14  15
ENDBRANCH  13  14
ENDBRANCH  11  13
ENDBRANCH   8  11
ENDBRANCH   2   5
TORSDOF 10
ENDMDL
MODEL      181
REMARK 921   NORMALIZED FREE ENERGY PREDICTED BY IDOCK:   -3.69 KCAL/MOL
REMARK 922        TOTAL FREE ENERGY PREDICTED BY IDOCK:   -8.77 KCAL/MOL
REMARK 923 INTER-LIGAND FREE ENERGY PREDICTED BY IDOCK:   -7.37 KCAL/MOL
REMARK 924 INTRA-LIGAND FREE ENERGY PREDICTED BY IDOCK:   -1.40 KCAL/MOL
REMARK 927      BINDING AFFINITY PREDICTED BY RF-SCORE:    0.00 PKD
ROOT
HETATM    1  C   UNL     1     -12.126  15.407  69.546  1.00  0.00    -0.332 C  
HETATM    2  C   UNL     1     -11.542  14.182  68.809  1.00  0.00    -0.362 C  
HETATM    3  C   UNL     1     -10.010  14.371  68.739  1.00  0.00    -0.223 C  
HETATM    4  C   UNL     1     -12.114  14.191  67.375  1.00  0.00    -0.379 C  
ENDROOT
BRANCH   2   5
HETATM    5  C   UNL     1     -11.864  12.851  69.502  1.00  0.00    -0.383 A  
HETATM    6  C   UNL     1     -11.667  11.607  68.887  1.00  0.00    -0.397 A  
HETATM    7  C   UNL     1     -11.993  10.408  69.538  1.00  0.00    -0.175 A  
HETATM    8  C   UNL     1     -12.534  10.429  70.825  1.00  0.00    -0.461 A  
HETATM    9  C   UNL     1     -12.398  12.851  70.805  1.00  0.00    -0.385 A  
HETATM   10  C   UNL     1     -12.728  11.661  71.456  1.00  0.00    -0.423 A  
BRANCH   8  11
HETATM   11  C   UNL     1     -12.891   9.137  71.477  1.00  0.00    -0.347 C  
HETATM   12  O   UNL     1     -13.996   8.638  71.269  1.00  0.00    -0.302 OA 
BRANCH  11  13
HETATM   13  C   UNL     1     -11.858   8.491  72.379  1.00  0.00    -0.437 C  
BRANCH  13  14
HETATM   14  C   UNL     1     -10.579   8.142  71.624  1.00  0.00    -0.292 C  
BRANCH  14  15
HETATM   15  C   UNL     1     -10.077   6.733  71.947  1.00  0.00    -0.180 C  
BRANCH  15  16
HETATM   16  N   UNL     1     -10.003   5.801  70.811  1.00  0.00    -0.185 NA 
HETATM   17  C   UNL     1     -11.048   5.957  69.787  1.00  0.00    -0.352 C  
HETATM   18  C   UNL     1     -10.871   7.148  68.837  1.00  0.00    -0.160 C  
HETATM   19  C   UNL     1      -9.459   7.243  68.244  1.00  0.00    -0.141 C  
HETATM   20  C   UNL     1      -8.441   7.143  69.382  1.00  0.00    -0.134 C  
HETATM   21  C   UNL     1      -8.672   5.852  70.179  1.00  0.00    -0.141 C  
BRANCH  19  22
HETATM   22  O   UNL     1      -9.091   6.198  67.344  1.00  0.00    -0.112 OA 
BRANCH  22  23
HETATM   23  C   UNL     1      -7.768   6.152  66.802  1.00  0.00    -0.103 C  
BRANCH  23  24
HETATM   24  C   UNL     1      -7.864   6.648  65.358  1.00  0.00    -0.111 A  
HETATM   25  C   UNL     1      -7.884   5.753  64.271  1.00  0.00    -0.114 A  
HETATM   26  C   UNL     1      -7.988   6.218  62.958  1.00  0.00    -0.095 A  
HETATM   27  C   UNL     1      -7.933   8.022  65.085  1.00  0.00    -0.127 A  
HETATM   28  C   UNL     1      -8.070   7.586  62.710  1.00  0.00    -0.091 A  
HETATM   29  C   UNL     1      -8.037   8.486  63.772  1.00  0.00    -0.154 A  
ENDBRANCH  23  24
BRANCH  23  30
HETATM   30  C   UNL     1      -7.125   4.776  66.904  1.00  0.00    -0.075 A  
HETATM   31  C   UNL     1      -5.971   2.211  66.976  1.00  0.00    -0.020 A  
HETATM   32  C   UNL     1      -7.356   2.353  67.000  1.00  0.00    -0.061 A  
HETATM   33  C   UNL     1      -5.731   4.616  66.931  1.00  0.00    -0.018 A  
HETATM   34  C   UNL     1      -5.157   3.343  66.957  1.00  0.00    -0.011 A  
HETATM   35  C   UNL     1      -7.930   3.626  66.966  1.00  0.00    -0.087 A  
ENDBRANCH  23  30
ENDBRANCH  22  23
ENDBRANCH  19  22
ENDBRANCH  15  16
ENDBRANCH  14  15
ENDBRANCH  13  14
ENDBRANCH  11  13
ENDBRANCH   8  11
ENDBRANCH   2   5
TORSDOF 10
ENDMDL
MODEL      182
REMARK 921   NORMALIZED FREE ENERGY PREDICTED BY IDOCK:   -3.65 KCAL/MOL
REMARK 922        TOTAL FREE ENERGY PREDICTED BY IDOCK:   -8.71 KCAL/MOL
REMARK 923 INTER-LIGAND FREE ENERGY PREDICTED BY IDOCK:   -6.20 KCAL/MOL
REMARK 924 INTRA-LIGAND FREE ENERGY PREDICTED BY IDOCK:   -2.51 KCAL/MOL
REMARK 927      BINDING AFFINITY PREDICTED BY RF-SCORE:    0.00 PKD
ROOT
HETATM    1  C   UNL     1     -11.609   9.482  71.912  1.00  0.00    -0.268 C  
HETATM    2  C   UNL     1     -12.564  10.345  71.059  1.00  0.00    -0.491 C  
HETATM    3  C   UNL     1     -12.888  11.617  71.873  1.00  0.00    -0.354 C  
HETATM    4  C   UNL     1     -13.863   9.534  70.859  1.00  0.00     0.094 C  
ENDROOT
BRANCH   2   5
HETATM    5  C   UNL     1     -11.969  10.742  69.701  1.00  0.00    -0.385 A  
HETATM    6  C   UNL     1     -12.093  12.031  69.165  1.00  0.00    -0.241 A  
HETATM    7  C   UNL     1     -11.558  12.357  67.910  1.00  0.00    -0.415 A  
HETATM    8  C   UNL     1     -10.890  11.390  67.156  1.00  0.00    -0.316 A  
HETATM    9  C   UNL     1     -11.282   9.784  68.931  1.00  0.00    -0.076 A  
HETATM   10  C   UNL     1     -10.751  10.102  67.680  1.00  0.00    -0.339 A  
BRANCH   8  11
HETATM   11  C   UNL     1     -10.356  11.765  65.816  1.00  0.00    -0.253 C  
HETATM   12  O   UNL     1     -10.083  12.940  65.579  1.00  0.00    -0.278 OA 
BRANCH  11  13
HETATM   13  C   UNL     1     -10.172  10.660  64.794  1.00  0.00    -0.401 C  
BRANCH  13  14
HETATM   14  C   UNL     1      -8.718  10.526  64.353  1.00  0.00    -0.187 C  
BRANCH  14  15
HETATM   15  C   UNL     1      -7.757  10.398  65.538  1.00  0.00    -0.147 C  
BRANCH  15  16
HETATM   16  N   UNL     1      -7.039   9.119  65.648  1.00  0.00    -0.081 NA 
HETATM   17  C   UNL     1      -5.895   9.106  66.574  1.00  0.00    -0.058 C  
HETATM   18  C   UNL     1      -6.253   9.049  68.065  1.00  0.00    -0.051 C  
HETATM   19  C   UNL     1      -7.281   7.961  68.398  1.00  0.00    -0.089 C  
HETATM   20  C   UNL     1      -8.464   8.092  67.436  1.00  0.00    -0.126 C  
HETATM   21  C   UNL     1      -7.968   8.026  65.985  1.00  0.00    -0.101 C  
BRANCH  19  22
HETATM   22  O   UNL     1      -6.837   6.614  68.235  1.00  0.00    -0.068 OA 
BRANCH  22  23
HETATM   23  C   UNL     1      -7.006   5.670  69.296  1.00  0.00    -0.063 C  
BRANCH  23  24
HETATM   24  C   UNL     1      -6.745   4.285  68.701  1.00  0.00    -0.046 A  
HETATM   25  C   UNL     1      -6.631   4.089  67.311  1.00  0.00    -0.046 A  
HETATM   26  C   UNL     1      -6.377   2.822  66.781  1.00  0.00    -0.031 A  
HETATM   27  C   UNL     1      -6.614   3.168  69.540  1.00  0.00    -0.033 A  
HETATM   28  C   UNL     1      -6.236   1.728  67.633  1.00  0.00    -0.024 A  
HETATM   29  C   UNL     1      -6.359   1.901  69.009  1.00  0.00    -0.025 A  
ENDBRANCH  23  24
BRANCH  23  30
HETATM   30  C   UNL     1      -8.365   5.767  69.975  1.00  0.00    -0.123 A  
HETATM   31  C   UNL     1     -10.863   6.070  71.233  1.00  0.00    -0.331 A  
HETATM   32  C   UNL     1      -9.690   6.270  71.956  1.00  0.00    -0.164 A  
HETATM   33  C   UNL     1      -9.556   5.521  69.275  1.00  0.00    -0.184 A  
HETATM   34  C   UNL     1     -10.797   5.681  69.896  1.00  0.00    -0.370 A  
HETATM   35  C   UNL     1      -8.448   6.118  71.333  1.00  0.00    -0.128 A  
ENDBRANCH  23  30
ENDBRANCH  22  23
ENDBRANCH  19  22
ENDBRANCH  15  16
ENDBRANCH  14  15
ENDBRANCH  13  14
ENDBRANCH  11  13
ENDBRANCH   8  11
ENDBRANCH   2   5
TORSDOF 10
ENDMDL
MODEL      183
REMARK 921   NORMALIZED FREE ENERGY PREDICTED BY IDOCK:   -3.63 KCAL/MOL
REMARK 922        TOTAL FREE ENERGY PREDICTED BY IDOCK:   -8.68 KCAL/MOL
REMARK 923 INTER-LIGAND FREE ENERGY PREDICTED BY IDOCK:   -7.44 KCAL/MOL
REMARK 924 INTRA-LIGAND FREE ENERGY PREDICTED BY IDOCK:   -1.23 KCAL/MOL
REMARK 927      BINDING AFFINITY PREDICTED BY RF-SCORE:    0.00 PKD
ROOT
HETATM    1  C   UNL     1     -10.692   7.429  73.112  1.00  0.00    -0.436 C  
HETATM    2  C   UNL     1     -11.041   7.575  71.615  1.00  0.00    -0.270 C  
HETATM    3  C   UNL     1     -12.214   8.576  71.510  1.00  0.00    -0.355 C  
HETATM    4  C   UNL     1     -11.514   6.194  71.114  1.00  0.00    -0.314 C  
ENDROOT
BRANCH   2   5
HETATM    5  C   UNL     1      -9.863   8.074  70.767  1.00  0.00    -0.197 A  
HETATM    6  C   UNL     1      -8.564   7.564  70.898  1.00  0.00    -0.130 A  
HETATM    7  C   UNL     1      -7.502   8.057  70.125  1.00  0.00    -0.073 A  
HETATM    8  C   UNL     1      -7.719   9.082  69.203  1.00  0.00    -0.092 A  
HETATM    9  C   UNL     1     -10.064   9.099  69.823  1.00  0.00    -0.211 A  
HETATM   10  C   UNL     1      -9.010   9.596  69.053  1.00  0.00    -0.148 A  
BRANCH   8  11
HETATM   11  C   UNL     1      -6.563   9.598  68.415  1.00  0.00    -0.053 C  
HETATM   12  O   UNL     1      -5.417   9.360  68.793  1.00  0.00    -0.037 OA 
BRANCH  11  13
HETATM   13  C   UNL     1      -6.862  10.404  67.167  1.00  0.00    -0.083 C  
BRANCH  13  14
HETATM   14  C   UNL     1      -5.824  11.496  66.929  1.00  0.00    -0.132 C  
BRANCH  14  15
HETATM   15  C   UNL     1      -6.253  12.846  67.509  1.00  0.00    -0.152 C  
BRANCH  15  16
HETATM   16  N   UNL     1      -7.684  12.988  67.818  1.00  0.00    -0.136 NA 
HETATM   17  C   UNL     1      -8.006  13.330  69.213  1.00  0.00     0.554 C  
HETATM   18  C   UNL     1      -7.763  14.792  69.608  1.00  0.00    -0.011 C  
HETATM   19  C   UNL     1      -8.361  15.794  68.612  1.00  0.00    -0.183 C  
HETATM   20  C   UNL     1      -7.919  15.405  67.199  1.00  0.00    -0.251 C  
HETATM   21  C   UNL     1      -8.323  13.953  66.906  1.00  0.00    -0.004 C  
BRANCH  19  22
HETATM   22  O   UNL     1      -9.787  15.827  68.543  1.00  0.00    -0.202 OA 
BRANCH  22  23
HETATM   23  C   UNL     1     -10.553  14.706  68.989  1.00  0.00    -0.247 C  
BRANCH  23  24
HETATM   24  C   UNL     1     -11.227  14.110  67.752  1.00  0.00    -0.307 A  
HETATM   25  C   UNL     1     -11.803  14.928  66.760  1.00  0.00    -0.187 A  
HETATM   26  C   UNL     1     -12.401  14.373  65.627  1.00  0.00    -0.347 A  
HETATM   27  C   UNL     1     -11.288  12.719  67.579  1.00  0.00    -0.361 A  
HETATM   28  C   UNL     1     -12.438  12.989  65.468  1.00  0.00    -0.496 A  
HETATM   29  C   UNL     1     -11.887  12.164  66.445  1.00  0.00    -0.321 A  
ENDBRANCH  23  24
BRANCH  23  30
HETATM   30  C   UNL     1     -11.550  15.057  70.084  1.00  0.00    -0.326 A  
HETATM   31  C   UNL     1     -13.351  15.610  72.174  1.00  0.00    -0.548 A  
HETATM   32  C   UNL     1     -13.575  14.527  71.328  1.00  0.00    -0.423 A  
HETATM   33  C   UNL     1     -11.365  16.173  70.915  1.00  0.00    -0.394 A  
HETATM   34  C   UNL     1     -12.253  16.442  71.960  1.00  0.00    -0.266 A  
HETATM   35  C   UNL     1     -12.683  14.253  70.289  1.00  0.00    -0.305 A  
ENDBRANCH  23  30
ENDBRANCH  22  23
ENDBRANCH  19  22
ENDBRANCH  15  16
ENDBRANCH  14  15
ENDBRANCH  13  14
ENDBRANCH  11  13
ENDBRANCH   8  11
ENDBRANCH   2   5
TORSDOF 10
ENDMDL
MODEL      184
REMARK 921   NORMALIZED FREE ENERGY PREDICTED BY IDOCK:   -3.59 KCAL/MOL
REMARK 922        TOTAL FREE ENERGY PREDICTED BY IDOCK:   -8.62 KCAL/MOL
REMARK 923 INTER-LIGAND FREE ENERGY PREDICTED BY IDOCK:   -6.74 KCAL/MOL
REMARK 924 INTRA-LIGAND FREE ENERGY PREDICTED BY IDOCK:   -1.88 KCAL/MOL
REMARK 927      BINDING AFFINITY PREDICTED BY RF-SCORE:    0.00 PKD
ROOT
HETATM    1  C   UNL     1      -6.682   7.703  68.247  1.00  0.00    -0.062 C  
HETATM    2  C   UNL     1      -6.528   6.423  69.097  1.00  0.00    -0.043 C  
HETATM    3  C   UNL     1      -5.241   6.578  69.937  1.00  0.00    -0.014 C  
HETATM    4  C   UNL     1      -6.351   5.240  68.121  1.00  0.00    -0.036 C  
ENDROOT
BRANCH   2   5
HETATM    5  C   UNL     1      -7.721   6.170  70.028  1.00  0.00    -0.097 A  
HETATM    6  C   UNL     1      -8.708   5.212  69.755  1.00  0.00    -0.115 A  
HETATM    7  C   UNL     1      -9.800   5.021  70.614  1.00  0.00    -0.282 A  
HETATM    8  C   UNL     1      -9.933   5.794  71.768  1.00  0.00    -0.209 A  
HETATM    9  C   UNL     1      -7.867   6.932  71.203  1.00  0.00    -0.100 A  
HETATM   10  C   UNL     1      -8.954   6.748  72.060  1.00  0.00    -0.138 A  
BRANCH   8  11
HETATM   11  C   UNL     1     -11.120   5.581  72.646  1.00  0.00    -0.282 C  
HETATM   12  O   UNL     1     -11.056   4.765  73.563  1.00  0.00    -0.300 OA 
BRANCH  11  13
HETATM   13  C   UNL     1     -12.367   6.394  72.359  1.00  0.00    -0.061 C  
BRANCH  13  14
HETATM   14  C   UNL     1     -12.124   7.454  71.288  1.00  0.00    -0.359 C  
BRANCH  14  15
HETATM   15  C   UNL     1     -12.280   8.877  71.829  1.00  0.00    -0.359 C  
BRANCH  15  16
HETATM   16  N   UNL     1     -11.204   9.819  71.482  1.00  0.00    -0.319 NA 
HETATM   17  C   UNL     1     -10.223   9.334  70.498  1.00  0.00    -0.251 C  
HETATM   18  C   UNL     1     -10.700   9.321  69.040  1.00  0.00    -0.189 C  
HETATM   19  C   UNL     1     -11.352  10.641  68.607  1.00  0.00    -0.281 C  
HETATM   20  C   UNL     1     -12.405  11.032  69.647  1.00  0.00    -0.303 C  
HETATM   21  C   UNL     1     -11.762  11.109  71.039  1.00  0.00     0.147 C  
BRANCH  19  22
HETATM   22  O   UNL     1     -10.484  11.771  68.536  1.00  0.00    -0.203 OA 
BRANCH  22  23
HETATM   23  C   UNL     1      -9.460  11.828  67.540  1.00  0.00    -0.174 C  
BRANCH  23  24
HETATM   24  C   UNL     1      -8.554  13.006  67.903  1.00  0.00    -0.189 A  
HETATM   25  C   UNL     1      -8.481  14.156  67.092  1.00  0.00    -0.214 A  
HETATM   26  C   UNL     1      -7.662  15.232  67.442  1.00  0.00    -0.225 A  
HETATM   27  C   UNL     1      -7.767  12.963  69.063  1.00  0.00     0.200 A  
HETATM   28  C   UNL     1      -6.900  15.175  68.607  1.00  0.00    -0.105 A  
HETATM   29  C   UNL     1      -6.949  14.040  69.413  1.00  0.00    -0.050 A  
ENDBRANCH  23  24
BRANCH  23  30
HETATM   30  C   UNL     1     -10.006  11.926  66.123  1.00  0.00    -0.254 A  
HETATM   31  C   UNL     1     -11.058  11.993  63.514  1.00  0.00    -0.519 A  
HETATM   32  C   UNL     1      -9.916  11.244  63.786  1.00  0.00    -0.388 A  
HETATM   33  C   UNL     1     -11.127  12.715  65.820  1.00  0.00    -0.332 A  
HETATM   34  C   UNL     1     -11.655  12.740  64.527  1.00  0.00    -0.397 A  
HETATM   35  C   UNL     1      -9.391  11.212  65.081  1.00  0.00    -0.237 A  
ENDBRANCH  23  30
ENDBRANCH  22  23
ENDBRANCH  19  22
ENDBRANCH  15  16
ENDBRANCH  14  15
ENDBRANCH  13  14
ENDBRANCH  11  13
ENDBRANCH   8  11
ENDBRANCH   2   5
TORSDOF 10
ENDMDL
MODEL      185
REMARK 921   NORMALIZED FREE ENERGY PREDICTED BY IDOCK:   -3.58 KCAL/MOL
REMARK 922        TOTAL FREE ENERGY PREDICTED BY IDOCK:   -8.60 KCAL/MOL
REMARK 923 INTER-LIGAND FREE ENERGY PREDICTED BY IDOCK:   -6.70 KCAL/MOL
REMARK 924 INTRA-LIGAND FREE ENERGY PREDICTED BY IDOCK:   -1.90 KCAL/MOL
REMARK 927      BINDING AFFINITY PREDICTED BY RF-SCORE:    0.00 PKD
ROOT
HETATM    1  C   UNL     1     -10.099  19.985  68.255  1.00  0.00    -0.531 C  
HETATM    2  C   UNL     1      -9.551  19.290  66.990  1.00  0.00    -0.394 C  
HETATM    3  C   UNL     1      -8.124  19.830  66.747  1.00  0.00    -0.333 C  
HETATM    4  C   UNL     1     -10.453  19.707  65.808  1.00  0.00    -0.540 C  
ENDROOT
BRANCH   2   5
HETATM    5  C   UNL     1      -9.507  17.761  67.113  1.00  0.00    -0.265 A  
HETATM    6  C   UNL     1      -9.312  17.102  68.335  1.00  0.00    -0.273 A  
HETATM    7  C   UNL     1      -9.254  15.703  68.412  1.00  0.00    -0.191 A  
HETATM    8  C   UNL     1      -9.382  14.928  67.258  1.00  0.00    -0.210 A  
HETATM    9  C   UNL     1      -9.647  16.961  65.962  1.00  0.00    -0.238 A  
HETATM   10  C   UNL     1      -9.586  15.569  66.032  1.00  0.00    -0.380 A  
BRANCH   8  11
HETATM   11  C   UNL     1      -9.291  13.444  67.374  1.00  0.00    -0.221 C  
HETATM   12  O   UNL     1     -10.319  12.781  67.489  1.00  0.00    -0.216 OA 
BRANCH  11  13
HETATM   13  C   UNL     1      -7.911  12.817  67.342  1.00  0.00    -0.179 C  
BRANCH  13  14
HETATM   14  C   UNL     1      -7.583  12.091  68.643  1.00  0.00    -0.112 C  
BRANCH  14  15
HETATM   15  C   UNL     1      -7.131  10.648  68.408  1.00  0.00    -0.078 C  
BRANCH  15  16
HETATM   16  N   UNL     1      -7.990   9.602  68.984  1.00  0.00    -0.084 NA 
HETATM   17  C   UNL     1      -9.392   9.607  68.534  1.00  0.00    -0.137 C  
HETATM   18  C   UNL     1      -9.635   9.050  67.126  1.00  0.00    -0.218 C  
HETATM   19  C   UNL     1      -8.953   7.697  66.886  1.00  0.00    -0.138 C  
HETATM   20  C   UNL     1      -7.487   7.803  67.314  1.00  0.00    -0.093 C  
HETATM   21  C   UNL     1      -7.401   8.267  68.774  1.00  0.00    -0.088 C  
BRANCH  19  22
HETATM   22  O   UNL     1      -9.465   6.598  67.640  1.00  0.00    -0.125 OA 
BRANCH  22  23
HETATM   23  C   UNL     1      -8.779   5.344  67.637  1.00  0.00    -0.106 C  
BRANCH  23  24
HETATM   24  C   UNL     1      -9.261   4.579  66.402  1.00  0.00    -0.137 A  
HETATM   25  C   UNL     1     -10.530   4.814  65.839  1.00  0.00    -0.313 A  
HETATM   26  C   UNL     1     -10.952   4.121  64.702  1.00  0.00    -0.058 A  
HETATM   27  C   UNL     1      -8.437   3.616  65.801  1.00  0.00    -0.111 A  
HETATM   28  C   UNL     1     -10.113   3.179  64.111  1.00  0.00    -0.155 A  
HETATM   29  C   UNL     1      -8.860   2.924  64.663  1.00  0.00    -0.112 A  
ENDBRANCH  23  24
BRANCH  23  30
HETATM   30  C   UNL     1      -8.968   4.552  68.924  1.00  0.00    -0.151 A  
HETATM   31  C   UNL     1      -9.229   3.159  71.354  1.00  0.00    -0.189 A  
HETATM   32  C   UNL     1      -8.119   2.942  70.542  1.00  0.00    -0.059 A  
HETATM   33  C   UNL     1     -10.104   4.722  69.730  1.00  0.00    -0.289 A  
HETATM   34  C   UNL     1     -10.229   4.038  70.942  1.00  0.00     0.086 A  
HETATM   35  C   UNL     1      -7.989   3.632  69.333  1.00  0.00    -0.060 A  
ENDBRANCH  23  30
ENDBRANCH  22  23
ENDBRANCH  19  22
ENDBRANCH  15  16
ENDBRANCH  14  15
ENDBRANCH  13  14
ENDBRANCH  11  13
ENDBRANCH   8  11
ENDBRANCH   2   5
TORSDOF 10
ENDMDL
MODEL      186
REMARK 921   NORMALIZED FREE ENERGY PREDICTED BY IDOCK:   -3.56 KCAL/MOL
REMARK 922        TOTAL FREE ENERGY PREDICTED BY IDOCK:   -8.58 KCAL/MOL
REMARK 923 INTER-LIGAND FREE ENERGY PREDICTED BY IDOCK:   -6.72 KCAL/MOL
REMARK 924 INTRA-LIGAND FREE ENERGY PREDICTED BY IDOCK:   -1.86 KCAL/MOL
REMARK 927      BINDING AFFINITY PREDICTED BY RF-SCORE:    0.00 PKD
ROOT
HETATM    1  C   UNL     1     -10.313   6.916  69.610  1.00  0.00    -0.224 C  
HETATM    2  C   UNL     1      -9.075   7.309  70.446  1.00  0.00    -0.155 C  
HETATM    3  C   UNL     1      -8.225   6.034  70.641  1.00  0.00    -0.120 C  
HETATM    4  C   UNL     1      -9.582   7.790  71.822  1.00  0.00    -0.204 C  
ENDROOT
BRANCH   2   5
HETATM    5  C   UNL     1      -8.222   8.399  69.782  1.00  0.00    -0.119 A  
HETATM    6  C   UNL     1      -7.160   8.109  68.914  1.00  0.00    -0.066 A  
HETATM    7  C   UNL     1      -6.383   9.127  68.342  1.00  0.00    -0.054 A  
HETATM    8  C   UNL     1      -6.649  10.465  68.634  1.00  0.00    -0.052 A  
HETATM    9  C   UNL     1      -8.482   9.756  70.055  1.00  0.00    -0.229 A  
HETATM   10  C   UNL     1      -7.710  10.772  69.491  1.00  0.00    -0.074 A  
BRANCH   8  11
HETATM   11  C   UNL     1      -5.787  11.520  68.027  1.00  0.00    -0.043 C  
HETATM   12  O   UNL     1      -5.172  11.278  66.990  1.00  0.00    -0.052 OA 
BRANCH  11  13
HETATM   13  C   UNL     1      -5.711  12.861  68.730  1.00  0.00    -0.068 C  
BRANCH  13  14
HETATM   14  C   UNL     1      -5.355  13.991  67.768  1.00  0.00    -0.016 C  
BRANCH  14  15
HETATM   15  C   UNL     1      -5.656  15.373  68.354  1.00  0.00    -0.106 C  
BRANCH  15  16
HETATM   16  N   UNL     1      -6.953  15.960  67.984  1.00  0.00    -0.122 NA 
HETATM   17  C   UNL     1      -7.733  15.210  66.986  1.00  0.00    -0.123 C  
HETATM   18  C   UNL     1      -8.437  13.951  67.509  1.00  0.00    -0.200 C  
HETATM   19  C   UNL     1      -9.228  14.194  68.801  1.00  0.00    -0.080 C  
HETATM   20  C   UNL     1      -8.321  14.913  69.804  1.00  0.00     0.165 C  
HETATM   21  C   UNL     1      -7.775  16.206  69.182  1.00  0.00    -0.230 C  
BRANCH  19  22
HETATM   22  O   UNL     1     -10.370  15.042  68.682  1.00  0.00    -0.224 OA 
BRANCH  22  23
HETATM   23  C   UNL     1     -11.614  14.510  68.220  1.00  0.00    -0.329 C  
BRANCH  23  24
HETATM   24  C   UNL     1     -11.747  13.110  68.823  1.00  0.00    -0.363 A  
HETATM   25  C   UNL     1     -12.224  12.915  70.135  1.00  0.00    -0.336 A  
HETATM   26  C   UNL     1     -12.357  11.631  70.669  1.00  0.00    -0.437 A  
HETATM   27  C   UNL     1     -11.392  11.979  68.073  1.00  0.00    -0.358 A  
HETATM   28  C   UNL     1     -12.012  10.521  69.901  1.00  0.00    -0.339 A  
HETATM   29  C   UNL     1     -11.526  10.696  68.608  1.00  0.00    -0.332 A  
ENDBRANCH  23  24
BRANCH  23  30
HETATM   30  C   UNL     1     -11.739  14.506  66.703  1.00  0.00    -0.384 A  
HETATM   31  C   UNL     1     -11.850  14.466  63.892  1.00  0.00    -0.086 A  
HETATM   32  C   UNL     1     -11.188  15.500  64.549  1.00  0.00    -0.327 A  
HETATM   33  C   UNL     1     -12.444  13.498  66.027  1.00  0.00    -0.456 A  
HETATM   34  C   UNL     1     -12.490  13.472  64.631  1.00  0.00    -0.372 A  
HETATM   35  C   UNL     1     -11.134  15.522  65.945  1.00  0.00    -0.205 A  
ENDBRANCH  23  30
ENDBRANCH  22  23
ENDBRANCH  19  22
ENDBRANCH  15  16
ENDBRANCH  14  15
ENDBRANCH  13  14
ENDBRANCH  11  13
ENDBRANCH   8  11
ENDBRANCH   2   5
TORSDOF 10
ENDMDL
MODEL      187
REMARK 921   NORMALIZED FREE ENERGY PREDICTED BY IDOCK:   -3.56 KCAL/MOL
REMARK 922        TOTAL FREE ENERGY PREDICTED BY IDOCK:   -8.57 KCAL/MOL
REMARK 923 INTER-LIGAND FREE ENERGY PREDICTED BY IDOCK:   -6.42 KCAL/MOL
REMARK 924 INTRA-LIGAND FREE ENERGY PREDICTED BY IDOCK:   -2.15 KCAL/MOL
REMARK 927      BINDING AFFINITY PREDICTED BY RF-SCORE:    0.00 PKD
ROOT
HETATM    1  C   UNL     1      -5.546   5.690  71.873  1.00  0.00    -0.021 C  
HETATM    2  C   UNL     1      -6.912   5.757  71.157  1.00  0.00    -0.067 C  
HETATM    3  C   UNL     1      -7.546   7.124  71.498  1.00  0.00    -0.088 C  
HETATM    4  C   UNL     1      -7.795   4.634  71.743  1.00  0.00    -0.098 C  
ENDROOT
BRANCH   2   5
HETATM    5  C   UNL     1      -6.802   5.607  69.634  1.00  0.00    -0.061 A  
HETATM    6  C   UNL     1      -6.425   4.407  69.014  1.00  0.00    -0.040 A  
HETATM    7  C   UNL     1      -6.310   4.308  67.619  1.00  0.00    -0.037 A  
HETATM    8  C   UNL     1      -6.565   5.417  66.810  1.00  0.00    -0.056 A  
HETATM    9  C   UNL     1      -7.067   6.711  68.800  1.00  0.00    -0.082 A  
HETATM   10  C   UNL     1      -6.951   6.618  67.412  1.00  0.00    -0.078 A  
BRANCH   8  11
HETATM   11  C   UNL     1      -6.410   5.282  65.334  1.00  0.00    -0.035 C  
HETATM   12  O   UNL     1      -5.496   4.596  64.880  1.00  0.00    -0.013 OA 
BRANCH  11  13
HETATM   13  C   UNL     1      -7.404   6.009  64.449  1.00  0.00    -0.068 C  
BRANCH  13  14
HETATM   14  C   UNL     1      -6.753   7.154  63.679  1.00  0.00    -0.044 C  
BRANCH  14  15
HETATM   15  C   UNL     1      -7.753   8.254  63.312  1.00  0.00    -0.142 C  
BRANCH  15  16
HETATM   16  N   UNL     1      -7.613   9.520  64.047  1.00  0.00    -0.117 NA 
HETATM   17  C   UNL     1      -8.422  10.643  63.544  1.00  0.00    -0.089 C  
HETATM   18  C   UNL     1      -9.914  10.590  63.892  1.00  0.00    -0.348 C  
HETATM   19  C   UNL     1     -10.179  10.304  65.376  1.00  0.00    -0.242 C  
HETATM   20  C   UNL     1      -9.356   9.083  65.795  1.00  0.00    -0.302 C  
HETATM   21  C   UNL     1      -7.871   9.322  65.484  1.00  0.00    -0.099 C  
BRANCH  19  22
HETATM   22  O   UNL     1      -9.784  11.329  66.288  1.00  0.00    -0.204 OA 
BRANCH  22  23
HETATM   23  C   UNL     1     -10.691  12.385  66.616  1.00  0.00    -0.235 C  
BRANCH  23  24
HETATM   24  C   UNL     1      -9.916  13.695  66.470  1.00  0.00    -0.288 A  
HETATM   25  C   UNL     1     -10.426  14.774  65.721  1.00  0.00    -0.348 A  
HETATM   26  C   UNL     1      -9.716  15.972  65.609  1.00  0.00    -0.273 A  
HETATM   27  C   UNL     1      -8.665  13.850  67.085  1.00  0.00    -0.233 A  
HETATM   28  C   UNL     1      -8.482  16.109  66.240  1.00  0.00    -0.357 A  
HETATM   29  C   UNL     1      -7.956  15.048  66.973  1.00  0.00    -0.197 A  
ENDBRANCH  23  24
BRANCH  23  30
HETATM   30  C   UNL     1     -11.321  12.230  67.993  1.00  0.00    -0.348 A  
HETATM   31  C   UNL     1     -12.373  11.917  70.584  1.00  0.00    -0.405 A  
HETATM   32  C   UNL     1     -11.972  10.801  69.854  1.00  0.00    -0.418 A  
HETATM   33  C   UNL     1     -11.776  13.340  68.722  1.00  0.00    -0.366 A  
HETATM   34  C   UNL     1     -12.289  13.186  70.012  1.00  0.00    -0.241 A  
HETATM   35  C   UNL     1     -11.452  10.954  68.567  1.00  0.00    -0.380 A  
ENDBRANCH  23  30
ENDBRANCH  22  23
ENDBRANCH  19  22
ENDBRANCH  15  16
ENDBRANCH  14  15
ENDBRANCH  13  14
ENDBRANCH  11  13
ENDBRANCH   8  11
ENDBRANCH   2   5
TORSDOF 10
ENDMDL
MODEL      188
REMARK 921   NORMALIZED FREE ENERGY PREDICTED BY IDOCK:   -3.52 KCAL/MOL
REMARK 922        TOTAL FREE ENERGY PREDICTED BY IDOCK:   -8.50 KCAL/MOL
REMARK 923 INTER-LIGAND FREE ENERGY PREDICTED BY IDOCK:   -7.51 KCAL/MOL
REMARK 924 INTRA-LIGAND FREE ENERGY PREDICTED BY IDOCK:   -0.99 KCAL/MOL
REMARK 927      BINDING AFFINITY PREDICTED BY RF-SCORE:    0.00 PKD
ROOT
HETATM    1  C   UNL     1     -12.244  12.330  63.618  1.00  0.00    -0.665 C  
HETATM    2  C   UNL     1     -11.194  12.469  64.741  1.00  0.00    -0.344 C  
HETATM    3  C   UNL     1     -11.960  12.594  66.077  1.00  0.00    -0.478 C  
HETATM    4  C   UNL     1     -10.416  13.778  64.485  1.00  0.00    -0.378 C  
ENDROOT
BRANCH   2   5
HETATM    5  C   UNL     1     -10.227  11.280  64.812  1.00  0.00    -0.347 A  
HETATM    6  C   UNL     1     -10.201  10.386  65.892  1.00  0.00    -0.302 A  
HETATM    7  C   UNL     1      -9.288   9.321  65.939  1.00  0.00    -0.297 A  
HETATM    8  C   UNL     1      -8.371   9.133  64.904  1.00  0.00    -0.169 A  
HETATM    9  C   UNL     1      -9.302  11.066  63.772  1.00  0.00    -0.247 A  
HETATM   10  C   UNL     1      -8.389  10.011  63.816  1.00  0.00    -0.170 A  
BRANCH   8  11
HETATM   11  C   UNL     1      -7.399   8.006  65.000  1.00  0.00    -0.079 C  
HETATM   12  O   UNL     1      -7.133   7.349  63.995  1.00  0.00    -0.063 OA 
BRANCH  11  13
HETATM   13  C   UNL     1      -6.778   7.721  66.353  1.00  0.00    -0.054 C  
BRANCH  13  14
HETATM   14  C   UNL     1      -6.103   8.955  66.943  1.00  0.00    -0.058 C  
BRANCH  14  15
HETATM   15  C   UNL     1      -6.692   9.351  68.299  1.00  0.00    -0.059 C  
BRANCH  15  16
HETATM   16  N   UNL     1      -6.767   8.280  69.305  1.00  0.00    -0.042 NA 
HETATM   17  C   UNL     1      -6.881   8.724  70.704  1.00  0.00    -0.050 C  
HETATM   18  C   UNL     1      -8.266   9.233  71.124  1.00  0.00    -0.051 C  
HETATM   19  C   UNL     1      -9.405   8.288  70.719  1.00  0.00    -0.161 C  
HETATM   20  C   UNL     1      -9.249   7.937  69.238  1.00  0.00    -0.148 C  
HETATM   21  C   UNL     1      -7.856   7.340  68.987  1.00  0.00    -0.118 C  
BRANCH  19  22
HETATM   22  O   UNL     1      -9.433   7.026  71.384  1.00  0.00    -0.159 OA 
BRANCH  22  23
HETATM   23  C   UNL     1     -10.616   6.223  71.349  1.00  0.00    -0.237 C  
BRANCH  23  24
HETATM   24  C   UNL     1     -11.781   7.134  71.740  1.00  0.00    -0.324 A  
HETATM   25  C   UNL     1     -11.618   8.182  72.667  1.00  0.00    -0.441 A  
HETATM   26  C   UNL     1     -12.686   9.017  73.004  1.00  0.00     0.486 A  
HETATM   27  C   UNL     1     -13.051   6.940  71.176  1.00  0.00    -0.202 A  
HETATM   28  C   UNL     1     -13.936   8.816  72.421  1.00  0.00    -0.482 A  
HETATM   29  C   UNL     1     -14.118   7.776  71.513  1.00  0.00    -0.509 A  
ENDBRANCH  23  24
BRANCH  23  30
HETATM   30  C   UNL     1     -10.525   4.982  72.227  1.00  0.00    -0.275 A  
HETATM   31  C   UNL     1     -10.238   2.714  73.867  1.00  0.00    -0.190 A  
HETATM   32  C   UNL     1      -9.701   2.718  72.582  1.00  0.00    -0.190 A  
HETATM   33  C   UNL     1     -11.104   4.943  73.505  1.00  0.00    -0.405 A  
HETATM   34  C   UNL     1     -10.953   3.821  74.324  1.00  0.00    -0.051 A  
HETATM   35  C   UNL     1      -9.844   3.843  71.766  1.00  0.00    -0.249 A  
ENDBRANCH  23  30
ENDBRANCH  22  23
ENDBRANCH  19  22
ENDBRANCH  15  16
ENDBRANCH  14  15
ENDBRANCH  13  14
ENDBRANCH  11  13
ENDBRANCH   8  11
ENDBRANCH   2   5
TORSDOF 10
ENDMDL
MODEL      189
REMARK 921   NORMALIZED FREE ENERGY PREDICTED BY IDOCK:   -3.51 KCAL/MOL
REMARK 922        TOTAL FREE ENERGY PREDICTED BY IDOCK:   -8.48 KCAL/MOL
REMARK 923 INTER-LIGAND FREE ENERGY PREDICTED BY IDOCK:   -7.53 KCAL/MOL
REMARK 924 INTRA-LIGAND FREE ENERGY PREDICTED BY IDOCK:   -0.96 KCAL/MOL
REMARK 927      BINDING AFFINITY PREDICTED BY RF-SCORE:    0.00 PKD
ROOT
HETATM    1  C   UNL     1     -11.936   6.650  71.701  1.00  0.00    -0.395 C  
HETATM    2  C   UNL     1     -10.694   5.995  71.058  1.00  0.00    -0.325 C  
HETATM    3  C   UNL     1     -10.989   5.826  69.551  1.00  0.00    -0.374 C  
HETATM    4  C   UNL     1     -10.527   4.598  71.695  1.00  0.00    -0.123 C  
ENDROOT
BRANCH   2   5
HETATM    5  C   UNL     1      -9.414   6.820  71.242  1.00  0.00    -0.166 A  
HETATM    6  C   UNL     1      -8.143   6.337  70.898  1.00  0.00    -0.124 A  
HETATM    7  C   UNL     1      -6.988   7.107  71.100  1.00  0.00    -0.061 A  
HETATM    8  C   UNL     1      -7.080   8.382  71.661  1.00  0.00    -0.093 A  
HETATM    9  C   UNL     1      -9.487   8.113  71.795  1.00  0.00    -0.249 A  
HETATM   10  C   UNL     1      -8.340   8.882  72.002  1.00  0.00     0.035 A  
BRANCH   8  11
HETATM   11  C   UNL     1      -5.829   9.162  71.884  1.00  0.00    -0.069 C  
HETATM   12  O   UNL     1      -5.130   8.919  72.865  1.00  0.00    -0.048 OA 
BRANCH  11  13
HETATM   13  C   UNL     1      -5.475  10.234  70.872  1.00  0.00    -0.081 C  
BRANCH  13  14
HETATM   14  C   UNL     1      -5.387   9.676  69.455  1.00  0.00    -0.034 C  
BRANCH  14  15
HETATM   15  C   UNL     1      -6.278  10.436  68.471  1.00  0.00    -0.047 C  
BRANCH  15  16
HETATM   16  N   UNL     1      -7.274  11.338  69.069  1.00  0.00    -0.112 NA 
HETATM   17  C   UNL     1      -7.209  12.742  68.631  1.00  0.00    -0.104 C  
HETATM   18  C   UNL     1      -7.774  13.024  67.233  1.00  0.00    -0.112 C  
HETATM   19  C   UNL     1      -9.161  12.409  67.007  1.00  0.00    -0.208 C  
HETATM   20  C   UNL     1      -9.119  10.936  67.420  1.00  0.00    -0.144 C  
HETATM   21  C   UNL     1      -8.638  10.815  68.873  1.00  0.00    -0.153 C  
BRANCH  19  22
HETATM   22  O   UNL     1     -10.224  12.966  67.781  1.00  0.00    -0.215 OA 
BRANCH  22  23
HETATM   23  C   UNL     1     -11.163  13.857  67.174  1.00  0.00    -0.313 C  
BRANCH  23  24
HETATM   24  C   UNL     1     -11.456  13.307  65.777  1.00  0.00    -0.349 A  
HETATM   25  C   UNL     1     -10.448  13.209  64.798  1.00  0.00    -0.390 A  
HETATM   26  C   UNL     1     -10.723  12.690  63.530  1.00  0.00    -0.337 A  
HETATM   27  C   UNL     1     -12.750  12.886  65.439  1.00  0.00    -0.313 A  
HETATM   28  C   UNL     1     -12.013  12.263  63.220  1.00  0.00    -0.499 A  
HETATM   29  C   UNL     1     -13.025  12.366  64.172  1.00  0.00    -0.267 A  
ENDBRANCH  23  24
BRANCH  23  30
HETATM   30  C   UNL     1     -10.687  15.302  67.144  1.00  0.00    -0.316 A  
HETATM   31  C   UNL     1      -9.715  17.943  67.167  1.00  0.00    -0.289 A  
HETATM   32  C   UNL     1     -10.390  17.439  68.276  1.00  0.00    -0.374 A  
HETATM   33  C   UNL     1     -10.048  15.842  66.017  1.00  0.00    -0.359 A  
HETATM   34  C   UNL     1      -9.556  17.150  66.032  1.00  0.00    -0.190 A  
HETATM   35  C   UNL     1     -10.875  16.129  68.265  1.00  0.00    -0.326 A  
ENDBRANCH  23  30
ENDBRANCH  22  23
ENDBRANCH  19  22
ENDBRANCH  15  16
ENDBRANCH  14  15
ENDBRANCH  13  14
ENDBRANCH  11  13
ENDBRANCH   8  11
ENDBRANCH   2   5
TORSDOF 10
ENDMDL
MODEL      190
REMARK 921   NORMALIZED FREE ENERGY PREDICTED BY IDOCK:   -3.49 KCAL/MOL
REMARK 922        TOTAL FREE ENERGY PREDICTED BY IDOCK:   -8.46 KCAL/MOL
REMARK 923 INTER-LIGAND FREE ENERGY PREDICTED BY IDOCK:   -7.56 KCAL/MOL
REMARK 924 INTRA-LIGAND FREE ENERGY PREDICTED BY IDOCK:   -0.90 KCAL/MOL
REMARK 927      BINDING AFFINITY PREDICTED BY RF-SCORE:    0.00 PKD
ROOT
HETATM    1  C   UNL     1     -10.938  16.993  65.196  1.00  0.00    -0.016 C  
HETATM    2  C   UNL     1     -10.208  16.683  66.521  1.00  0.00    -0.314 C  
HETATM    3  C   UNL     1     -10.492  17.852  67.490  1.00  0.00    -0.398 C  
HETATM    4  C   UNL     1      -8.695  16.641  66.215  1.00  0.00    -0.359 C  
ENDROOT
BRANCH   2   5
HETATM    5  C   UNL     1     -10.657  15.363  67.163  1.00  0.00    -0.305 A  
HETATM    6  C   UNL     1     -10.512  14.122  66.527  1.00  0.00    -0.280 A  
HETATM    7  C   UNL     1     -10.954  12.935  67.130  1.00  0.00    -0.290 A  
HETATM    8  C   UNL     1     -11.562  12.966  68.386  1.00  0.00    -0.369 A  
HETATM    9  C   UNL     1     -11.262  15.373  68.434  1.00  0.00    -0.318 A  
HETATM   10  C   UNL     1     -11.707  14.195  69.037  1.00  0.00    -0.361 A  
BRANCH   8  11
HETATM   11  C   UNL     1     -12.043  11.688  68.985  1.00  0.00    -0.225 C  
HETATM   12  O   UNL     1     -11.843  10.628  68.394  1.00  0.00    -0.439 OA 
BRANCH  11  13
HETATM   13  C   UNL     1     -12.765  11.759  70.316  1.00  0.00    -0.005 C  
BRANCH  13  14
HETATM   14  C   UNL     1     -12.100  10.885  71.375  1.00  0.00    -0.241 C  
BRANCH  14  15
HETATM   15  C   UNL     1     -12.714   9.485  71.446  1.00  0.00    -0.358 C  
BRANCH  15  16
HETATM   16  N   UNL     1     -11.858   8.434  72.018  1.00  0.00    -0.327 NA 
HETATM   17  C   UNL     1     -12.289   7.050  71.767  1.00  0.00    -0.354 C  
HETATM   18  C   UNL     1     -12.017   6.520  70.353  1.00  0.00    -0.295 C  
HETATM   19  C   UNL     1     -10.580   6.775  69.879  1.00  0.00    -0.222 C  
HETATM   20  C   UNL     1     -10.241   8.250  70.112  1.00  0.00    -0.199 C  
HETATM   21  C   UNL     1     -10.459   8.609  71.588  1.00  0.00    -0.296 C  
BRANCH  19  22
HETATM   22  O   UNL     1      -9.558   6.061  70.574  1.00  0.00    -0.165 OA 
BRANCH  22  23
HETATM   23  C   UNL     1      -8.440   5.531  69.858  1.00  0.00    -0.116 C  
BRANCH  23  24
HETATM   24  C   UNL     1      -7.447   6.681  69.674  1.00  0.00    -0.096 A  
HETATM   25  C   UNL     1      -7.138   7.190  68.398  1.00  0.00    -0.085 A  
HETATM   26  C   UNL     1      -6.243   8.251  68.243  1.00  0.00    -0.050 A  
HETATM   27  C   UNL     1      -6.817   7.256  70.787  1.00  0.00    -0.052 A  
HETATM   28  C   UNL     1      -5.638   8.818  69.364  1.00  0.00    -0.035 A  
HETATM   29  C   UNL     1      -5.921   8.317  70.632  1.00  0.00    -0.032 A  
ENDBRANCH  23  24
BRANCH  23  30
HETATM   30  C   UNL     1      -8.827   4.878  68.539  1.00  0.00    -0.117 A  
HETATM   31  C   UNL     1      -9.481   3.760  66.041  1.00  0.00    -0.178 A  
HETATM   32  C   UNL     1     -10.113   4.924  66.471  1.00  0.00    -0.285 A  
HETATM   33  C   UNL     1      -8.236   3.678  68.111  1.00  0.00    -0.090 A  
HETATM   34  C   UNL     1      -8.553   3.129  66.867  1.00  0.00    -0.120 A  
HETATM   35  C   UNL     1      -9.791   5.479  67.712  1.00  0.00    -0.164 A  
ENDBRANCH  23  30
ENDBRANCH  22  23
ENDBRANCH  19  22
ENDBRANCH  15  16
ENDBRANCH  14  15
ENDBRANCH  13  14
ENDBRANCH  11  13
ENDBRANCH   8  11
ENDBRANCH   2   5
TORSDOF 10
ENDMDL
MODEL      191
REMARK 921   NORMALIZED FREE ENERGY PREDICTED BY IDOCK:   -3.48 KCAL/MOL
REMARK 922        TOTAL FREE ENERGY PREDICTED BY IDOCK:   -8.44 KCAL/MOL
REMARK 923 INTER-LIGAND FREE ENERGY PREDICTED BY IDOCK:   -8.39 KCAL/MOL
REMARK 924 INTRA-LIGAND FREE ENERGY PREDICTED BY IDOCK:   -0.05 KCAL/MOL
REMARK 927      BINDING AFFINITY PREDICTED BY RF-SCORE:    0.00 PKD
ROOT
HETATM    1  C   UNL     1      -8.458   5.281  64.014  1.00  0.00    -0.102 C  
HETATM    2  C   UNL     1      -9.064   4.134  64.851  1.00  0.00    -0.144 C  
HETATM    3  C   UNL     1      -8.443   2.814  64.342  1.00  0.00    -0.090 C  
HETATM    4  C   UNL     1     -10.582   4.113  64.576  1.00  0.00    -0.170 C  
ENDROOT
BRANCH   2   5
HETATM    5  C   UNL     1      -8.798   4.280  66.356  1.00  0.00    -0.116 A  
HETATM    6  C   UNL     1      -9.331   3.403  67.310  1.00  0.00    -0.237 A  
HETATM    7  C   UNL     1      -9.089   3.576  68.681  1.00  0.00    -0.203 A  
HETATM    8  C   UNL     1      -8.310   4.644  69.129  1.00  0.00    -0.085 A  
HETATM    9  C   UNL     1      -8.004   5.343  66.827  1.00  0.00    -0.101 A  
HETATM   10  C   UNL     1      -7.763   5.523  68.190  1.00  0.00    -0.085 A  
BRANCH   8  11
HETATM   11  C   UNL     1      -8.094   4.812  70.595  1.00  0.00    -0.081 C  
HETATM   12  O   UNL     1      -7.956   3.818  71.305  1.00  0.00    -0.061 OA 
BRANCH  11  13
HETATM   13  C   UNL     1      -8.053   6.224  71.146  1.00  0.00    -0.118 C  
BRANCH  13  14
HETATM   14  C   UNL     1      -9.073   6.431  72.261  1.00  0.00    -0.139 C  
BRANCH  14  15
HETATM   15  C   UNL     1     -10.494   6.064  71.830  1.00  0.00    -0.221 C  
BRANCH  15  16
HETATM   16  N   UNL     1     -11.013   6.776  70.652  1.00  0.00    -0.252 NA 
HETATM   17  C   UNL     1     -12.474   6.946  70.600  1.00  0.00    -0.123 C  
HETATM   18  C   UNL     1     -13.047   8.029  71.522  1.00  0.00    -0.322 C  
HETATM   19  C   UNL     1     -12.303   9.367  71.417  1.00  0.00    -0.357 C  
HETATM   20  C   UNL     1     -10.801   9.105  71.553  1.00  0.00    -0.436 C  
HETATM   21  C   UNL     1     -10.351   8.084  70.498  1.00  0.00    -0.202 C  
BRANCH  19  22
HETATM   22  O   UNL     1     -12.434  10.056  70.174  1.00  0.00    -0.110 OA 
BRANCH  22  23
HETATM   23  C   UNL     1     -11.589  11.172  69.880  1.00  0.00    -0.337 C  
BRANCH  23  24
HETATM   24  C   UNL     1     -12.107  12.350  70.706  1.00  0.00    -0.245 A  
HETATM   25  C   UNL     1     -13.056  12.171  71.732  1.00  0.00    -0.457 A  
HETATM   26  C   UNL     1     -13.510  13.252  72.490  1.00  0.00    -0.620 A  
HETATM   27  C   UNL     1     -11.644  13.650  70.454  1.00  0.00    -0.112 A  
HETATM   28  C   UNL     1     -13.026  14.533  72.232  1.00  0.00    -0.441 A  
HETATM   29  C   UNL     1     -12.098  14.731  71.213  1.00  0.00    -0.399 A  
ENDBRANCH  23  24
BRANCH  23  30
HETATM   30  C   UNL     1     -11.510  11.490  68.394  1.00  0.00    -0.364 A  
HETATM   31  C   UNL     1     -11.265  12.148  65.669  1.00  0.00    -0.381 A  
HETATM   32  C   UNL     1     -11.725  13.098  66.577  1.00  0.00    -0.433 A  
HETATM   33  C   UNL     1     -11.096  10.530  67.457  1.00  0.00    -0.358 A  
HETATM   34  C   UNL     1     -10.965  10.859  66.106  1.00  0.00    -0.099 A  
HETATM   35  C   UNL     1     -11.849  12.772  67.930  1.00  0.00    -0.392 A  
ENDBRANCH  23  30
ENDBRANCH  22  23
ENDBRANCH  19  22
ENDBRANCH  15  16
ENDBRANCH  14  15
ENDBRANCH  13  14
ENDBRANCH  11  13
ENDBRANCH   8  11
ENDBRANCH   2   5
TORSDOF 10
ENDMDL
MODEL      192
REMARK 921   NORMALIZED FREE ENERGY PREDICTED BY IDOCK:   -3.48 KCAL/MOL
REMARK 922        TOTAL FREE ENERGY PREDICTED BY IDOCK:   -8.44 KCAL/MOL
REMARK 923 INTER-LIGAND FREE ENERGY PREDICTED BY IDOCK:   -6.73 KCAL/MOL
REMARK 924 INTRA-LIGAND FREE ENERGY PREDICTED BY IDOCK:   -1.71 KCAL/MOL
REMARK 927      BINDING AFFINITY PREDICTED BY RF-SCORE:    0.00 PKD
ROOT
HETATM    1  C   UNL     1     -10.386  20.126  68.241  1.00  0.00    -0.426 C  
HETATM    2  C   UNL     1      -9.462  19.545  67.149  1.00  0.00    -0.422 C  
HETATM    3  C   UNL     1      -8.268  20.512  66.991  1.00  0.00    -0.314 C  
HETATM    4  C   UNL     1     -10.265  19.519  65.831  1.00  0.00    -0.508 C  
ENDROOT
BRANCH   2   5
HETATM    5  C   UNL     1      -8.944  18.139  67.484  1.00  0.00    -0.257 A  
HETATM    6  C   UNL     1      -9.041  17.579  68.766  1.00  0.00    -0.212 A  
HETATM    7  C   UNL     1      -8.537  16.301  69.046  1.00  0.00    -0.247 A  
HETATM    8  C   UNL     1      -7.913  15.554  68.045  1.00  0.00    -0.138 A  
HETATM    9  C   UNL     1      -8.322  17.366  66.485  1.00  0.00    -0.308 A  
HETATM   10  C   UNL     1      -7.815  16.094  66.760  1.00  0.00    -0.296 A  
BRANCH   8  11
HETATM   11  C   UNL     1      -7.367  14.209  68.385  1.00  0.00    -0.115 C  
HETATM   12  O   UNL     1      -8.049  13.427  69.045  1.00  0.00     0.081 OA 
BRANCH  11  13
HETATM   13  C   UNL     1      -5.975  13.866  67.892  1.00  0.00    -0.143 C  
BRANCH  13  14
HETATM   14  C   UNL     1      -5.624  12.403  68.142  1.00  0.00    -0.063 C  
BRANCH  14  15
HETATM   15  C   UNL     1      -6.214  11.471  67.080  1.00  0.00    -0.121 C  
BRANCH  15  16
HETATM   16  N   UNL     1      -6.144  10.032  67.377  1.00  0.00    -0.057 NA 
HETATM   17  C   UNL     1      -5.938   9.680  68.791  1.00  0.00    -0.042 C  
HETATM   18  C   UNL     1      -7.172   9.819  69.692  1.00  0.00    -0.097 C  
HETATM   19  C   UNL     1      -8.426   9.158  69.105  1.00  0.00    -0.132 C  
HETATM   20  C   UNL     1      -8.602   9.633  67.661  1.00  0.00    -0.126 C  
HETATM   21  C   UNL     1      -7.331   9.333  66.854  1.00  0.00    -0.090 C  
BRANCH  19  22
HETATM   22  O   UNL     1      -8.392   7.734  69.010  1.00  0.00    -0.128 OA 
BRANCH  22  23
HETATM   23  C   UNL     1      -9.610   6.995  68.886  1.00  0.00    -0.140 C  
BRANCH  23  24
HETATM   24  C   UNL     1     -10.048   6.621  70.303  1.00  0.00    -0.201 A  
HETATM   25  C   UNL     1     -11.356   6.874  70.762  1.00  0.00    -0.355 A  
HETATM   26  C   UNL     1     -11.748   6.513  72.053  1.00  0.00    -0.367 A  
HETATM   27  C   UNL     1      -9.144   6.011  71.186  1.00  0.00    -0.153 A  
HETATM   28  C   UNL     1     -10.839   5.896  72.908  1.00  0.00    -0.293 A  
HETATM   29  C   UNL     1      -9.537   5.650  72.476  1.00  0.00    -0.167 A  
ENDBRANCH  23  24
BRANCH  23  30
HETATM   30  C   UNL     1      -9.486   5.782  67.975  1.00  0.00    -0.116 A  
HETATM   31  C   UNL     1      -9.132   3.551  66.297  1.00  0.00    -0.161 A  
HETATM   32  C   UNL     1      -8.886   4.833  65.813  1.00  0.00    -0.131 A  
HETATM   33  C   UNL     1      -9.776   4.486  68.431  1.00  0.00    -0.188 A  
HETATM   34  C   UNL     1      -9.591   3.378  67.602  1.00  0.00    -0.160 A  
HETATM   35  C   UNL     1      -9.064   5.942  66.644  1.00  0.00    -0.138 A  
ENDBRANCH  23  30
ENDBRANCH  22  23
ENDBRANCH  19  22
ENDBRANCH  15  16
ENDBRANCH  14  15
ENDBRANCH  13  14
ENDBRANCH  11  13
ENDBRANCH   8  11
ENDBRANCH   2   5
TORSDOF 10
ENDMDL
MODEL      193
REMARK 921   NORMALIZED FREE ENERGY PREDICTED BY IDOCK:   -3.47 KCAL/MOL
REMARK 922        TOTAL FREE ENERGY PREDICTED BY IDOCK:   -8.42 KCAL/MOL
REMARK 923 INTER-LIGAND FREE ENERGY PREDICTED BY IDOCK:   -7.05 KCAL/MOL
REMARK 924 INTRA-LIGAND FREE ENERGY PREDICTED BY IDOCK:   -1.37 KCAL/MOL
REMARK 927      BINDING AFFINITY PREDICTED BY RF-SCORE:    0.00 PKD
ROOT
HETATM    1  C   UNL     1      -5.348  11.631  68.658  1.00  0.00    -0.042 C  
HETATM    2  C   UNL     1      -6.420  11.857  67.570  1.00  0.00    -0.111 C  
HETATM    3  C   UNL     1      -7.689  11.092  68.006  1.00  0.00    -0.106 C  
HETATM    4  C   UNL     1      -5.885  11.238  66.261  1.00  0.00    -0.114 C  
ENDROOT
BRANCH   2   5
HETATM    5  C   UNL     1      -6.761  13.338  67.358  1.00  0.00    -0.086 A  
HETATM    6  C   UNL     1      -5.943  14.380  67.819  1.00  0.00    -0.111 A  
HETATM    7  C   UNL     1      -6.294  15.725  67.630  1.00  0.00    -0.186 A  
HETATM    8  C   UNL     1      -7.482  16.058  66.979  1.00  0.00    -0.264 A  
HETATM    9  C   UNL     1      -7.950  13.695  66.692  1.00  0.00     0.597 A  
HETATM   10  C   UNL     1      -8.305  15.032  66.505  1.00  0.00    -0.002 A  
BRANCH   8  11
HETATM   11  C   UNL     1      -7.835  17.498  66.817  1.00  0.00    -0.230 C  
HETATM   12  O   UNL     1      -7.919  17.979  65.689  1.00  0.00    -0.514 OA 
BRANCH  11  13
HETATM   13  C   UNL     1      -8.078  18.311  68.074  1.00  0.00    -0.279 C  
BRANCH  13  14
HETATM   14  C   UNL     1      -9.560  18.606  68.286  1.00  0.00    -0.382 C  
BRANCH  14  15
HETATM   15  C   UNL     1     -10.447  17.400  67.969  1.00  0.00    -0.383 C  
BRANCH  15  16
HETATM   16  N   UNL     1     -11.050  16.723  69.128  1.00  0.00    -0.219 NA 
HETATM   17  C   UNL     1     -12.154  15.798  68.824  1.00  0.00    -0.068 C  
HETATM   18  C   UNL     1     -11.738  14.445  68.234  1.00  0.00    -0.376 C  
HETATM   19  C   UNL     1     -10.610  13.764  69.019  1.00  0.00    -0.139 C  
HETATM   20  C   UNL     1      -9.478  14.774  69.227  1.00  0.00    -0.061 C  
HETATM   21  C   UNL     1     -10.020  16.030  69.922  1.00  0.00    -0.077 C  
BRANCH  19  22
HETATM   22  O   UNL     1     -10.943  13.327  70.336  1.00  0.00     0.645 OA 
BRANCH  22  23
HETATM   23  C   UNL     1     -12.292  12.972  70.654  1.00  0.00    -0.310 C  
BRANCH  23  24
HETATM   24  C   UNL     1     -12.806  14.024  71.639  1.00  0.00    -0.433 A  
HETATM   25  C   UNL     1     -12.182  14.234  72.885  1.00  0.00     0.001 A  
HETATM   26  C   UNL     1     -12.651  15.208  73.769  1.00  0.00    -0.712 A  
HETATM   27  C   UNL     1     -13.923  14.808  71.318  1.00  0.00    -0.444 A  
HETATM   28  C   UNL     1     -13.753  15.986  73.424  1.00  0.00    -0.230 A  
HETATM   29  C   UNL     1     -14.391  15.783  72.202  1.00  0.00    -0.353 A  
ENDBRANCH  23  24
BRANCH  23  30
HETATM   30  C   UNL     1     -12.429  11.554  71.190  1.00  0.00    -0.442 A  
HETATM   31  C   UNL     1     -12.587   8.955  72.258  1.00  0.00    -0.455 A  
HETATM   32  C   UNL     1     -11.544   9.294  71.400  1.00  0.00    -0.437 A  
HETATM   33  C   UNL     1     -13.500  11.181  72.017  1.00  0.00    -0.280 A  
HETATM   34  C   UNL     1     -13.574   9.894  72.555  1.00  0.00    -0.139 A  
HETATM   35  C   UNL     1     -11.465  10.584  70.868  1.00  0.00    -0.304 A  
ENDBRANCH  23  30
ENDBRANCH  22  23
ENDBRANCH  19  22
ENDBRANCH  15  16
ENDBRANCH  14  15
ENDBRANCH  13  14
ENDBRANCH  11  13
ENDBRANCH   8  11
ENDBRANCH   2   5
TORSDOF 10
ENDMDL
MODEL      194
REMARK 921   NORMALIZED FREE ENERGY PREDICTED BY IDOCK:   -3.44 KCAL/MOL
REMARK 922        TOTAL FREE ENERGY PREDICTED BY IDOCK:   -8.37 KCAL/MOL
REMARK 923 INTER-LIGAND FREE ENERGY PREDICTED BY IDOCK:   -4.98 KCAL/MOL
REMARK 924 INTRA-LIGAND FREE ENERGY PREDICTED BY IDOCK:   -3.40 KCAL/MOL
REMARK 927      BINDING AFFINITY PREDICTED BY RF-SCORE:    0.00 PKD
ROOT
HETATM    1  C   UNL     1     -12.750  13.529  66.515  1.00  0.00     0.020 C  
HETATM    2  C   UNL     1     -11.533  13.861  65.624  1.00  0.00    -0.321 C  
HETATM    3  C   UNL     1     -12.072  14.233  64.225  1.00  0.00    -0.467 C  
HETATM    4  C   UNL     1     -10.683  12.577  65.509  1.00  0.00    -0.303 C  
ENDROOT
BRANCH   2   5
HETATM    5  C   UNL     1     -10.682  15.015  66.171  1.00  0.00    -0.328 A  
HETATM    6  C   UNL     1      -9.824  15.775  65.363  1.00  0.00    -0.212 A  
HETATM    7  C   UNL     1      -9.041  16.809  65.897  1.00  0.00    -0.120 A  
HETATM    8  C   UNL     1      -9.095  17.102  67.260  1.00  0.00    -0.227 A  
HETATM    9  C   UNL     1     -10.731  15.333  67.542  1.00  0.00    -0.285 A  
HETATM   10  C   UNL     1      -9.951  16.359  68.078  1.00  0.00    -0.242 A  
BRANCH   8  11
HETATM   11  C   UNL     1      -8.230  18.192  67.797  1.00  0.00    -0.242 C  
HETATM   12  O   UNL     1      -8.183  19.272  67.213  1.00  0.00    -0.270 OA 
BRANCH  11  13
HETATM   13  C   UNL     1      -7.439  17.909  69.060  1.00  0.00    -0.171 C  
BRANCH  13  14
HETATM   14  C   UNL     1      -5.991  17.540  68.756  1.00  0.00    -0.175 C  
BRANCH  14  15
HETATM   15  C   UNL     1      -5.879  16.386  67.756  1.00  0.00    -0.133 C  
BRANCH  15  16
HETATM   16  N   UNL     1      -5.413  15.103  68.303  1.00  0.00    -0.112 NA 
HETATM   17  C   UNL     1      -5.870  14.785  69.665  1.00  0.00    -0.104 C  
HETATM   18  C   UNL     1      -7.328  14.320  69.781  1.00  0.00     0.181 C  
HETATM   19  C   UNL     1      -7.692  13.221  68.775  1.00  0.00    -0.022 C  
HETATM   20  C   UNL     1      -7.246  13.664  67.380  1.00  0.00    -0.108 C  
HETATM   21  C   UNL     1      -5.747  13.994  67.391  1.00  0.00     0.320 C  
BRANCH  19  22
HETATM   22  O   UNL     1      -7.052  11.960  68.970  1.00  0.00    -0.111 OA 
BRANCH  22  23
HETATM   23  C   UNL     1      -7.835  10.779  69.155  1.00  0.00    -0.142 C  
BRANCH  23  24
HETATM   24  C   UNL     1      -7.010   9.831  70.027  1.00  0.00    -0.106 A  
HETATM   25  C   UNL     1      -6.060  10.316  70.947  1.00  0.00    -0.027 A  
HETATM   26  C   UNL     1      -5.323   9.442  71.750  1.00  0.00    -0.071 A  
HETATM   27  C   UNL     1      -7.184   8.443  69.925  1.00  0.00    -0.055 A  
HETATM   28  C   UNL     1      -5.522   8.067  71.643  1.00  0.00    -0.034 A  
HETATM   29  C   UNL     1      -6.447   7.569  70.729  1.00  0.00    -0.039 A  
ENDBRANCH  23  24
BRANCH  23  30
HETATM   30  C   UNL     1      -8.270  10.136  67.845  1.00  0.00    -0.109 A  
HETATM   31  C   UNL     1      -9.022   8.842  65.462  1.00  0.00    -0.246 A  
HETATM   32  C   UNL     1      -7.687   9.168  65.687  1.00  0.00    -0.094 A  
HETATM   33  C   UNL     1      -9.617   9.845  67.580  1.00  0.00    -0.172 A  
HETATM   34  C   UNL     1      -9.990   9.193  66.402  1.00  0.00    -0.358 A  
HETATM   35  C   UNL     1      -7.312   9.813  66.868  1.00  0.00    -0.091 A  
ENDBRANCH  23  30
ENDBRANCH  22  23
ENDBRANCH  19  22
ENDBRANCH  15  16
ENDBRANCH  14  15
ENDBRANCH  13  14
ENDBRANCH  11  13
ENDBRANCH   8  11
ENDBRANCH   2   5
TORSDOF 10
ENDMDL
MODEL      195
REMARK 921   NORMALIZED FREE ENERGY PREDICTED BY IDOCK:   -3.43 KCAL/MOL
REMARK 922        TOTAL FREE ENERGY PREDICTED BY IDOCK:   -8.37 KCAL/MOL
REMARK 923 INTER-LIGAND FREE ENERGY PREDICTED BY IDOCK:   -6.93 KCAL/MOL
REMARK 924 INTRA-LIGAND FREE ENERGY PREDICTED BY IDOCK:   -1.44 KCAL/MOL
REMARK 927      BINDING AFFINITY PREDICTED BY RF-SCORE:    0.00 PKD
ROOT
HETATM    1  C   UNL     1      -8.643  14.335  67.979  1.00  0.00    -0.169 C  
HETATM    2  C   UNL     1      -9.747  13.432  67.386  1.00  0.00    -0.221 C  
HETATM    3  C   UNL     1     -10.318  14.156  66.146  1.00  0.00    -0.304 C  
HETATM    4  C   UNL     1     -10.859  13.303  68.449  1.00  0.00    -0.279 C  
ENDROOT
BRANCH   2   5
HETATM    5  C   UNL     1      -9.235  12.043  66.979  1.00  0.00    -0.195 A  
HETATM    6  C   UNL     1      -7.952  11.829  66.457  1.00  0.00    -0.009 A  
HETATM    7  C   UNL     1      -7.522  10.550  66.073  1.00  0.00    -0.137 A  
HETATM    8  C   UNL     1      -8.375   9.453  66.197  1.00  0.00    -0.118 A  
HETATM    9  C   UNL     1     -10.077  10.922  67.108  1.00  0.00    -0.235 A  
HETATM   10  C   UNL     1      -9.655   9.648  66.724  1.00  0.00    -0.225 A  
BRANCH   8  11
HETATM   11  C   UNL     1      -7.893   8.113  65.756  1.00  0.00    -0.096 C  
HETATM   12  O   UNL     1      -7.802   7.867  64.555  1.00  0.00    -0.121 OA 
BRANCH  11  13
HETATM   13  C   UNL     1      -7.533   7.103  66.828  1.00  0.00    -0.089 C  
BRANCH  13  14
HETATM   14  C   UNL     1      -6.176   7.399  67.459  1.00  0.00    -0.048 C  
BRANCH  14  15
HETATM   15  C   UNL     1      -5.901   6.530  68.689  1.00  0.00    -0.021 C  
BRANCH  15  16
HETATM   16  N   UNL     1      -5.994   7.210  69.990  1.00  0.00    -0.024 NA 
HETATM   17  C   UNL     1      -6.483   8.598  69.953  1.00  0.00    -0.034 C  
HETATM   18  C   UNL     1      -7.994   8.761  69.746  1.00  0.00    -0.095 C  
HETATM   19  C   UNL     1      -8.830   7.876  70.679  1.00  0.00    -0.140 C  
HETATM   20  C   UNL     1      -8.301   6.442  70.601  1.00  0.00    -0.133 C  
HETATM   21  C   UNL     1      -6.802   6.419  70.935  1.00  0.00    -0.063 C  
BRANCH  19  22
HETATM   22  O   UNL     1      -8.770   8.202  72.067  1.00  0.00    -0.133 OA 
BRANCH  22  23
HETATM   23  C   UNL     1      -9.965   8.216  72.852  1.00  0.00    -0.266 C  
BRANCH  23  24
HETATM   24  C   UNL     1     -10.293   6.760  73.187  1.00  0.00    -0.270 A  
HETATM   25  C   UNL     1      -9.555   6.041  74.149  1.00  0.00    -0.182 A  
HETATM   26  C   UNL     1      -9.874   4.717  74.458  1.00  0.00    -0.209 A  
HETATM   27  C   UNL     1     -11.346   6.103  72.534  1.00  0.00    -0.328 A  
HETATM   28  C   UNL     1     -10.933   4.088  73.807  1.00  0.00    -0.326 A  
HETATM   29  C   UNL     1     -11.664   4.779  72.844  1.00  0.00    -0.128 A  
ENDBRANCH  23  24
BRANCH  23  30
HETATM   30  C   UNL     1     -11.123   8.933  72.171  1.00  0.00    -0.355 A  
HETATM   31  C   UNL     1     -13.276  10.326  71.014  1.00  0.00    -0.399 A  
HETATM   32  C   UNL     1     -13.510   9.392  72.020  1.00  0.00    -0.522 A  
HETATM   33  C   UNL     1     -10.910   9.841  71.123  1.00  0.00    -0.333 A  
HETATM   34  C   UNL     1     -11.978  10.541  70.555  1.00  0.00    -0.436 A  
HETATM   35  C   UNL     1     -12.442   8.698  72.594  1.00  0.00    -0.283 A  
ENDBRANCH  23  30
ENDBRANCH  22  23
ENDBRANCH  19  22
ENDBRANCH  15  16
ENDBRANCH  14  15
ENDBRANCH  13  14
ENDBRANCH  11  13
ENDBRANCH   8  11
ENDBRANCH   2   5
TORSDOF 10
ENDMDL
MODEL      196
REMARK 921   NORMALIZED FREE ENERGY PREDICTED BY IDOCK:   -3.43 KCAL/MOL
REMARK 922        TOTAL FREE ENERGY PREDICTED BY IDOCK:   -8.36 KCAL/MOL
REMARK 923 INTER-LIGAND FREE ENERGY PREDICTED BY IDOCK:   -6.48 KCAL/MOL
REMARK 924 INTRA-LIGAND FREE ENERGY PREDICTED BY IDOCK:   -1.89 KCAL/MOL
REMARK 927      BINDING AFFINITY PREDICTED BY RF-SCORE:    0.00 PKD
ROOT
HETATM    1  C   UNL     1     -10.536  10.433  63.769  1.00  0.00     0.371 C  
HETATM    2  C   UNL     1      -9.031  10.196  63.515  1.00  0.00    -0.265 C  
HETATM    3  C   UNL     1      -8.482  11.445  62.791  1.00  0.00     0.066 C  
HETATM    4  C   UNL     1      -8.908   8.976  62.577  1.00  0.00    -0.150 C  
ENDROOT
BRANCH   2   5
HETATM    5  C   UNL     1      -8.233   9.958  64.805  1.00  0.00    -0.151 A  
HETATM    6  C   UNL     1      -6.832   9.984  64.847  1.00  0.00    -0.133 A  
HETATM    7  C   UNL     1      -6.131   9.739  66.036  1.00  0.00    -0.066 A  
HETATM    8  C   UNL     1      -6.821   9.452  67.215  1.00  0.00    -0.084 A  
HETATM    9  C   UNL     1      -8.912   9.679  66.007  1.00  0.00    -0.195 A  
HETATM   10  C   UNL     1      -8.218   9.431  67.193  1.00  0.00    -0.113 A  
BRANCH   8  11
HETATM   11  C   UNL     1      -6.042   9.173  68.456  1.00  0.00    -0.045 C  
HETATM   12  O   UNL     1      -6.115   8.063  68.980  1.00  0.00    -0.037 OA 
BRANCH  11  13
HETATM   13  C   UNL     1      -5.183  10.289  69.017  1.00  0.00    -0.035 C  
BRANCH  13  14
HETATM   14  C   UNL     1      -5.991  11.555  69.280  1.00  0.00    -0.065 C  
BRANCH  14  15
HETATM   15  C   UNL     1      -5.256  12.821  68.833  1.00  0.00    -0.067 C  
BRANCH  15  16
HETATM   16  N   UNL     1      -6.007  13.722  67.945  1.00  0.00    -0.145 NA 
HETATM   17  C   UNL     1      -7.205  13.145  67.314  1.00  0.00    -0.032 C  
HETATM   18  C   UNL     1      -8.429  13.003  68.228  1.00  0.00    -0.159 C  
HETATM   19  C   UNL     1      -8.746  14.281  69.015  1.00  0.00     0.060 C  
HETATM   20  C   UNL     1      -7.464  14.771  69.694  1.00  0.00    -0.081 C  
HETATM   21  C   UNL     1      -6.361  14.970  68.645  1.00  0.00    -0.088 C  
BRANCH  19  22
HETATM   22  O   UNL     1      -9.187  15.397  68.241  1.00  0.00    -0.183 OA 
BRANCH  22  23
HETATM   23  C   UNL     1     -10.575  15.552  67.932  1.00  0.00    -0.274 C  
BRANCH  23  24
HETATM   24  C   UNL     1     -11.356  15.123  69.176  1.00  0.00    -0.311 A  
HETATM   25  C   UNL     1     -11.859  16.068  70.092  1.00  0.00    -0.253 A  
HETATM   26  C   UNL     1     -12.584  15.666  71.216  1.00  0.00    -0.523 A  
HETATM   27  C   UNL     1     -11.587  13.764  69.433  1.00  0.00    -0.365 A  
HETATM   28  C   UNL     1     -12.816  14.311  71.444  1.00  0.00    -0.415 A  
HETATM   29  C   UNL     1     -12.313  13.362  70.557  1.00  0.00    -0.401 A  
ENDBRANCH  23  24
BRANCH  23  30
HETATM   30  C   UNL     1     -11.001  14.791  66.685  1.00  0.00    -0.326 A  
HETATM   31  C   UNL     1     -11.879  13.467  64.362  1.00  0.00    -0.455 A  
HETATM   32  C   UNL     1     -12.630  13.393  65.533  1.00  0.00    -0.520 A  
HETATM   33  C   UNL     1     -10.232  14.814  65.511  1.00  0.00    -0.400 A  
HETATM   34  C   UNL     1     -10.673  14.166  64.355  1.00  0.00    -0.176 A  
HETATM   35  C   UNL     1     -12.194  14.048  66.687  1.00  0.00    -0.463 A  
ENDBRANCH  23  30
ENDBRANCH  22  23
ENDBRANCH  19  22
ENDBRANCH  15  16
ENDBRANCH  14  15
ENDBRANCH  13  14
ENDBRANCH  11  13
ENDBRANCH   8  11
ENDBRANCH   2   5
TORSDOF 10
ENDMDL
MODEL      197
REMARK 921   NORMALIZED FREE ENERGY PREDICTED BY IDOCK:   -3.42 KCAL/MOL
REMARK 922        TOTAL FREE ENERGY PREDICTED BY IDOCK:   -8.34 KCAL/MOL
REMARK 923 INTER-LIGAND FREE ENERGY PREDICTED BY IDOCK:   -5.54 KCAL/MOL
REMARK 924 INTRA-LIGAND FREE ENERGY PREDICTED BY IDOCK:   -2.80 KCAL/MOL
REMARK 927      BINDING AFFINITY PREDICTED BY RF-SCORE:    0.00 PKD
ROOT
HETATM    1  C   UNL     1     -12.927  13.757  66.192  1.00  0.00     0.013 C  
HETATM    2  C   UNL     1     -11.756  14.204  65.290  1.00  0.00    -0.353 C  
HETATM    3  C   UNL     1     -12.329  15.179  64.238  1.00  0.00    -0.198 C  
HETATM    4  C   UNL     1     -11.222  12.946  64.572  1.00  0.00    -0.372 C  
ENDROOT
BRANCH   2   5
HETATM    5  C   UNL     1     -10.626  14.892  66.068  1.00  0.00    -0.321 A  
HETATM    6  C   UNL     1      -9.417  15.275  65.470  1.00  0.00    -0.141 A  
HETATM    7  C   UNL     1      -8.393  15.882  66.212  1.00  0.00    -0.235 A  
HETATM    8  C   UNL     1      -8.555  16.113  67.579  1.00  0.00    -0.189 A  
HETATM    9  C   UNL     1     -10.775  15.145  67.445  1.00  0.00    -0.286 A  
HETATM   10  C   UNL     1      -9.758  15.745  68.189  1.00  0.00    -0.211 A  
BRANCH   8  11
HETATM   11  C   UNL     1      -7.436  16.738  68.342  1.00  0.00    -0.202 C  
HETATM   12  O   UNL     1      -7.066  17.874  68.053  1.00  0.00    -0.205 OA 
BRANCH  11  13
HETATM   13  C   UNL     1      -6.801  15.928  69.455  1.00  0.00    -0.200 C  
BRANCH  13  14
HETATM   14  C   UNL     1      -5.477  15.305  69.024  1.00  0.00    -0.098 C  
BRANCH  14  15
HETATM   15  C   UNL     1      -5.666  14.170  68.015  1.00  0.00    -0.129 C  
BRANCH  15  16
HETATM   16  N   UNL     1      -5.973  12.848  68.584  1.00  0.00    -0.066 NA 
HETATM   17  C   UNL     1      -7.314  12.702  69.173  1.00  0.00     0.134 C  
HETATM   18  C   UNL     1      -8.464  12.551  68.168  1.00  0.00    -0.180 C  
HETATM   19  C   UNL     1      -8.187  11.499  67.086  1.00  0.00    -0.161 C  
HETATM   20  C   UNL     1      -6.807  11.769  66.481  1.00  0.00     0.110 C  
HETATM   21  C   UNL     1      -5.744  11.785  67.588  1.00  0.00    -0.067 C  
BRANCH  19  22
HETATM   22  O   UNL     1      -8.120  10.146  67.536  1.00  0.00    -0.112 OA 
BRANCH  22  23
HETATM   23  C   UNL     1      -8.737   9.106  66.773  1.00  0.00    -0.127 C  
BRANCH  23  24
HETATM   24  C   UNL     1      -9.556   8.264  67.753  1.00  0.00    -0.178 A  
HETATM   25  C   UNL     1      -9.497   8.485  69.143  1.00  0.00    -0.154 A  
HETATM   26  C   UNL     1     -10.262   7.721  70.027  1.00  0.00    -0.210 A  
HETATM   27  C   UNL     1     -10.392   7.242  67.281  1.00  0.00    -0.349 A  
HETATM   28  C   UNL     1     -11.097   6.720  69.535  1.00  0.00    -0.324 A  
HETATM   29  C   UNL     1     -11.158   6.478  68.165  1.00  0.00    -0.332 A  
ENDBRANCH  23  24
BRANCH  23  30
HETATM   30  C   UNL     1      -7.741   8.272  65.979  1.00  0.00    -0.093 A  
HETATM   31  C   UNL     1      -5.844   6.837  64.476  1.00  0.00    -0.031 A  
HETATM   32  C   UNL     1      -6.863   7.534  63.831  1.00  0.00    -0.054 A  
HETATM   33  C   UNL     1      -6.738   7.524  66.615  1.00  0.00    -0.058 A  
HETATM   34  C   UNL     1      -5.790   6.819  65.869  1.00  0.00    -0.030 A  
HETATM   35  C   UNL     1      -7.806   8.245  64.576  1.00  0.00    -0.130 A  
ENDBRANCH  23  30
ENDBRANCH  22  23
ENDBRANCH  19  22
ENDBRANCH  15  16
ENDBRANCH  14  15
ENDBRANCH  13  14
ENDBRANCH  11  13
ENDBRANCH   8  11
ENDBRANCH   2   5
TORSDOF 10
ENDMDL
MODEL      198
REMARK 921   NORMALIZED FREE ENERGY PREDICTED BY IDOCK:   -3.42 KCAL/MOL
REMARK 922        TOTAL FREE ENERGY PREDICTED BY IDOCK:   -8.34 KCAL/MOL
REMARK 923 INTER-LIGAND FREE ENERGY PREDICTED BY IDOCK:   -6.47 KCAL/MOL
REMARK 924 INTRA-LIGAND FREE ENERGY PREDICTED BY IDOCK:   -1.87 KCAL/MOL
REMARK 927      BINDING AFFINITY PREDICTED BY RF-SCORE:    0.00 PKD
ROOT
HETATM    1  C   UNL     1     -14.410  15.331  71.661  1.00  0.00    -0.666 C  
HETATM    2  C   UNL     1     -12.905  15.152  71.957  1.00  0.00    -0.424 C  
HETATM    3  C   UNL     1     -12.750  13.864  72.796  1.00  0.00    -0.229 C  
HETATM    4  C   UNL     1     -12.456  16.360  72.807  1.00  0.00    -0.347 C  
ENDROOT
BRANCH   2   5
HETATM    5  C   UNL     1     -12.049  15.046  70.688  1.00  0.00    -0.375 A  
HETATM    6  C   UNL     1     -11.145  16.043  70.296  1.00  0.00    -0.380 A  
HETATM    7  C   UNL     1     -10.393  15.927  69.117  1.00  0.00    -0.237 A  
HETATM    8  C   UNL     1     -10.537  14.807  68.297  1.00  0.00    -0.241 A  
HETATM    9  C   UNL     1     -12.170  13.918  69.854  1.00  0.00    -0.393 A  
HETATM   10  C   UNL     1     -11.427  13.799  68.678  1.00  0.00    -0.336 A  
BRANCH   8  11
HETATM   11  C   UNL     1      -9.739  14.729  67.039  1.00  0.00    -0.237 C  
HETATM   12  O   UNL     1     -10.304  14.467  65.979  1.00  0.00    -0.287 OA 
BRANCH  11  13
HETATM   13  C   UNL     1      -8.248  14.983  67.131  1.00  0.00    -0.251 C  
BRANCH  13  14
HETATM   14  C   UNL     1      -7.585  14.116  68.198  1.00  0.00    -0.136 C  
BRANCH  14  15
HETATM   15  C   UNL     1      -6.807  12.943  67.597  1.00  0.00    -0.149 C  
BRANCH  15  16
HETATM   16  N   UNL     1      -7.545  11.677  67.472  1.00  0.00    -0.120 NA 
HETATM   17  C   UNL     1      -6.857  10.607  66.731  1.00  0.00    -0.108 C  
HETATM   18  C   UNL     1      -5.734   9.892  67.493  1.00  0.00    -0.042 C  
HETATM   19  C   UNL     1      -6.147   9.449  68.903  1.00  0.00    -0.043 C  
HETATM   20  C   UNL     1      -6.786  10.639  69.624  1.00  0.00    -0.124 C  
HETATM   21  C   UNL     1      -7.960  11.182  68.797  1.00  0.00    -0.144 C  
BRANCH  19  22
HETATM   22  O   UNL     1      -7.135   8.421  68.968  1.00  0.00    -0.066 OA 
BRANCH  22  23
HETATM   23  C   UNL     1      -6.756   7.051  68.808  1.00  0.00    -0.060 C  
BRANCH  23  24
HETATM   24  C   UNL     1      -7.808   6.404  67.905  1.00  0.00    -0.104 A  
HETATM   25  C   UNL     1      -9.113   6.924  67.803  1.00  0.00    -0.118 A  
HETATM   26  C   UNL     1     -10.060   6.334  66.963  1.00  0.00    -0.225 A  
HETATM   27  C   UNL     1      -7.490   5.264  67.152  1.00  0.00    -0.084 A  
HETATM   28  C   UNL     1      -9.718   5.211  66.212  1.00  0.00    -0.188 A  
HETATM   29  C   UNL     1      -8.437   4.675  66.311  1.00  0.00    -0.113 A  
ENDBRANCH  23  24
BRANCH  23  30
HETATM   30  C   UNL     1      -6.590   6.316  70.130  1.00  0.00    -0.045 A  
HETATM   31  C   UNL     1      -6.160   4.954  72.554  1.00  0.00    -0.029 A  
HETATM   32  C   UNL     1      -6.024   4.281  71.343  1.00  0.00    -0.017 A  
HETATM   33  C   UNL     1      -6.771   6.966  71.360  1.00  0.00    -0.060 A  
HETATM   34  C   UNL     1      -6.547   6.293  72.564  1.00  0.00    -0.064 A  
HETATM   35  C   UNL     1      -6.240   4.955  70.138  1.00  0.00    -0.026 A  
ENDBRANCH  23  30
ENDBRANCH  22  23
ENDBRANCH  19  22
ENDBRANCH  15  16
ENDBRANCH  14  15
ENDBRANCH  13  14
ENDBRANCH  11  13
ENDBRANCH   8  11
ENDBRANCH   2   5
TORSDOF 10
ENDMDL
MODEL      199
REMARK 921   NORMALIZED FREE ENERGY PREDICTED BY IDOCK:   -3.34 KCAL/MOL
REMARK 922        TOTAL FREE ENERGY PREDICTED BY IDOCK:   -8.22 KCAL/MOL
REMARK 923 INTER-LIGAND FREE ENERGY PREDICTED BY IDOCK:   -8.39 KCAL/MOL
REMARK 924 INTRA-LIGAND FREE ENERGY PREDICTED BY IDOCK:    0.16 KCAL/MOL
REMARK 927      BINDING AFFINITY PREDICTED BY RF-SCORE:    0.00 PKD
ROOT
HETATM    1  C   UNL     1     -12.389  13.080  63.224  1.00  0.00    -0.392 C  
HETATM    2  C   UNL     1     -11.465  12.908  64.449  1.00  0.00    -0.405 C  
HETATM    3  C   UNL     1     -12.369  12.719  65.687  1.00  0.00    -0.444 C  
HETATM    4  C   UNL     1     -10.662  14.218  64.608  1.00  0.00    -0.384 C  
ENDROOT
BRANCH   2   5
HETATM    5  C   UNL     1     -10.511  11.712  64.322  1.00  0.00    -0.383 A  
HETATM    6  C   UNL     1     -10.468  10.672  65.261  1.00  0.00    -0.264 A  
HETATM    7  C   UNL     1      -9.568   9.604  65.130  1.00  0.00    -0.324 A  
HETATM    8  C   UNL     1      -8.682   9.557  64.053  1.00  0.00    -0.239 A  
HETATM    9  C   UNL     1      -9.617  11.641  63.236  1.00  0.00    -0.334 A  
HETATM   10  C   UNL     1      -8.718  10.582  63.103  1.00  0.00    -0.200 A  
BRANCH   8  11
HETATM   11  C   UNL     1      -7.723   8.419  63.959  1.00  0.00    -0.139 C  
HETATM   12  O   UNL     1      -7.878   7.566  63.087  1.00  0.00    -0.133 OA 
BRANCH  11  13
HETATM   13  C   UNL     1      -6.584   8.370  64.958  1.00  0.00    -0.063 C  
BRANCH  13  14
HETATM   14  C   UNL     1      -5.892   9.722  65.103  1.00  0.00    -0.077 C  
BRANCH  14  15
HETATM   15  C   UNL     1      -6.170  10.378  66.458  1.00  0.00    -0.078 C  
BRANCH  15  16
HETATM   16  N   UNL     1      -6.060   9.500  67.633  1.00  0.00    -0.052 NA 
HETATM   17  C   UNL     1      -5.907  10.182  68.929  1.00  0.00    -0.037 C  
HETATM   18  C   UNL     1      -7.186  10.808  69.500  1.00  0.00    -0.132 C  
HETATM   19  C   UNL     1      -8.385   9.851  69.484  1.00  0.00    -0.168 C  
HETATM   20  C   UNL     1      -8.512   9.244  68.085  1.00  0.00    -0.121 C  
HETATM   21  C   UNL     1      -7.194   8.561  67.691  1.00  0.00    -0.084 C  
BRANCH  19  22
HETATM   22  O   UNL     1      -8.294   8.724  70.355  1.00  0.00    -0.115 OA 
BRANCH  22  23
HETATM   23  C   UNL     1      -9.476   8.012  70.733  1.00  0.00    -0.161 C  
BRANCH  23  24
HETATM   24  C   UNL     1      -9.753   6.994  69.625  1.00  0.00    -0.157 A  
HETATM   25  C   UNL     1     -10.853   7.132  68.755  1.00  0.00    -0.157 A  
HETATM   26  C   UNL     1     -11.086   6.205  67.737  1.00  0.00    -0.306 A  
HETATM   27  C   UNL     1      -8.906   5.889  69.451  1.00  0.00    -0.122 A  
HETATM   28  C   UNL     1     -10.224   5.122  67.573  1.00  0.00    -0.210 A  
HETATM   29  C   UNL     1      -9.140   4.963  68.432  1.00  0.00    -0.141 A  
ENDBRANCH  23  24
BRANCH  23  30
HETATM   30  C   UNL     1     -10.666   8.923  70.999  1.00  0.00    -0.315 A  
HETATM   31  C   UNL     1     -12.912  10.573  71.381  1.00  0.00    -0.542 A  
HETATM   32  C   UNL     1     -11.917  10.947  70.482  1.00  0.00    -0.466 A  
HETATM   33  C   UNL     1     -11.654   8.585  71.938  1.00  0.00    -0.410 A  
HETATM   34  C   UNL     1     -12.774   9.400  72.120  1.00  0.00    -0.460 A  
HETATM   35  C   UNL     1     -10.800  10.130  70.293  1.00  0.00    -0.370 A  
ENDBRANCH  23  30
ENDBRANCH  22  23
ENDBRANCH  19  22
ENDBRANCH  15  16
ENDBRANCH  14  15
ENDBRANCH  13  14
ENDBRANCH  11  13
ENDBRANCH   8  11
ENDBRANCH   2   5
TORSDOF 10
ENDMDL
MODEL      200
REMARK 921   NORMALIZED FREE ENERGY PREDICTED BY IDOCK:   -3.32 KCAL/MOL
REMARK 922        TOTAL FREE ENERGY PREDICTED BY IDOCK:   -8.19 KCAL/MOL
REMARK 923 INTER-LIGAND FREE ENERGY PREDICTED BY IDOCK:   -5.77 KCAL/MOL
REMARK 924 INTRA-LIGAND FREE ENERGY PREDICTED BY IDOCK:   -2.43 KCAL/MOL
REMARK 927      BINDING AFFINITY PREDICTED BY RF-SCORE:    0.00 PKD
ROOT
HETATM    1  C   UNL     1      -7.618   7.920  73.740  1.00  0.00    -0.197 C  
HETATM    2  C   UNL     1      -6.391   7.457  72.926  1.00  0.00    -0.059 C  
HETATM    3  C   UNL     1      -5.343   6.928  73.930  1.00  0.00    -0.046 C  
HETATM    4  C   UNL     1      -5.818   8.699  72.210  1.00  0.00    -0.065 C  
ENDROOT
BRANCH   2   5
HETATM    5  C   UNL     1      -6.723   6.361  71.905  1.00  0.00    -0.063 A  
HETATM    6  C   UNL     1      -7.487   5.229  72.227  1.00  0.00    -0.095 A  
HETATM    7  C   UNL     1      -7.754   4.232  71.277  1.00  0.00    -0.071 A  
HETATM    8  C   UNL     1      -7.254   4.343  69.979  1.00  0.00    -0.046 A  
HETATM    9  C   UNL     1      -6.238   6.460  70.587  1.00  0.00    -0.039 A  
HETATM   10  C   UNL     1      -6.498   5.469  69.639  1.00  0.00    -0.045 A  
BRANCH   8  11
HETATM   11  C   UNL     1      -7.537   3.252  69.002  1.00  0.00    -0.048 C  
HETATM   12  O   UNL     1      -6.603   2.630  68.501  1.00  0.00    -0.029 OA 
BRANCH  11  13
HETATM   13  C   UNL     1      -8.987   2.960  68.671  1.00  0.00    -0.191 C  
BRANCH  13  14
HETATM   14  C   UNL     1      -9.632   4.091  67.877  1.00  0.00    -0.199 C  
BRANCH  14  15
HETATM   15  C   UNL     1     -10.426   5.051  68.766  1.00  0.00     0.026 C  
BRANCH  15  16
HETATM   16  N   UNL     1     -10.914   6.276  68.115  1.00  0.00    -0.326 NA 
HETATM   17  C   UNL     1     -10.765   7.517  68.893  1.00  0.00    -0.115 C  
HETATM   18  C   UNL     1      -9.345   8.095  68.947  1.00  0.00    -0.147 C  
HETATM   19  C   UNL     1      -8.680   8.191  67.569  1.00  0.00    -0.129 C  
HETATM   20  C   UNL     1      -8.819   6.841  66.861  1.00  0.00    -0.120 C  
HETATM   21  C   UNL     1     -10.300   6.442  66.786  1.00  0.00    -0.213 C  
BRANCH  19  22
HETATM   22  O   UNL     1      -9.257   9.131  66.662  1.00  0.00    -0.149 OA 
BRANCH  22  23
HETATM   23  C   UNL     1      -9.450  10.489  67.064  1.00  0.00    -0.163 C  
BRANCH  23  24
HETATM   24  C   UNL     1     -10.319  11.149  65.991  1.00  0.00    -0.308 A  
HETATM   25  C   UNL     1     -11.201  12.203  66.302  1.00  0.00    -0.382 A  
HETATM   26  C   UNL     1     -11.977  12.808  65.311  1.00  0.00    -0.473 A  
HETATM   27  C   UNL     1     -10.254  10.712  64.660  1.00  0.00    -0.404 A  
HETATM   28  C   UNL     1     -11.886  12.367  63.993  1.00  0.00    -0.521 A  
HETATM   29  C   UNL     1     -11.030  11.318  63.669  1.00  0.00    -0.369 A  
ENDBRANCH  23  24
BRANCH  23  30
HETATM   30  C   UNL     1      -8.145  11.237  67.299  1.00  0.00    -0.140 A  
HETATM   31  C   UNL     1      -5.754  12.683  67.629  1.00  0.00    -0.136 A  
HETATM   32  C   UNL     1      -5.845  11.702  66.645  1.00  0.00    -0.108 A  
HETATM   33  C   UNL     1      -8.020  12.195  68.317  1.00  0.00    -0.163 A  
HETATM   34  C   UNL     1      -6.836  12.920  68.475  1.00  0.00    -0.095 A  
HETATM   35  C   UNL     1      -7.031  10.982  66.481  1.00  0.00    -0.138 A  
ENDBRANCH  23  30
ENDBRANCH  22  23
ENDBRANCH  19  22
ENDBRANCH  15  16
ENDBRANCH  14  15
ENDBRANCH  13  14
ENDBRANCH  11  13
ENDBRANCH   8  11
ENDBRANCH   2   5
TORSDOF 10
ENDMDL
MODEL      201
REMARK 921   NORMALIZED FREE ENERGY PREDICTED BY IDOCK:   -3.28 KCAL/MOL
REMARK 922        TOTAL FREE ENERGY PREDICTED BY IDOCK:   -8.12 KCAL/MOL
REMARK 923 INTER-LIGAND FREE ENERGY PREDICTED BY IDOCK:   -6.15 KCAL/MOL
REMARK 924 INTRA-LIGAND FREE ENERGY PREDICTED BY IDOCK:   -1.97 KCAL/MOL
REMARK 927      BINDING AFFINITY PREDICTED BY RF-SCORE:    0.00 PKD
ROOT
HETATM    1  C   UNL     1      -7.240   4.548  65.461  1.00  0.00    -0.068 C  
HETATM    2  C   UNL     1      -8.346   4.629  66.535  1.00  0.00    -0.106 C  
HETATM    3  C   UNL     1      -8.415   3.252  67.232  1.00  0.00    -0.106 C  
HETATM    4  C   UNL     1      -9.680   4.889  65.803  1.00  0.00    -0.184 C  
ENDROOT
BRANCH   2   5
HETATM    5  C   UNL     1      -8.092   5.723  67.581  1.00  0.00    -0.102 A  
HETATM    6  C   UNL     1      -8.572   7.033  67.443  1.00  0.00    -0.121 A  
HETATM    7  C   UNL     1      -8.303   8.016  68.406  1.00  0.00    -0.127 A  
HETATM    8  C   UNL     1      -7.536   7.711  69.531  1.00  0.00    -0.092 A  
HETATM    9  C   UNL     1      -7.329   5.431  68.729  1.00  0.00    -0.074 A  
HETATM   10  C   UNL     1      -7.055   6.407  69.688  1.00  0.00    -0.073 A  
BRANCH   8  11
HETATM   11  C   UNL     1      -7.249   8.788  70.521  1.00  0.00    -0.059 C  
HETATM   12  O   UNL     1      -6.904   8.486  71.662  1.00  0.00    -0.069 OA 
BRANCH  11  13
HETATM   13  C   UNL     1      -7.398  10.226  70.065  1.00  0.00    -0.157 C  
BRANCH  13  14
HETATM   14  C   UNL     1      -6.334  10.614  69.043  1.00  0.00    -0.046 C  
BRANCH  14  15
HETATM   15  C   UNL     1      -5.739  11.998  69.315  1.00  0.00    -0.072 C  
BRANCH  15  16
HETATM   16  N   UNL     1      -5.944  13.005  68.263  1.00  0.00    -0.077 NA 
HETATM   17  C   UNL     1      -6.984  12.690  67.271  1.00  0.00    -0.100 C  
HETATM   18  C   UNL     1      -8.430  12.876  67.748  1.00  0.00    -0.185 C  
HETATM   19  C   UNL     1      -8.671  14.228  68.432  1.00  0.00    -0.181 C  
HETATM   20  C   UNL     1      -7.589  14.440  69.494  1.00  0.00     0.083 C  
HETATM   21  C   UNL     1      -6.198  14.331  68.852  1.00  0.00    -0.089 C  
BRANCH  19  22
HETATM   22  O   UNL     1      -8.575  15.377  67.592  1.00  0.00    -0.159 OA 
BRANCH  22  23
HETATM   23  C   UNL     1      -9.731  16.183  67.344  1.00  0.00    -0.233 C  
BRANCH  23  24
HETATM   24  C   UNL     1     -10.639  15.379  66.411  1.00  0.00    -0.307 A  
HETATM   25  C   UNL     1     -10.247  15.059  65.097  1.00  0.00    -0.399 A  
HETATM   26  C   UNL     1     -11.078  14.311  64.260  1.00  0.00    -0.105 A  
HETATM   27  C   UNL     1     -11.896  14.941  66.852  1.00  0.00    -0.202 A  
HETATM   28  C   UNL     1     -12.317  13.873  64.722  1.00  0.00    -0.429 A  
HETATM   29  C   UNL     1     -12.727  14.192  66.015  1.00  0.00    -0.325 A  
ENDBRANCH  23  24
BRANCH  23  30
HETATM   30  C   UNL     1      -9.396  17.559  66.789  1.00  0.00    -0.275 A  
HETATM   31  C   UNL     1      -8.794  20.152  65.875  1.00  0.00    -0.100 A  
HETATM   32  C   UNL     1     -10.110  19.804  66.169  1.00  0.00    -0.600 A  
HETATM   33  C   UNL     1      -8.082  17.911  66.441  1.00  0.00    -0.296 A  
HETATM   34  C   UNL     1      -7.781  19.201  65.997  1.00  0.00    -0.267 A  
HETATM   35  C   UNL     1     -10.410  18.517  66.621  1.00  0.00    -0.442 A  
ENDBRANCH  23  30
ENDBRANCH  22  23
ENDBRANCH  19  22
ENDBRANCH  15  16
ENDBRANCH  14  15
ENDBRANCH  13  14
ENDBRANCH  11  13
ENDBRANCH   8  11
ENDBRANCH   2   5
TORSDOF 10
ENDMDL
MODEL      202
REMARK 921   NORMALIZED FREE ENERGY PREDICTED BY IDOCK:   -3.24 KCAL/MOL
REMARK 922        TOTAL FREE ENERGY PREDICTED BY IDOCK:   -8.06 KCAL/MOL
REMARK 923 INTER-LIGAND FREE ENERGY PREDICTED BY IDOCK:   -6.64 KCAL/MOL
REMARK 924 INTRA-LIGAND FREE ENERGY PREDICTED BY IDOCK:   -1.42 KCAL/MOL
REMARK 927      BINDING AFFINITY PREDICTED BY RF-SCORE:    0.00 PKD
ROOT
HETATM    1  C   UNL     1     -11.151  15.086  64.517  1.00  0.00    -0.248 C  
HETATM    2  C   UNL     1     -11.597  13.650  64.867  1.00  0.00    -0.360 C  
HETATM    3  C   UNL     1     -11.888  12.919  63.538  1.00  0.00    -0.605 C  
HETATM    4  C   UNL     1     -12.907  13.759  65.677  1.00  0.00    -0.456 C  
ENDROOT
BRANCH   2   5
HETATM    5  C   UNL     1     -10.544  12.868  65.663  1.00  0.00    -0.295 A  
HETATM    6  C   UNL     1      -9.576  13.494  66.462  1.00  0.00    -0.284 A  
HETATM    7  C   UNL     1      -8.611  12.753  67.159  1.00  0.00    -0.197 A  
HETATM    8  C   UNL     1      -8.588  11.360  67.065  1.00  0.00    -0.157 A  
HETATM    9  C   UNL     1     -10.512  11.462  65.591  1.00  0.00    -0.316 A  
HETATM   10  C   UNL     1      -9.551  10.720  66.280  1.00  0.00    -0.234 A  
BRANCH   8  11
HETATM   11  C   UNL     1      -7.533  10.606  67.801  1.00  0.00    -0.091 C  
HETATM   12  O   UNL     1      -6.832   9.798  67.195  1.00  0.00    -0.081 OA 
BRANCH  11  13
HETATM   13  C   UNL     1      -7.373  10.879  69.283  1.00  0.00    -0.125 C  
BRANCH  13  14
HETATM   14  C   UNL     1      -7.847   9.705  70.135  1.00  0.00    -0.185 C  
BRANCH  14  15
HETATM   15  C   UNL     1      -9.366   9.695  70.322  1.00  0.00    -0.242 C  
BRANCH  15  16
HETATM   16  N   UNL     1     -10.078   8.544  69.745  1.00  0.00    -0.192 NA 
HETATM   17  C   UNL     1      -9.259   7.624  68.941  1.00  0.00    -0.139 C  
HETATM   18  C   UNL     1      -8.351   6.679  69.739  1.00  0.00    -0.132 C  
HETATM   19  C   UNL     1      -9.082   5.959  70.879  1.00  0.00    -0.149 C  
HETATM   20  C   UNL     1      -9.848   6.997  71.704  1.00  0.00    -0.169 C  
HETATM   21  C   UNL     1     -10.793   7.794  70.793  1.00  0.00    -0.239 C  
BRANCH  19  22
HETATM   22  O   UNL     1     -10.076   5.014  70.484  1.00  0.00    -0.224 OA 
BRANCH  22  23
HETATM   23  C   UNL     1      -9.745   3.627  70.379  1.00  0.00    -0.131 C  
BRANCH  23  24
HETATM   24  C   UNL     1      -8.554   3.384  71.307  1.00  0.00    -0.105 A  
HETATM   25  C   UNL     1      -8.731   3.121  72.680  1.00  0.00    -0.093 A  
HETATM   26  C   UNL     1      -7.637   2.884  73.515  1.00  0.00    -0.051 A  
HETATM   27  C   UNL     1      -7.245   3.421  70.804  1.00  0.00    -0.033 A  
HETATM   28  C   UNL     1      -6.346   2.911  72.991  1.00  0.00    -0.013 A  
HETATM   29  C   UNL     1      -6.151   3.183  71.639  1.00  0.00    -0.014 A  
ENDBRANCH  23  24
BRANCH  23  30
HETATM   30  C   UNL     1      -9.471   3.182  68.949  1.00  0.00    -0.183 A  
HETATM   31  C   UNL     1      -8.855   2.419  66.312  1.00  0.00    -0.131 A  
HETATM   32  C   UNL     1      -9.201   3.738  66.593  1.00  0.00    -0.188 A  
HETATM   33  C   UNL     1      -9.169   1.847  68.640  1.00  0.00    -0.220 A  
HETATM   34  C   UNL     1      -8.853   1.469  67.333  1.00  0.00    -0.136 A  
HETATM   35  C   UNL     1      -9.509   4.118  67.902  1.00  0.00    -0.219 A  
ENDBRANCH  23  30
ENDBRANCH  22  23
ENDBRANCH  19  22
ENDBRANCH  15  16
ENDBRANCH  14  15
ENDBRANCH  13  14
ENDBRANCH  11  13
ENDBRANCH   8  11
ENDBRANCH   2   5
TORSDOF 10
ENDMDL
MODEL      203
REMARK 921   NORMALIZED FREE ENERGY PREDICTED BY IDOCK:   -3.23 KCAL/MOL
REMARK 922        TOTAL FREE ENERGY PREDICTED BY IDOCK:   -8.04 KCAL/MOL
REMARK 923 INTER-LIGAND FREE ENERGY PREDICTED BY IDOCK:   -7.97 KCAL/MOL
REMARK 924 INTRA-LIGAND FREE ENERGY PREDICTED BY IDOCK:   -0.07 KCAL/MOL
REMARK 927      BINDING AFFINITY PREDICTED BY RF-SCORE:    0.00 PKD
ROOT
HETATM    1  C   UNL     1     -12.319   7.964  71.293  1.00  0.00    -0.300 C  
HETATM    2  C   UNL     1     -10.840   7.795  70.884  1.00  0.00    -0.246 C  
HETATM    3  C   UNL     1     -10.508   6.288  70.963  1.00  0.00    -0.274 C  
HETATM    4  C   UNL     1      -9.985   8.553  71.922  1.00  0.00    -0.365 C  
ENDROOT
BRANCH   2   5
HETATM    5  C   UNL     1     -10.542   8.312  69.470  1.00  0.00    -0.216 A  
HETATM    6  C   UNL     1     -10.358   7.460  68.372  1.00  0.00    -0.224 A  
HETATM    7  C   UNL     1     -10.064   7.962  67.096  1.00  0.00    -0.328 A  
HETATM    8  C   UNL     1      -9.940   9.337  66.891  1.00  0.00    -0.298 A  
HETATM    9  C   UNL     1     -10.425   9.697  69.241  1.00  0.00    -0.232 A  
HETATM   10  C   UNL     1     -10.129  10.202  67.973  1.00  0.00    -0.186 A  
BRANCH   8  11
HETATM   11  C   UNL     1      -9.602   9.834  65.527  1.00  0.00    -0.282 C  
HETATM   12  O   UNL     1      -8.971   9.112  64.757  1.00  0.00    -0.194 OA 
BRANCH  11  13
HETATM   13  C   UNL     1     -10.062  11.229  65.149  1.00  0.00    -0.326 C  
BRANCH  13  14
HETATM   14  C   UNL     1     -11.533  11.255  64.744  1.00  0.00     0.044 C  
BRANCH  14  15
HETATM   15  C   UNL     1     -11.970  12.625  64.219  1.00  0.00    -0.408 C  
BRANCH  15  16
HETATM   16  N   UNL     1     -12.337  13.618  65.241  1.00  0.00    -0.436 NA 
HETATM   17  C   UNL     1     -11.359  13.813  66.324  1.00  0.00    -0.321 C  
HETATM   18  C   UNL     1     -10.118  14.634  65.953  1.00  0.00    -0.341 C  
HETATM   19  C   UNL     1     -10.455  15.946  65.233  1.00  0.00    -0.377 C  
HETATM   20  C   UNL     1     -11.417  15.641  64.082  1.00  0.00    -0.080 C  
HETATM   21  C   UNL     1     -12.658  14.914  64.617  1.00  0.00    -0.039 C  
BRANCH  19  22
HETATM   22  O   UNL     1     -11.134  16.929  66.014  1.00  0.00     0.070 OA 
BRANCH  22  23
HETATM   23  C   UNL     1     -10.466  17.562  67.108  1.00  0.00    -0.312 C  
BRANCH  23  24
HETATM   24  C   UNL     1      -9.168  18.153  66.553  1.00  0.00    -0.290 A  
HETATM   25  C   UNL     1      -8.047  17.344  66.283  1.00  0.00    -0.298 A  
HETATM   26  C   UNL     1      -6.873  17.893  65.762  1.00  0.00    -0.251 A  
HETATM   27  C   UNL     1      -9.069  19.529  66.301  1.00  0.00    -0.403 A  
HETATM   28  C   UNL     1      -6.800  19.260  65.504  1.00  0.00    -0.295 A  
HETATM   29  C   UNL     1      -7.895  20.077  65.778  1.00  0.00    -0.214 A  
ENDBRANCH  23  24
BRANCH  23  30
HETATM   30  C   UNL     1     -10.224  16.627  68.286  1.00  0.00    -0.281 A  
HETATM   31  C   UNL     1      -9.724  14.994  70.522  1.00  0.00     0.747 A  
HETATM   32  C   UNL     1      -8.678  15.366  69.682  1.00  0.00    -0.134 A  
HETATM   33  C   UNL     1     -11.275  16.203  69.114  1.00  0.00    -0.336 A  
HETATM   34  C   UNL     1     -11.026  15.401  70.230  1.00  0.00    -0.336 A  
HETATM   35  C   UNL     1      -8.925  16.175  68.570  1.00  0.00    -0.204 A  
ENDBRANCH  23  30
ENDBRANCH  22  23
ENDBRANCH  19  22
ENDBRANCH  15  16
ENDBRANCH  14  15
ENDBRANCH  13  14
ENDBRANCH  11  13
ENDBRANCH   8  11
ENDBRANCH   2   5
TORSDOF 10
ENDMDL
MODEL      204
REMARK 921   NORMALIZED FREE ENERGY PREDICTED BY IDOCK:   -3.11 KCAL/MOL
REMARK 922        TOTAL FREE ENERGY PREDICTED BY IDOCK:   -7.86 KCAL/MOL
REMARK 923 INTER-LIGAND FREE ENERGY PREDICTED BY IDOCK:   -5.96 KCAL/MOL
REMARK 924 INTRA-LIGAND FREE ENERGY PREDICTED BY IDOCK:   -1.90 KCAL/MOL
REMARK 927      BINDING AFFINITY PREDICTED BY RF-SCORE:    0.00 PKD
ROOT
HETATM    1  C   UNL     1     -11.521   6.813  69.961  1.00  0.00    -0.390 C  
HETATM    2  C   UNL     1     -10.703   8.122  69.904  1.00  0.00    -0.241 C  
HETATM    3  C   UNL     1     -10.328   8.368  68.425  1.00  0.00    -0.239 C  
HETATM    4  C   UNL     1      -9.411   7.893  70.717  1.00  0.00    -0.161 C  
ENDROOT
BRANCH   2   5
HETATM    5  C   UNL     1     -11.467   9.335  70.449  1.00  0.00    -0.255 A  
HETATM    6  C   UNL     1     -12.341   9.254  71.543  1.00  0.00    -0.439 A  
HETATM    7  C   UNL     1     -13.044  10.377  72.004  1.00  0.00    -0.521 A  
HETATM    8  C   UNL     1     -12.892  11.612  71.371  1.00  0.00    -0.461 A  
HETATM    9  C   UNL     1     -11.318  10.592  69.833  1.00  0.00    -0.386 A  
HETATM   10  C   UNL     1     -12.018  11.712  70.285  1.00  0.00    -0.445 A  
BRANCH   8  11
HETATM   11  C   UNL     1     -13.673  12.779  71.873  1.00  0.00    -0.120 C  
HETATM   12  O   UNL     1     -13.993  12.829  73.059  1.00  0.00    -0.040 OA 
BRANCH  11  13
HETATM   13  C   UNL     1     -14.039  13.863  70.879  1.00  0.00     0.599 C  
BRANCH  13  14
HETATM   14  C   UNL     1     -13.477  15.223  71.284  1.00  0.00    -0.591 C  
BRANCH  14  15
HETATM   15  C   UNL     1     -11.999  15.151  71.675  1.00  0.00    -0.369 C  
BRANCH  15  16
HETATM   16  N   UNL     1     -11.116  16.136  71.033  1.00  0.00    -0.231 NA 
HETATM   17  C   UNL     1      -9.679  15.818  71.056  1.00  0.00     1.913 C  
HETATM   18  C   UNL     1      -9.225  14.743  70.061  1.00  0.00     0.585 C  
HETATM   19  C   UNL     1      -9.743  14.981  68.637  1.00  0.00    -0.219 C  
HETATM   20  C   UNL     1     -11.252  15.233  68.699  1.00  0.00    -0.303 C  
HETATM   21  C   UNL     1     -11.547  16.402  69.649  1.00  0.00    -0.018 C  
BRANCH  19  22
HETATM   22  O   UNL     1      -9.218  16.126  67.966  1.00  0.00    -0.193 OA 
BRANCH  22  23
HETATM   23  C   UNL     1      -8.743  16.015  66.622  1.00  0.00    -0.274 C  
BRANCH  23  24
HETATM   24  C   UNL     1      -8.207  17.392  66.226  1.00  0.00    -0.288 A  
HETATM   25  C   UNL     1      -6.894  17.561  65.744  1.00  0.00    -0.084 A  
HETATM   26  C   UNL     1      -6.421  18.821  65.370  1.00  0.00    -0.308 A  
HETATM   27  C   UNL     1      -9.022  18.528  66.338  1.00  0.00    -0.276 A  
HETATM   28  C   UNL     1      -7.253  19.934  65.476  1.00  0.00    -0.305 A  
HETATM   29  C   UNL     1      -8.549  19.787  65.963  1.00  0.00    -0.292 A  
ENDBRANCH  23  24
BRANCH  23  30
HETATM   30  C   UNL     1      -9.798  15.499  65.653  1.00  0.00    -0.377 A  
HETATM   31  C   UNL     1     -11.803  14.489  63.957  1.00  0.00    -0.178 A  
HETATM   32  C   UNL     1     -10.825  13.637  64.464  1.00  0.00    -0.416 A  
HETATM   33  C   UNL     1     -10.762  16.352  65.094  1.00  0.00    -0.309 A  
HETATM   34  C   UNL     1     -11.764  15.849  64.260  1.00  0.00    -0.132 A  
HETATM   35  C   UNL     1      -9.827  14.138  65.304  1.00  0.00    -0.199 A  
ENDBRANCH  23  30
ENDBRANCH  22  23
ENDBRANCH  19  22
ENDBRANCH  15  16
ENDBRANCH  14  15
ENDBRANCH  13  14
ENDBRANCH  11  13
ENDBRANCH   8  11
ENDBRANCH   2   5
TORSDOF 10
ENDMDL
MODEL      205
REMARK 921   NORMALIZED FREE ENERGY PREDICTED BY IDOCK:   -3.11 KCAL/MOL
REMARK 922        TOTAL FREE ENERGY PREDICTED BY IDOCK:   -7.85 KCAL/MOL
REMARK 923 INTER-LIGAND FREE ENERGY PREDICTED BY IDOCK:   -6.45 KCAL/MOL
REMARK 924 INTRA-LIGAND FREE ENERGY PREDICTED BY IDOCK:   -1.41 KCAL/MOL
REMARK 927      BINDING AFFINITY PREDICTED BY RF-SCORE:    0.00 PKD
ROOT
HETATM    1  C   UNL     1     -11.643  15.413  68.086  1.00  0.00    -0.331 C  
HETATM    2  C   UNL     1     -11.073  14.804  66.787  1.00  0.00    -0.338 C  
HETATM    3  C   UNL     1     -10.909  15.954  65.770  1.00  0.00    -0.260 C  
HETATM    4  C   UNL     1     -12.118  13.803  66.250  1.00  0.00    -0.484 C  
ENDROOT
BRANCH   2   5
HETATM    5  C   UNL     1      -9.722  14.103  66.992  1.00  0.00    -0.258 A  
HETATM    6  C   UNL     1      -8.552  14.796  67.332  1.00  0.00    -0.210 A  
HETATM    7  C   UNL     1      -7.327  14.130  67.490  1.00  0.00    -0.193 A  
HETATM    8  C   UNL     1      -7.246  12.750  67.302  1.00  0.00    -0.088 A  
HETATM    9  C   UNL     1      -9.622  12.709  66.819  1.00  0.00    -0.241 A  
HETATM   10  C   UNL     1      -8.405  12.043  66.971  1.00  0.00    -0.178 A  
BRANCH   8  11
HETATM   11  C   UNL     1      -5.922  12.079  67.454  1.00  0.00    -0.130 C  
HETATM   12  O   UNL     1      -5.271  11.789  66.452  1.00  0.00    -0.302 OA 
BRANCH  11  13
HETATM   13  C   UNL     1      -5.437  11.784  68.859  1.00  0.00    -0.050 C  
BRANCH  13  14
HETATM   14  C   UNL     1      -5.808  10.373  69.307  1.00  0.00    -0.037 C  
BRANCH  14  15
HETATM   15  C   UNL     1      -7.136  10.331  70.066  1.00  0.00    -0.158 C  
BRANCH  15  16
HETATM   16  N   UNL     1      -7.216   9.362  71.170  1.00  0.00    -0.304 NA 
HETATM   17  C   UNL     1      -8.562   8.851  71.476  1.00  0.00    -0.135 C  
HETATM   18  C   UNL     1      -9.109   7.803  70.498  1.00  0.00    -0.154 C  
HETATM   19  C   UNL     1      -8.113   6.674  70.204  1.00  0.00    -0.124 C  
HETATM   20  C   UNL     1      -6.766   7.294  69.827  1.00  0.00    -0.044 C  
HETATM   21  C   UNL     1      -6.293   8.235  70.944  1.00  0.00    -0.037 C  
BRANCH  19  22
HETATM   22  O   UNL     1      -7.813   5.807  71.298  1.00  0.00    -0.106 OA 
BRANCH  22  23
HETATM   23  C   UNL     1      -8.072   4.405  71.193  1.00  0.00    -0.081 C  
BRANCH  23  24
HETATM   24  C   UNL     1      -8.234   4.094  69.704  1.00  0.00    -0.067 A  
HETATM   25  C   UNL     1      -7.176   3.556  68.945  1.00  0.00    -0.050 A  
HETATM   26  C   UNL     1      -7.341   3.262  67.589  1.00  0.00    -0.058 A  
HETATM   27  C   UNL     1      -9.453   4.343  69.057  1.00  0.00    -0.237 A  
HETATM   28  C   UNL     1      -8.565   3.503  66.970  1.00  0.00    -0.116 A  
HETATM   29  C   UNL     1      -9.617   4.047  67.702  1.00  0.00    -0.210 A  
ENDBRANCH  23  24
BRANCH  23  30
HETATM   30  C   UNL     1      -9.270   3.953  72.017  1.00  0.00    -0.173 A  
HETATM   31  C   UNL     1     -11.406   3.087  73.631  1.00  0.00    -0.242 A  
HETATM   32  C   UNL     1     -10.549   2.156  73.050  1.00  0.00    -0.245 A  
HETATM   33  C   UNL     1     -10.173   4.875  72.569  1.00  0.00    -0.248 A  
HETATM   34  C   UNL     1     -11.227   4.447  73.379  1.00  0.00    -0.386 A  
HETATM   35  C   UNL     1      -9.489   2.584  72.247  1.00  0.00    -0.169 A  
ENDBRANCH  23  30
ENDBRANCH  22  23
ENDBRANCH  19  22
ENDBRANCH  15  16
ENDBRANCH  14  15
ENDBRANCH  13  14
ENDBRANCH  11  13
ENDBRANCH   8  11
ENDBRANCH   2   5
TORSDOF 10
ENDMDL
MODEL      206
REMARK 921   NORMALIZED FREE ENERGY PREDICTED BY IDOCK:   -3.05 KCAL/MOL
REMARK 922        TOTAL FREE ENERGY PREDICTED BY IDOCK:   -7.76 KCAL/MOL
REMARK 923 INTER-LIGAND FREE ENERGY PREDICTED BY IDOCK:   -5.48 KCAL/MOL
REMARK 924 INTRA-LIGAND FREE ENERGY PREDICTED BY IDOCK:   -2.29 KCAL/MOL
REMARK 927      BINDING AFFINITY PREDICTED BY RF-SCORE:    0.00 PKD
ROOT
HETATM    1  C   UNL     1     -12.037  13.903  69.831  1.00  0.00    -0.406 C  
HETATM    2  C   UNL     1     -11.665  12.855  68.760  1.00  0.00    -0.363 C  
HETATM    3  C   UNL     1     -12.330  13.292  67.436  1.00  0.00    -0.082 C  
HETATM    4  C   UNL     1     -12.271  11.506  69.204  1.00  0.00    -0.221 C  
ENDROOT
BRANCH   2   5
HETATM    5  C   UNL     1     -10.151  12.716  68.553  1.00  0.00    -0.183 A  
HETATM    6  C   UNL     1      -9.455  11.526  68.811  1.00  0.00    -0.099 A  
HETATM    7  C   UNL     1      -8.066  11.438  68.635  1.00  0.00    -0.141 A  
HETATM    8  C   UNL     1      -7.338  12.546  68.200  1.00  0.00    -0.110 A  
HETATM    9  C   UNL     1      -9.401  13.820  68.103  1.00  0.00    -0.211 A  
HETATM   10  C   UNL     1      -8.018  13.738  67.930  1.00  0.00    -0.157 A  
BRANCH   8  11
HETATM   11  C   UNL     1      -5.860  12.423  68.047  1.00  0.00    -0.073 C  
HETATM   12  O   UNL     1      -5.126  12.722  68.987  1.00  0.00    -0.067 OA 
BRANCH  11  13
HETATM   13  C   UNL     1      -5.327  11.925  66.718  1.00  0.00    -0.051 C  
BRANCH  13  14
HETATM   14  C   UNL     1      -5.643  10.450  66.492  1.00  0.00    -0.057 C  
BRANCH  14  15
HETATM   15  C   UNL     1      -6.346  10.201  65.156  1.00  0.00    -0.121 C  
BRANCH  15  16
HETATM   16  N   UNL     1      -7.642   9.509  65.230  1.00  0.00    -0.107 NA 
HETATM   17  C   UNL     1      -8.218   9.092  63.941  1.00  0.00    -0.172 C  
HETATM   18  C   UNL     1      -7.579   7.853  63.302  1.00  0.00    -0.130 C  
HETATM   19  C   UNL     1      -7.429   6.679  64.278  1.00  0.00    -0.096 C  
HETATM   20  C   UNL     1      -6.759   7.186  65.557  1.00  0.00    -0.052 C  
HETATM   21  C   UNL     1      -7.566   8.354  66.142  1.00  0.00    -0.089 C  
BRANCH  19  22
HETATM   22  O   UNL     1      -8.646   6.082  64.726  1.00  0.00    -0.083 OA 
BRANCH  22  23
HETATM   23  C   UNL     1      -8.610   4.925  65.566  1.00  0.00    -0.135 C  
BRANCH  23  24
HETATM   24  C   UNL     1      -9.124   3.753  64.728  1.00  0.00    -0.139 A  
HETATM   25  C   UNL     1      -8.298   2.658  64.407  1.00  0.00    -0.086 A  
HETATM   26  C   UNL     1      -8.783   1.586  63.654  1.00  0.00    -0.080 A  
HETATM   27  C   UNL     1     -10.445   3.746  64.255  1.00  0.00    -0.252 A  
HETATM   28  C   UNL     1     -10.103   1.593  63.207  1.00  0.00    -0.120 A  
HETATM   29  C   UNL     1     -10.930   2.673  63.503  1.00  0.00    -0.115 A  
ENDBRANCH  23  24
BRANCH  23  30
HETATM   30  C   UNL     1      -9.388   5.101  66.862  1.00  0.00    -0.129 A  
HETATM   31  C   UNL     1     -10.723   5.467  69.312  1.00  0.00    -0.288 A  
HETATM   32  C   UNL     1      -9.820   4.418  69.160  1.00  0.00    -0.198 A  
HETATM   33  C   UNL     1     -10.338   6.123  67.017  1.00  0.00    -0.295 A  
HETATM   34  C   UNL     1     -10.993   6.312  68.236  1.00  0.00    -0.408 A  
HETATM   35  C   UNL     1      -9.158   4.233  67.944  1.00  0.00    -0.161 A  
ENDBRANCH  23  30
ENDBRANCH  22  23
ENDBRANCH  19  22
ENDBRANCH  15  16
ENDBRANCH  14  15
ENDBRANCH  13  14
ENDBRANCH  11  13
ENDBRANCH   8  11
ENDBRANCH   2   5
TORSDOF 10
ENDMDL
MODEL      207
REMARK 921   NORMALIZED FREE ENERGY PREDICTED BY IDOCK:   -3.04 KCAL/MOL
REMARK 922        TOTAL FREE ENERGY PREDICTED BY IDOCK:   -7.74 KCAL/MOL
REMARK 923 INTER-LIGAND FREE ENERGY PREDICTED BY IDOCK:   -5.81 KCAL/MOL
REMARK 924 INTRA-LIGAND FREE ENERGY PREDICTED BY IDOCK:   -1.94 KCAL/MOL
REMARK 927      BINDING AFFINITY PREDICTED BY RF-SCORE:    0.00 PKD
ROOT
HETATM    1  C   UNL     1     -11.809   9.544  71.842  1.00  0.00    -0.349 C  
HETATM    2  C   UNL     1     -12.784  10.459  71.069  1.00  0.00    -0.490 C  
HETATM    3  C   UNL     1     -13.310  11.518  72.063  1.00  0.00    -0.397 C  
HETATM    4  C   UNL     1     -13.965   9.582  70.600  1.00  0.00     0.436 C  
ENDROOT
BRANCH   2   5
HETATM    5  C   UNL     1     -12.131  11.159  69.870  1.00  0.00    -0.418 A  
HETATM    6  C   UNL     1     -11.768  12.513  69.885  1.00  0.00    -0.327 A  
HETATM    7  C   UNL     1     -11.194  13.130  68.764  1.00  0.00    -0.323 A  
HETATM    8  C   UNL     1     -10.977  12.403  67.593  1.00  0.00    -0.276 A  
HETATM    9  C   UNL     1     -11.893  10.439  68.683  1.00  0.00     0.052 A  
HETATM   10  C   UNL     1     -11.326  11.049  67.563  1.00  0.00    -0.332 A  
BRANCH   8  11
HETATM   11  C   UNL     1     -10.388  13.097  66.413  1.00  0.00    -0.287 C  
HETATM   12  O   UNL     1     -11.128  13.662  65.609  1.00  0.00    -0.293 OA 
BRANCH  11  13
HETATM   13  C   UNL     1      -8.880  13.074  66.259  1.00  0.00     0.177 C  
BRANCH  13  14
HETATM   14  C   UNL     1      -8.203  12.300  67.386  1.00  0.00    -0.178 C  
BRANCH  14  15
HETATM   15  C   UNL     1      -6.865  11.693  66.956  1.00  0.00    -0.144 C  
BRANCH  15  16
HETATM   16  N   UNL     1      -6.842  10.230  66.802  1.00  0.00    -0.084 NA 
HETATM   17  C   UNL     1      -5.775   9.527  67.532  1.00  0.00    -0.041 C  
HETATM   18  C   UNL     1      -5.995   9.377  69.042  1.00  0.00    -0.042 C  
HETATM   19  C   UNL     1      -7.389   8.846  69.399  1.00  0.00    -0.075 C  
HETATM   20  C   UNL     1      -8.437   9.677  68.655  1.00  0.00    -0.119 C  
HETATM   21  C   UNL     1      -8.152   9.648  67.147  1.00  0.00    -0.110 C  
BRANCH  19  22
HETATM   22  O   UNL     1      -7.661   7.499  69.011  1.00  0.00    -0.103 OA 
BRANCH  22  23
HETATM   23  C   UNL     1      -9.012   7.040  68.912  1.00  0.00    -0.129 C  
BRANCH  23  24
HETATM   24  C   UNL     1      -9.387   6.471  70.282  1.00  0.00    -0.163 A  
HETATM   25  C   UNL     1     -10.727   6.413  70.714  1.00  0.00    -0.302 A  
HETATM   26  C   UNL     1     -11.059   5.877  71.960  1.00  0.00    -0.329 A  
HETATM   27  C   UNL     1      -8.392   5.992  71.146  1.00  0.00    -0.124 A  
HETATM   28  C   UNL     1     -10.056   5.393  72.797  1.00  0.00    -0.211 A  
HETATM   29  C   UNL     1      -8.725   5.455  72.392  1.00  0.00    -0.125 A  
ENDBRANCH  23  24
BRANCH  23  30
HETATM   30  C   UNL     1      -9.224   6.038  67.787  1.00  0.00    -0.107 A  
HETATM   31  C   UNL     1      -9.726   4.155  65.756  1.00  0.00    -0.205 A  
HETATM   32  C   UNL     1      -9.385   3.726  67.037  1.00  0.00    -0.219 A  
HETATM   33  C   UNL     1      -9.520   6.453  66.479  1.00  0.00    -0.189 A  
HETATM   34  C   UNL     1      -9.779   5.519  65.473  1.00  0.00     0.158 A  
HETATM   35  C   UNL     1      -9.133   4.660  68.045  1.00  0.00    -0.144 A  
ENDBRANCH  23  30
ENDBRANCH  22  23
ENDBRANCH  19  22
ENDBRANCH  15  16
ENDBRANCH  14  15
ENDBRANCH  13  14
ENDBRANCH  11  13
ENDBRANCH   8  11
ENDBRANCH   2   5
TORSDOF 10
ENDMDL
MODEL      208
REMARK 921   NORMALIZED FREE ENERGY PREDICTED BY IDOCK:   -2.96 KCAL/MOL
REMARK 922        TOTAL FREE ENERGY PREDICTED BY IDOCK:   -7.62 KCAL/MOL
REMARK 923 INTER-LIGAND FREE ENERGY PREDICTED BY IDOCK:   -7.05 KCAL/MOL
REMARK 924 INTRA-LIGAND FREE ENERGY PREDICTED BY IDOCK:   -0.57 KCAL/MOL
REMARK 927      BINDING AFFINITY PREDICTED BY RF-SCORE:    0.00 PKD
ROOT
HETATM    1  C   UNL     1     -10.945  16.991  65.185  1.00  0.00    -0.016 C  
HETATM    2  C   UNL     1     -10.244  16.685  66.526  1.00  0.00    -0.314 C  
HETATM    3  C   UNL     1     -10.502  17.882  67.467  1.00  0.00    -0.398 C  
HETATM    4  C   UNL     1      -8.729  16.587  66.243  1.00  0.00    -0.369 C  
ENDROOT
BRANCH   2   5
HETATM    5  C   UNL     1     -10.746  15.394  67.188  1.00  0.00    -0.314 A  
HETATM    6  C   UNL     1     -10.646  14.137  66.575  1.00  0.00    -0.282 A  
HETATM    7  C   UNL     1     -11.135  12.979  67.195  1.00  0.00    -0.304 A  
HETATM    8  C   UNL     1     -11.746  13.054  68.447  1.00  0.00    -0.386 A  
HETATM    9  C   UNL     1     -11.354  15.448  68.457  1.00  0.00    -0.342 A  
HETATM   10  C   UNL     1     -11.847  14.299  69.077  1.00  0.00    -0.370 A  
BRANCH   8  11
HETATM   11  C   UNL     1     -12.277  11.806  69.066  1.00  0.00    -0.071 C  
HETATM   12  O   UNL     1     -12.144  10.734  68.479  1.00  0.00    -0.493 OA 
BRANCH  11  13
HETATM   13  C   UNL     1     -12.966  11.922  70.412  1.00  0.00     0.264 C  
BRANCH  13  14
HETATM   14  C   UNL     1     -12.273  11.086  71.483  1.00  0.00    -0.191 C  
BRANCH  14  15
HETATM   15  C   UNL     1     -12.847   9.670  71.581  1.00  0.00    -0.405 C  
BRANCH  15  16
HETATM   16  N   UNL     1     -11.956   8.653  72.161  1.00  0.00    -0.367 NA 
HETATM   17  C   UNL     1     -12.381   7.255  71.984  1.00  0.00    -0.263 C  
HETATM   18  C   UNL     1     -12.160   6.670  70.583  1.00  0.00    -0.342 C  
HETATM   19  C   UNL     1     -10.747   6.920  70.041  1.00  0.00    -0.243 C  
HETATM   20  C   UNL     1     -10.416   8.406  70.199  1.00  0.00    -0.230 C  
HETATM   21  C   UNL     1     -10.578   8.824  71.667  1.00  0.00    -0.331 C  
BRANCH  19  22
HETATM   22  O   UNL     1      -9.689   6.245  70.722  1.00  0.00    -0.177 OA 
BRANCH  22  23
HETATM   23  C   UNL     1      -8.574   5.734  69.987  1.00  0.00    -0.128 C  
BRANCH  23  24
HETATM   24  C   UNL     1      -7.370   5.765  70.931  1.00  0.00    -0.085 A  
HETATM   25  C   UNL     1      -6.292   6.647  70.720  1.00  0.00    -0.047 A  
HETATM   26  C   UNL     1      -5.205   6.678  71.597  1.00  0.00    -0.027 A  
HETATM   27  C   UNL     1      -7.315   4.905  72.037  1.00  0.00    -0.081 A  
HETATM   28  C   UNL     1      -5.178   5.826  72.698  1.00  0.00    -0.018 A  
HETATM   29  C   UNL     1      -6.229   4.937  72.915  1.00  0.00    -0.037 A  
ENDBRANCH  23  24
BRANCH  23  30
HETATM   30  C   UNL     1      -8.317   6.483  68.688  1.00  0.00    -0.122 A  
HETATM   31  C   UNL     1      -7.958   7.910  66.289  1.00  0.00    -0.103 A  
HETATM   32  C   UNL     1      -8.725   6.747  66.301  1.00  0.00    -0.152 A  
HETATM   33  C   UNL     1      -7.507   7.629  68.648  1.00  0.00    -0.103 A  
HETATM   34  C   UNL     1      -7.338   8.343  67.460  1.00  0.00    -0.093 A  
HETATM   35  C   UNL     1      -8.902   6.036  67.491  1.00  0.00    -0.109 A  
ENDBRANCH  23  30
ENDBRANCH  22  23
ENDBRANCH  19  22
ENDBRANCH  15  16
ENDBRANCH  14  15
ENDBRANCH  13  14
ENDBRANCH  11  13
ENDBRANCH   8  11
ENDBRANCH   2   5
TORSDOF 10
ENDMDL
MODEL      209
REMARK 921   NORMALIZED FREE ENERGY PREDICTED BY IDOCK:   -2.88 KCAL/MOL
REMARK 922        TOTAL FREE ENERGY PREDICTED BY IDOCK:   -7.49 KCAL/MOL
REMARK 923 INTER-LIGAND FREE ENERGY PREDICTED BY IDOCK:   -4.89 KCAL/MOL
REMARK 924 INTRA-LIGAND FREE ENERGY PREDICTED BY IDOCK:   -2.60 KCAL/MOL
REMARK 927      BINDING AFFINITY PREDICTED BY RF-SCORE:    0.00 PKD
ROOT
HETATM    1  C   UNL     1     -11.379  12.077  68.205  1.00  0.00    -0.349 C  
HETATM    2  C   UNL     1     -10.068  11.295  68.438  1.00  0.00    -0.202 C  
HETATM    3  C   UNL     1     -10.341  10.259  69.551  1.00  0.00    -0.267 C  
HETATM    4  C   UNL     1      -9.012  12.303  68.939  1.00  0.00     0.269 C  
ENDROOT
BRANCH   2   5
HETATM    5  C   UNL     1      -9.563  10.576  67.179  1.00  0.00    -0.194 A  
HETATM    6  C   UNL     1     -10.248  10.615  65.956  1.00  0.00    -0.309 A  
HETATM    7  C   UNL     1      -9.773   9.928  64.829  1.00  0.00    -0.305 A  
HETATM    8  C   UNL     1      -8.599   9.177  64.905  1.00  0.00    -0.208 A  
HETATM    9  C   UNL     1      -8.375   9.823  67.232  1.00  0.00    -0.121 A  
HETATM   10  C   UNL     1      -7.900   9.135  66.115  1.00  0.00    -0.103 A  
BRANCH   8  11
HETATM   11  C   UNL     1      -8.136   8.440  63.694  1.00  0.00    -0.142 C  
HETATM   12  O   UNL     1      -8.493   8.820  62.580  1.00  0.00    -0.199 OA 
BRANCH  11  13
HETATM   13  C   UNL     1      -7.234   7.239  63.899  1.00  0.00    -0.077 C  
BRANCH  13  14
HETATM   14  C   UNL     1      -7.936   5.930  63.550  1.00  0.00    -0.113 C  
BRANCH  14  15
HETATM   15  C   UNL     1      -7.999   4.966  64.737  1.00  0.00    -0.098 C  
BRANCH  15  16
HETATM   16  N   UNL     1      -8.742   5.443  65.914  1.00  0.00    -0.140 NA 
HETATM   17  C   UNL     1      -9.839   4.574  66.372  1.00  0.00    -0.229 C  
HETATM   18  C   UNL     1      -9.408   3.316  67.137  1.00  0.00    -0.212 C  
HETATM   19  C   UNL     1      -8.392   3.603  68.249  1.00  0.00    -0.083 C  
HETATM   20  C   UNL     1      -7.255   4.448  67.669  1.00  0.00    -0.068 C  
HETATM   21  C   UNL     1      -7.825   5.724  67.032  1.00  0.00    -0.102 C  
BRANCH  19  22
HETATM   22  O   UNL     1      -8.876   4.367  69.353  1.00  0.00    -0.084 OA 
BRANCH  22  23
HETATM   23  C   UNL     1      -8.091   4.484  70.543  1.00  0.00    -0.067 C  
BRANCH  23  24
HETATM   24  C   UNL     1      -8.632   3.453  71.534  1.00  0.00    -0.107 A  
HETATM   25  C   UNL     1      -9.991   3.430  71.906  1.00  0.00    -0.210 A  
HETATM   26  C   UNL     1     -10.476   2.473  72.800  1.00  0.00    -0.225 A  
HETATM   27  C   UNL     1      -7.775   2.497  72.100  1.00  0.00    -0.052 A  
HETATM   28  C   UNL     1      -9.611   1.524  73.339  1.00  0.00    -0.093 A  
HETATM   29  C   UNL     1      -8.262   1.540  72.993  1.00  0.00    -0.052 A  
ENDBRANCH  23  24
BRANCH  23  30
HETATM   30  C   UNL     1      -8.078   5.894  71.117  1.00  0.00    -0.121 A  
HETATM   31  C   UNL     1      -7.931   8.498  72.174  1.00  0.00    -0.147 A  
HETATM   32  C   UNL     1      -7.601   7.403  72.969  1.00  0.00    -0.099 A  
HETATM   33  C   UNL     1      -8.455   7.005  70.346  1.00  0.00    -0.141 A  
HETATM   34  C   UNL     1      -8.372   8.298  70.867  1.00  0.00    -0.139 A  
HETATM   35  C   UNL     1      -7.675   6.109  72.446  1.00  0.00    -0.100 A  
ENDBRANCH  23  30
ENDBRANCH  22  23
ENDBRANCH  19  22
ENDBRANCH  15  16
ENDBRANCH  14  15
ENDBRANCH  13  14
ENDBRANCH  11  13
ENDBRANCH   8  11
ENDBRANCH   2   5
TORSDOF 10
ENDMDL
MODEL      210
REMARK 921   NORMALIZED FREE ENERGY PREDICTED BY IDOCK:   -2.88 KCAL/MOL
REMARK 922        TOTAL FREE ENERGY PREDICTED BY IDOCK:   -7.49 KCAL/MOL
REMARK 923 INTER-LIGAND FREE ENERGY PREDICTED BY IDOCK:   -6.62 KCAL/MOL
REMARK 924 INTRA-LIGAND FREE ENERGY PREDICTED BY IDOCK:   -0.87 KCAL/MOL
REMARK 927      BINDING AFFINITY PREDICTED BY RF-SCORE:    0.00 PKD
ROOT
HETATM    1  C   UNL     1     -10.489  10.675  63.265  1.00  0.00     0.137 C  
HETATM    2  C   UNL     1      -9.010  10.241  63.167  1.00  0.00    -0.249 C  
HETATM    3  C   UNL     1      -8.261  11.331  62.368  1.00  0.00    -0.118 C  
HETATM    4  C   UNL     1      -8.969   8.919  62.371  1.00  0.00    -0.032 C  
ENDROOT
BRANCH   2   5
HETATM    5  C   UNL     1      -8.342  10.059  64.536  1.00  0.00    -0.168 A  
HETATM    6  C   UNL     1      -6.960  10.187  64.731  1.00  0.00    -0.126 A  
HETATM    7  C   UNL     1      -6.377   9.992  65.991  1.00  0.00    -0.087 A  
HETATM    8  C   UNL     1      -7.168   9.653  67.090  1.00  0.00    -0.087 A  
HETATM    9  C   UNL     1      -9.126   9.729  65.659  1.00  0.00    -0.222 A  
HETATM   10  C   UNL     1      -8.550   9.529  66.915  1.00  0.00    -0.132 A  
BRANCH   8  11
HETATM   11  C   UNL     1      -6.511   9.428  68.409  1.00  0.00    -0.053 C  
HETATM   12  O   UNL     1      -6.860   8.478  69.106  1.00  0.00    -0.056 OA 
BRANCH  11  13
HETATM   13  C   UNL     1      -5.427  10.399  68.833  1.00  0.00    -0.041 C  
BRANCH  13  14
HETATM   14  C   UNL     1      -6.003  11.733  69.297  1.00  0.00    -0.077 C  
BRANCH  14  15
HETATM   15  C   UNL     1      -5.490  12.912  68.466  1.00  0.00    -0.061 C  
BRANCH  15  16
HETATM   16  N   UNL     1      -6.397  13.402  67.416  1.00  0.00    -0.298 NA 
HETATM   17  C   UNL     1      -7.722  12.763  67.366  1.00  0.00    -0.165 C  
HETATM   18  C   UNL     1      -8.712  13.210  68.449  1.00  0.00    -0.120 C  
HETATM   19  C   UNL     1      -8.808  14.734  68.587  1.00  0.00    -0.180 C  
HETATM   20  C   UNL     1      -7.394  15.307  68.705  1.00  0.00    -0.120 C  
HETATM   21  C   UNL     1      -6.550  14.866  67.501  1.00  0.00    -0.112 C  
BRANCH  19  22
HETATM   22  O   UNL     1      -9.382  15.426  67.478  1.00  0.00    -0.201 OA 
BRANCH  22  23
HETATM   23  C   UNL     1     -10.686  16.003  67.588  1.00  0.00    -0.320 C  
BRANCH  23  24
HETATM   24  C   UNL     1     -10.529  17.503  67.334  1.00  0.00    -0.342 A  
HETATM   25  C   UNL     1     -10.534  18.434  68.392  1.00  0.00    -0.280 A  
HETATM   26  C   UNL     1     -10.374  19.800  68.149  1.00  0.00    -0.561 A  
HETATM   27  C   UNL     1     -10.376  17.987  66.027  1.00  0.00    -0.333 A  
HETATM   28  C   UNL     1     -10.209  20.259  66.844  1.00  0.00    -0.504 A  
HETATM   29  C   UNL     1     -10.215  19.354  65.785  1.00  0.00    -0.346 A  
ENDBRANCH  23  24
BRANCH  23  30
HETATM   30  C   UNL     1     -11.363  15.704  68.918  1.00  0.00    -0.341 A  
HETATM   31  C   UNL     1     -12.576  15.034  71.367  1.00  0.00    -0.406 A  
HETATM   32  C   UNL     1     -13.122  14.577  70.171  1.00  0.00     0.094 A  
HETATM   33  C   UNL     1     -10.854  16.197  70.130  1.00  0.00    -0.328 A  
HETATM   34  C   UNL     1     -11.450  15.856  71.347  1.00  0.00    -0.484 A  
HETATM   35  C   UNL     1     -12.523  14.911  68.954  1.00  0.00     0.105 A  
ENDBRANCH  23  30
ENDBRANCH  22  23
ENDBRANCH  19  22
ENDBRANCH  15  16
ENDBRANCH  14  15
ENDBRANCH  13  14
ENDBRANCH  11  13
ENDBRANCH   8  11
ENDBRANCH   2   5
TORSDOF 10
ENDMDL
MODEL      211
REMARK 921   NORMALIZED FREE ENERGY PREDICTED BY IDOCK:   -2.69 KCAL/MOL
REMARK 922        TOTAL FREE ENERGY PREDICTED BY IDOCK:   -7.19 KCAL/MOL
REMARK 923 INTER-LIGAND FREE ENERGY PREDICTED BY IDOCK:   -5.11 KCAL/MOL
REMARK 924 INTRA-LIGAND FREE ENERGY PREDICTED BY IDOCK:   -2.08 KCAL/MOL
REMARK 927      BINDING AFFINITY PREDICTED BY RF-SCORE:    0.00 PKD
ROOT
HETATM    1  C   UNL     1     -11.705  10.152  70.908  1.00  0.00    -0.468 C  
HETATM    2  C   UNL     1     -10.490   9.311  70.462  1.00  0.00    -0.312 C  
HETATM    3  C   UNL     1     -11.008   8.233  69.485  1.00  0.00    -0.051 C  
HETATM    4  C   UNL     1      -9.923   8.617  71.720  1.00  0.00    -0.371 C  
ENDROOT
BRANCH   2   5
HETATM    5  C   UNL     1      -9.399  10.144  69.777  1.00  0.00    -0.183 A  
HETATM    6  C   UNL     1      -8.045  10.062  70.132  1.00  0.00    -0.099 A  
HETATM    7  C   UNL     1      -7.073  10.855  69.503  1.00  0.00    -0.123 A  
HETATM    8  C   UNL     1      -7.440  11.758  68.504  1.00  0.00    -0.110 A  
HETATM    9  C   UNL     1      -9.746  11.052  68.758  1.00  0.00    -0.199 A  
HETATM   10  C   UNL     1      -8.784  11.845  68.131  1.00  0.00    -0.173 A  
BRANCH   8  11
HETATM   11  C   UNL     1      -6.384  12.602  67.874  1.00  0.00    -0.111 C  
HETATM   12  O   UNL     1      -6.380  13.815  68.072  1.00  0.00    -0.109 OA 
BRANCH  11  13
HETATM   13  C   UNL     1      -5.351  11.910  67.006  1.00  0.00    -0.112 C  
BRANCH  13  14
HETATM   14  C   UNL     1      -5.486  10.391  67.057  1.00  0.00    -0.042 C  
BRANCH  14  15
HETATM   15  C   UNL     1      -6.286   9.836  65.876  1.00  0.00    -0.080 C  
BRANCH  15  16
HETATM   16  N   UNL     1      -7.468   9.031  66.221  1.00  0.00    -0.091 NA 
HETATM   17  C   UNL     1      -8.545   9.014  65.218  1.00  0.00    -0.174 C  
HETATM   18  C   UNL     1      -8.288   8.134  63.988  1.00  0.00    -0.008 C  
HETATM   19  C   UNL     1      -7.806   6.723  64.345  1.00  0.00    -0.113 C  
HETATM   20  C   UNL     1      -6.643   6.837  65.334  1.00  0.00    -0.050 C  
HETATM   21  C   UNL     1      -7.078   7.651  66.560  1.00  0.00    -0.075 C  
BRANCH  19  22
HETATM   22  O   UNL     1      -8.756   5.889  65.007  1.00  0.00    -0.114 OA 
BRANCH  22  23
HETATM   23  C   UNL     1      -8.354   4.622  65.535  1.00  0.00    -0.118 C  
BRANCH  23  24
HETATM   24  C   UNL     1      -8.923   3.552  64.600  1.00  0.00    -0.127 A  
HETATM   25  C   UNL     1      -8.150   2.448  64.188  1.00  0.00    -0.081 A  
HETATM   26  C   UNL     1      -8.686   1.469  63.347  1.00  0.00    -0.076 A  
HETATM   27  C   UNL     1     -10.240   3.652  64.129  1.00  0.00    -0.232 A  
HETATM   28  C   UNL     1     -10.001   1.580  62.902  1.00  0.00    -0.100 A  
HETATM   29  C   UNL     1     -10.775   2.672  63.289  1.00  0.00    -0.231 A  
ENDBRANCH  23  24
BRANCH  23  30
HETATM   30  C   UNL     1      -8.774   4.414  66.983  1.00  0.00    -0.108 A  
HETATM   31  C   UNL     1      -9.664   4.001  69.620  1.00  0.00    -0.245 A  
HETATM   32  C   UNL     1     -10.065   5.135  68.919  1.00  0.00    -0.237 A  
HETATM   33  C   UNL     1      -8.340   3.302  67.722  1.00  0.00    -0.095 A  
HETATM   34  C   UNL     1      -8.790   3.091  69.028  1.00  0.00    -0.155 A  
HETATM   35  C   UNL     1      -9.622   5.342  67.610  1.00  0.00    -0.142 A  
ENDBRANCH  23  30
ENDBRANCH  22  23
ENDBRANCH  19  22
ENDBRANCH  15  16
ENDBRANCH  14  15
ENDBRANCH  13  14
ENDBRANCH  11  13
ENDBRANCH   8  11
ENDBRANCH   2   5
TORSDOF 10
ENDMDL
MODEL      212
REMARK 921   NORMALIZED FREE ENERGY PREDICTED BY IDOCK:   -2.66 KCAL/MOL
REMARK 922        TOTAL FREE ENERGY PREDICTED BY IDOCK:   -7.15 KCAL/MOL
REMARK 923 INTER-LIGAND FREE ENERGY PREDICTED BY IDOCK:   -6.74 KCAL/MOL
REMARK 924 INTRA-LIGAND FREE ENERGY PREDICTED BY IDOCK:   -0.41 KCAL/MOL
REMARK 927      BINDING AFFINITY PREDICTED BY RF-SCORE:    0.00 PKD
ROOT
HETATM    1  C   UNL     1     -12.131  12.224  63.666  1.00  0.00    -0.648 C  
HETATM    2  C   UNL     1     -11.021  12.135  64.735  1.00  0.00    -0.356 C  
HETATM    3  C   UNL     1     -11.706  11.866  66.093  1.00  0.00    -0.217 C  
HETATM    4  C   UNL     1     -10.322  13.510  64.790  1.00  0.00    -0.405 C  
ENDROOT
BRANCH   2   5
HETATM    5  C   UNL     1      -9.996  11.029  64.449  1.00  0.00    -0.368 A  
HETATM    6  C   UNL     1      -9.785   9.947  65.315  1.00  0.00    -0.383 A  
HETATM    7  C   UNL     1      -8.824   8.963  65.037  1.00  0.00    -0.183 A  
HETATM    8  C   UNL     1      -8.043   9.046  63.883  1.00  0.00    -0.159 A  
HETATM    9  C   UNL     1      -9.208  11.088  63.284  1.00  0.00    -0.283 A  
HETATM   10  C   UNL     1      -8.248  10.114  63.005  1.00  0.00    -0.158 A  
BRANCH   8  11
HETATM   11  C   UNL     1      -7.015   7.997  63.632  1.00  0.00    -0.076 C  
HETATM   12  O   UNL     1      -6.940   7.474  62.522  1.00  0.00    -0.072 OA 
BRANCH  11  13
HETATM   13  C   UNL     1      -6.095   7.620  64.778  1.00  0.00    -0.038 C  
BRANCH  13  14
HETATM   14  C   UNL     1      -5.323   8.823  65.310  1.00  0.00    -0.038 C  
BRANCH  14  15
HETATM   15  C   UNL     1      -5.604   9.090  66.790  1.00  0.00    -0.040 C  
BRANCH  15  16
HETATM   16  N   UNL     1      -5.638   7.906  67.662  1.00  0.00    -0.036 NA 
HETATM   17  C   UNL     1      -5.488   8.168  69.103  1.00  0.00    -0.031 C  
HETATM   18  C   UNL     1      -6.729   8.736  69.803  1.00  0.00    -0.045 C  
HETATM   19  C   UNL     1      -8.011   7.956  69.486  1.00  0.00    -0.116 C  
HETATM   20  C   UNL     1      -8.123   7.791  67.969  1.00  0.00    -0.123 C  
HETATM   21  C   UNL     1      -6.858   7.115  67.422  1.00  0.00    -0.070 C  
BRANCH  19  22
HETATM   22  O   UNL     1      -8.072   6.623  69.994  1.00  0.00    -0.117 OA 
BRANCH  22  23
HETATM   23  C   UNL     1      -9.337   5.983  70.178  1.00  0.00    -0.154 C  
BRANCH  23  24
HETATM   24  C   UNL     1      -9.636   6.016  71.678  1.00  0.00    -0.170 A  
HETATM   25  C   UNL     1     -10.319   7.096  72.270  1.00  0.00    -0.226 A  
HETATM   26  C   UNL     1     -10.601   7.107  73.638  1.00  0.00    -0.375 A  
HETATM   27  C   UNL     1      -9.229   4.958  72.505  1.00  0.00    -0.148 A  
HETATM   28  C   UNL     1     -10.201   6.039  74.438  1.00  0.00    -0.309 A  
HETATM   29  C   UNL     1      -9.512   4.969  73.873  1.00  0.00    -0.129 A  
ENDBRANCH  23  24
BRANCH  23  30
HETATM   30  C   UNL     1      -9.385   4.574  69.605  1.00  0.00    -0.221 A  
HETATM   31  C   UNL     1      -9.362   1.987  68.496  1.00  0.00    -0.244 A  
HETATM   32  C   UNL     1      -9.525   3.098  67.672  1.00  0.00    -0.202 A  
HETATM   33  C   UNL     1      -9.271   3.441  70.426  1.00  0.00    -0.221 A  
HETATM   34  C   UNL     1      -9.249   2.158  69.875  1.00  0.00    -0.182 A  
HETATM   35  C   UNL     1      -9.539   4.382  68.221  1.00  0.00    -0.199 A  
ENDBRANCH  23  30
ENDBRANCH  22  23
ENDBRANCH  19  22
ENDBRANCH  15  16
ENDBRANCH  14  15
ENDBRANCH  13  14
ENDBRANCH  11  13
ENDBRANCH   8  11
ENDBRANCH   2   5
TORSDOF 10
ENDMDL
MODEL      213
REMARK 921   NORMALIZED FREE ENERGY PREDICTED BY IDOCK:   -2.59 KCAL/MOL
REMARK 922        TOTAL FREE ENERGY PREDICTED BY IDOCK:   -7.03 KCAL/MOL
REMARK 923 INTER-LIGAND FREE ENERGY PREDICTED BY IDOCK:   -6.11 KCAL/MOL
REMARK 924 INTRA-LIGAND FREE ENERGY PREDICTED BY IDOCK:   -0.92 KCAL/MOL
REMARK 927      BINDING AFFINITY PREDICTED BY RF-SCORE:    0.00 PKD
ROOT
HETATM    1  C   UNL     1     -10.852  16.725  65.114  1.00  0.00    -0.150 C  
HETATM    2  C   UNL     1     -10.149  16.432  66.457  1.00  0.00    -0.304 C  
HETATM    3  C   UNL     1     -10.285  17.696  67.334  1.00  0.00    -0.345 C  
HETATM    4  C   UNL     1      -8.655  16.190  66.153  1.00  0.00    -0.331 C  
ENDROOT
BRANCH   2   5
HETATM    5  C   UNL     1     -10.743  15.226  67.198  1.00  0.00    -0.316 A  
HETATM    6  C   UNL     1     -10.983  13.994  66.574  1.00  0.00    -0.306 A  
HETATM    7  C   UNL     1     -11.549  12.917  67.273  1.00  0.00    -0.416 A  
HETATM    8  C   UNL     1     -11.896  13.054  68.617  1.00  0.00    -0.353 A  
HETATM    9  C   UNL     1     -11.089  15.341  68.558  1.00  0.00    -0.284 A  
HETATM   10  C   UNL     1     -11.656  14.274  69.257  1.00  0.00    -0.350 A  
BRANCH   8  11
HETATM   11  C   UNL     1     -12.519  11.897  69.322  1.00  0.00     0.251 C  
HETATM   12  O   UNL     1     -12.660  10.830  68.727  1.00  0.00    -0.257 OA 
BRANCH  11  13
HETATM   13  C   UNL     1     -12.953  12.096  70.760  1.00  0.00     0.017 C  
BRANCH  13  14
HETATM   14  C   UNL     1     -12.073  11.320  71.736  1.00  0.00     0.556 C  
BRANCH  14  15
HETATM   15  C   UNL     1     -12.138   9.808  71.506  1.00  0.00    -0.409 C  
BRANCH  15  16
HETATM   16  N   UNL     1     -10.882   9.071  71.714  1.00  0.00    -0.357 NA 
HETATM   17  C   UNL     1     -10.980   7.605  71.629  1.00  0.00    -0.233 C  
HETATM   18  C   UNL     1     -11.096   7.032  70.211  1.00  0.00    -0.323 C  
HETATM   19  C   UNL     1     -10.052   7.601  69.242  1.00  0.00    -0.190 C  
HETATM   20  C   UNL     1     -10.068   9.128  69.344  1.00  0.00    -0.198 C  
HETATM   21  C   UNL     1      -9.833   9.557  70.800  1.00  0.00    -0.239 C  
BRANCH  19  22
HETATM   22  O   UNL     1      -8.696   7.241  69.505  1.00  0.00    -0.133 OA 
BRANCH  22  23
HETATM   23  C   UNL     1      -7.844   6.822  68.436  1.00  0.00    -0.114 C  
BRANCH  23  24
HETATM   24  C   UNL     1      -8.006   7.849  67.313  1.00  0.00    -0.118 A  
HETATM   25  C   UNL     1      -7.461   9.144  67.415  1.00  0.00    -0.084 A  
HETATM   26  C   UNL     1      -7.601  10.068  66.376  1.00  0.00    -0.104 A  
HETATM   27  C   UNL     1      -8.711   7.517  66.147  1.00  0.00    -0.174 A  
HETATM   28  C   UNL     1      -8.293   9.713  65.220  1.00  0.00    -0.139 A  
HETATM   29  C   UNL     1      -8.850   8.441  65.108  1.00  0.00    -0.075 A  
ENDBRANCH  23  24
BRANCH  23  30
HETATM   30  C   UNL     1      -8.121   5.400  67.969  1.00  0.00    -0.096 A  
HETATM   31  C   UNL     1      -8.675   2.817  67.001  1.00  0.00    -0.132 A  
HETATM   32  C   UNL     1      -9.718   3.653  67.393  1.00  0.00    -0.106 A  
HETATM   33  C   UNL     1      -7.080   4.526  67.617  1.00  0.00    -0.065 A  
HETATM   34  C   UNL     1      -7.355   3.248  67.127  1.00  0.00    -0.059 A  
HETATM   35  C   UNL     1      -9.444   4.935  67.876  1.00  0.00    -0.172 A  
ENDBRANCH  23  30
ENDBRANCH  22  23
ENDBRANCH  19  22
ENDBRANCH  15  16
ENDBRANCH  14  15
ENDBRANCH  13  14
ENDBRANCH  11  13
ENDBRANCH   8  11
ENDBRANCH   2   5
TORSDOF 10
ENDMDL
MODEL      214
REMARK 921   NORMALIZED FREE ENERGY PREDICTED BY IDOCK:   -2.59 KCAL/MOL
REMARK 922        TOTAL FREE ENERGY PREDICTED BY IDOCK:   -7.03 KCAL/MOL
REMARK 923 INTER-LIGAND FREE ENERGY PREDICTED BY IDOCK:   -7.28 KCAL/MOL
REMARK 924 INTRA-LIGAND FREE ENERGY PREDICTED BY IDOCK:    0.25 KCAL/MOL
REMARK 927      BINDING AFFINITY PREDICTED BY RF-SCORE:    0.00 PKD
ROOT
HETATM    1  C   UNL     1     -11.498   6.343  69.483  1.00  0.00    -0.412 C  
HETATM    2  C   UNL     1     -10.087   6.509  70.088  1.00  0.00    -0.204 C  
HETATM    3  C   UNL     1      -9.419   5.116  70.091  1.00  0.00    -0.229 C  
HETATM    4  C   UNL     1     -10.263   6.984  71.546  1.00  0.00    -0.211 C  
ENDROOT
BRANCH   2   5
HETATM    5  C   UNL     1      -9.209   7.498  69.309  1.00  0.00    -0.144 A  
HETATM    6  C   UNL     1      -8.512   7.141  68.146  1.00  0.00    -0.123 A  
HETATM    7  C   UNL     1      -7.699   8.062  67.469  1.00  0.00    -0.106 A  
HETATM    8  C   UNL     1      -7.559   9.365  67.948  1.00  0.00    -0.087 A  
HETATM    9  C   UNL     1      -9.065   8.820  69.770  1.00  0.00    -0.151 A  
HETATM   10  C   UNL     1      -8.255   9.739  69.101  1.00  0.00    -0.130 A  
BRANCH   8  11
HETATM   11  C   UNL     1      -6.667  10.310  67.216  1.00  0.00    -0.073 C  
HETATM   12  O   UNL     1      -6.630  10.280  65.988  1.00  0.00    -0.093 OA 
BRANCH  11  13
HETATM   13  C   UNL     1      -5.837  11.277  68.037  1.00  0.00    -0.042 C  
BRANCH  13  14
HETATM   14  C   UNL     1      -5.953  12.709  67.523  1.00  0.00    -0.151 C  
BRANCH  14  15
HETATM   15  C   UNL     1      -5.236  13.714  68.427  1.00  0.00    -0.098 C  
BRANCH  15  16
HETATM   16  N   UNL     1      -5.908  15.010  68.608  1.00  0.00    -0.086 NA 
HETATM   17  C   UNL     1      -6.680  15.496  67.453  1.00  0.00    -0.166 C  
HETATM   18  C   UNL     1      -8.034  14.811  67.228  1.00  0.00    -0.232 C  
HETATM   19  C   UNL     1      -8.886  14.724  68.501  1.00  0.00    -0.176 C  
HETATM   20  C   UNL     1      -8.027  14.145  69.628  1.00  0.00     0.533 C  
HETATM   21  C   UNL     1      -6.761  14.993  69.809  1.00  0.00    -0.180 C  
BRANCH  19  22
HETATM   22  O   UNL     1      -9.361  15.967  69.018  1.00  0.00    -0.213 OA 
BRANCH  22  23
HETATM   23  C   UNL     1     -10.233  16.785  68.233  1.00  0.00    -0.295 C  
BRANCH  23  24
HETATM   24  C   UNL     1     -10.864  15.873  67.178  1.00  0.00    -0.267 A  
HETATM   25  C   UNL     1     -11.794  14.876  67.529  1.00  0.00    -0.256 A  
HETATM   26  C   UNL     1     -12.376  14.060  66.555  1.00  0.00    -0.442 A  
HETATM   27  C   UNL     1     -10.523  16.015  65.825  1.00  0.00    -0.391 A  
HETATM   28  C   UNL     1     -12.035  14.227  65.215  1.00  0.00    -0.389 A  
HETATM   29  C   UNL     1     -11.106  15.200  64.852  1.00  0.00    -0.425 A  
ENDBRANCH  23  24
BRANCH  23  30
HETATM   30  C   UNL     1      -9.534  17.990  67.619  1.00  0.00    -0.264 A  
HETATM   31  C   UNL     1      -8.321  20.292  66.548  1.00  0.00    -0.257 A  
HETATM   32  C   UNL     1      -9.579  19.895  66.102  1.00  0.00    -0.492 A  
HETATM   33  C   UNL     1      -8.246  18.376  68.021  1.00  0.00    -0.286 A  
HETATM   34  C   UNL     1      -7.647  19.525  67.497  1.00  0.00    -0.290 A  
HETATM   35  C   UNL     1     -10.182  18.751  66.631  1.00  0.00    -0.453 A  
ENDBRANCH  23  30
ENDBRANCH  22  23
ENDBRANCH  19  22
ENDBRANCH  15  16
ENDBRANCH  14  15
ENDBRANCH  13  14
ENDBRANCH  11  13
ENDBRANCH   8  11
ENDBRANCH   2   5
TORSDOF 10
ENDMDL
MODEL      215
REMARK 921   NORMALIZED FREE ENERGY PREDICTED BY IDOCK:   -2.56 KCAL/MOL
REMARK 922        TOTAL FREE ENERGY PREDICTED BY IDOCK:   -6.99 KCAL/MOL
REMARK 923 INTER-LIGAND FREE ENERGY PREDICTED BY IDOCK:   -5.38 KCAL/MOL
REMARK 924 INTRA-LIGAND FREE ENERGY PREDICTED BY IDOCK:   -1.61 KCAL/MOL
REMARK 927      BINDING AFFINITY PREDICTED BY RF-SCORE:    0.00 PKD
ROOT
HETATM    1  C   UNL     1     -11.593  13.230  68.053  1.00  0.00    -0.371 C  
HETATM    2  C   UNL     1     -10.282  12.425  68.191  1.00  0.00    -0.225 C  
HETATM    3  C   UNL     1     -10.493  11.388  69.317  1.00  0.00    -0.104 C  
HETATM    4  C   UNL     1      -9.177  13.414  68.621  1.00  0.00     0.001 C  
ENDROOT
BRANCH   2   5
HETATM    5  C   UNL     1      -9.878  11.705  66.898  1.00  0.00    -0.218 A  
HETATM    6  C   UNL     1     -10.760  11.521  65.824  1.00  0.00    -0.325 A  
HETATM    7  C   UNL     1     -10.368  10.837  64.663  1.00  0.00    -0.394 A  
HETATM    8  C   UNL     1      -9.078  10.313  64.556  1.00  0.00    -0.270 A  
HETATM    9  C   UNL     1      -8.578  11.180  66.765  1.00  0.00    -0.157 A  
HETATM   10  C   UNL     1      -8.184  10.496  65.614  1.00  0.00    -0.161 A  
BRANCH   8  11
HETATM   11  C   UNL     1      -8.704   9.571  63.318  1.00  0.00    -0.227 C  
HETATM   12  O   UNL     1      -9.440   9.622  62.334  1.00  0.00    -0.216 OA 
BRANCH  11  13
HETATM   13  C   UNL     1      -7.412   8.778  63.333  1.00  0.00    -0.107 C  
BRANCH  13  14
HETATM   14  C   UNL     1      -7.625   7.329  62.905  1.00  0.00    -0.105 C  
BRANCH  14  15
HETATM   15  C   UNL     1      -7.202   6.332  63.986  1.00  0.00    -0.062 C  
BRANCH  15  16
HETATM   16  N   UNL     1      -8.180   6.091  65.058  1.00  0.00    -0.136 NA 
HETATM   17  C   UNL     1      -8.694   4.715  65.157  1.00  0.00    -0.140 C  
HETATM   18  C   UNL     1      -7.735   3.695  65.784  1.00  0.00    -0.085 C  
HETATM   19  C   UNL     1      -7.116   4.179  67.101  1.00  0.00    -0.067 C  
HETATM   20  C   UNL     1      -6.545   5.583  66.889  1.00  0.00    -0.056 C  
HETATM   21  C   UNL     1      -7.642   6.519  66.362  1.00  0.00    -0.090 C  
BRANCH  19  22
HETATM   22  O   UNL     1      -8.019   4.323  68.198  1.00  0.00    -0.078 OA 
BRANCH  22  23
HETATM   23  C   UNL     1      -7.768   5.303  69.209  1.00  0.00    -0.084 C  
BRANCH  23  24
HETATM   24  C   UNL     1      -6.948   4.614  70.300  1.00  0.00    -0.045 A  
HETATM   25  C   UNL     1      -6.752   3.219  70.305  1.00  0.00    -0.033 A  
HETATM   26  C   UNL     1      -5.987   2.603  71.298  1.00  0.00    -0.014 A  
HETATM   27  C   UNL     1      -6.368   5.367  71.332  1.00  0.00    -0.035 A  
HETATM   28  C   UNL     1      -5.408   3.371  72.305  1.00  0.00     0.000 A  
HETATM   29  C   UNL     1      -5.602   4.750  72.324  1.00  0.00    -0.008 A  
ENDBRANCH  23  24
BRANCH  23  30
HETATM   30  C   UNL     1      -9.038   5.945  69.751  1.00  0.00    -0.147 A  
HETATM   31  C   UNL     1     -11.423   7.018  70.788  1.00  0.00    -0.360 A  
HETATM   32  C   UNL     1     -11.445   6.285  69.604  1.00  0.00    -0.425 A  
HETATM   33  C   UNL     1      -9.026   6.728  70.916  1.00  0.00    -0.150 A  
HETATM   34  C   UNL     1     -10.211   7.252  71.436  1.00  0.00    -0.199 A  
HETATM   35  C   UNL     1     -10.261   5.753  69.087  1.00  0.00    -0.289 A  
ENDBRANCH  23  30
ENDBRANCH  22  23
ENDBRANCH  19  22
ENDBRANCH  15  16
ENDBRANCH  14  15
ENDBRANCH  13  14
ENDBRANCH  11  13
ENDBRANCH   8  11
ENDBRANCH   2   5
TORSDOF 10
ENDMDL
MODEL      216
REMARK 921   NORMALIZED FREE ENERGY PREDICTED BY IDOCK:   -2.55 KCAL/MOL
REMARK 922        TOTAL FREE ENERGY PREDICTED BY IDOCK:   -6.97 KCAL/MOL
REMARK 923 INTER-LIGAND FREE ENERGY PREDICTED BY IDOCK:   -6.71 KCAL/MOL
REMARK 924 INTRA-LIGAND FREE ENERGY PREDICTED BY IDOCK:   -0.26 KCAL/MOL
REMARK 927      BINDING AFFINITY PREDICTED BY RF-SCORE:    0.00 PKD
ROOT
HETATM    1  C   UNL     1     -10.775  16.982  69.503  1.00  0.00    -0.124 C  
HETATM    2  C   UNL     1     -10.085  17.170  68.135  1.00  0.00    -0.311 C  
HETATM    3  C   UNL     1      -8.586  17.428  68.405  1.00  0.00    -0.270 C  
HETATM    4  C   UNL     1     -10.700  18.423  67.476  1.00  0.00    -0.399 C  
ENDROOT
BRANCH   2   5
HETATM    5  C   UNL     1     -10.238  15.954  67.211  1.00  0.00    -0.278 A  
HETATM    6  C   UNL     1     -10.222  14.634  67.683  1.00  0.00    -0.232 A  
HETATM    7  C   UNL     1     -10.341  13.543  66.810  1.00  0.00    -0.264 A  
HETATM    8  C   UNL     1     -10.472  13.750  65.436  1.00  0.00    -0.342 A  
HETATM    9  C   UNL     1     -10.384  16.143  65.823  1.00  0.00    -0.398 A  
HETATM   10  C   UNL     1     -10.499  15.060  64.950  1.00  0.00    -0.367 A  
BRANCH   8  11
HETATM   11  C   UNL     1     -10.572  12.566  64.535  1.00  0.00    -0.336 C  
HETATM   12  O   UNL     1     -10.038  12.599  63.428  1.00  0.00    -0.367 OA 
BRANCH  11  13
HETATM   13  C   UNL     1     -11.338  11.358  65.038  1.00  0.00    -0.090 C  
BRANCH  13  14
HETATM   14  C   UNL     1     -10.407  10.258  65.538  1.00  0.00    -0.239 C  
BRANCH  14  15
HETATM   15  C   UNL     1      -8.941  10.697  65.559  1.00  0.00    -0.191 C  
BRANCH  15  16
HETATM   16  N   UNL     1      -7.945   9.616  65.516  1.00  0.00    -0.112 NA 
HETATM   17  C   UNL     1      -6.988   9.583  66.633  1.00  0.00    -0.085 C  
HETATM   18  C   UNL     1      -7.538   9.041  67.958  1.00  0.00    -0.092 C  
HETATM   19  C   UNL     1      -8.292   7.714  67.801  1.00  0.00    -0.118 C  
HETATM   20  C   UNL     1      -9.312   7.860  66.669  1.00  0.00    -0.244 C  
HETATM   21  C   UNL     1      -8.603   8.304  65.381  1.00  0.00    -0.151 C  
BRANCH  19  22
HETATM   22  O   UNL     1      -7.500   6.588  67.423  1.00  0.00    -0.088 OA 
BRANCH  22  23
HETATM   23  C   UNL     1      -7.394   5.460  68.296  1.00  0.00    -0.072 C  
BRANCH  23  24
HETATM   24  C   UNL     1      -7.714   4.221  67.459  1.00  0.00    -0.084 A  
HETATM   25  C   UNL     1      -7.479   2.921  67.948  1.00  0.00    -0.057 A  
HETATM   26  C   UNL     1      -7.791   1.796  67.181  1.00  0.00    -0.065 A  
HETATM   27  C   UNL     1      -8.255   4.356  66.172  1.00  0.00    -0.102 A  
HETATM   28  C   UNL     1      -8.341   1.953  65.910  1.00  0.00    -0.095 A  
HETATM   29  C   UNL     1      -8.567   3.231  65.406  1.00  0.00    -0.112 A  
ENDBRANCH  23  24
BRANCH  23  30
HETATM   30  C   UNL     1      -8.275   5.574  69.532  1.00  0.00    -0.101 A  
HETATM   31  C   UNL     1      -9.950   5.888  71.771  1.00  0.00    -0.200 A  
HETATM   32  C   UNL     1      -8.836   6.707  71.614  1.00  0.00    -0.134 A  
HETATM   33  C   UNL     1      -9.374   4.724  69.732  1.00  0.00    -0.208 A  
HETATM   34  C   UNL     1     -10.212   4.886  70.838  1.00  0.00    -0.272 A  
HETATM   35  C   UNL     1      -8.002   6.551  70.504  1.00  0.00    -0.112 A  
ENDBRANCH  23  30
ENDBRANCH  22  23
ENDBRANCH  19  22
ENDBRANCH  15  16
ENDBRANCH  14  15
ENDBRANCH  13  14
ENDBRANCH  11  13
ENDBRANCH   8  11
ENDBRANCH   2   5
TORSDOF 10
ENDMDL
MODEL      217
REMARK 921   NORMALIZED FREE ENERGY PREDICTED BY IDOCK:   -2.46 KCAL/MOL
REMARK 922        TOTAL FREE ENERGY PREDICTED BY IDOCK:   -6.83 KCAL/MOL
REMARK 923 INTER-LIGAND FREE ENERGY PREDICTED BY IDOCK:   -5.96 KCAL/MOL
REMARK 924 INTRA-LIGAND FREE ENERGY PREDICTED BY IDOCK:   -0.87 KCAL/MOL
REMARK 927      BINDING AFFINITY PREDICTED BY RF-SCORE:    0.00 PKD
ROOT
HETATM    1  C   UNL     1     -11.136   6.326  69.787  1.00  0.00    -0.473 C  
HETATM    2  C   UNL     1     -10.479   7.690  69.485  1.00  0.00    -0.227 C  
HETATM    3  C   UNL     1     -10.485   7.877  67.951  1.00  0.00    -0.261 C  
HETATM    4  C   UNL     1      -9.017   7.616  69.975  1.00  0.00    -0.143 C  
ENDROOT
BRANCH   2   5
HETATM    5  C   UNL     1     -11.203   8.869  70.148  1.00  0.00    -0.175 A  
HETATM    6  C   UNL     1     -12.014   8.721  71.283  1.00  0.00    -0.353 A  
HETATM    7  C   UNL     1     -12.683   9.814  71.853  1.00  0.00    -0.501 A  
HETATM    8  C   UNL     1     -12.560  11.086  71.292  1.00  0.00    -0.517 A  
HETATM    9  C   UNL     1     -11.082  10.162  69.604  1.00  0.00    -0.308 A  
HETATM   10  C   UNL     1     -11.749  11.253  70.165  1.00  0.00    -0.429 A  
BRANCH   8  11
HETATM   11  C   UNL     1     -13.304  12.221  71.910  1.00  0.00    -0.329 C  
HETATM   12  O   UNL     1     -13.392  12.293  73.134  1.00  0.00     0.942 OA 
BRANCH  11  13
HETATM   13  C   UNL     1     -13.926  13.246  70.982  1.00  0.00     1.044 C  
BRANCH  13  14
HETATM   14  C   UNL     1     -13.933  14.642  71.597  1.00  0.00    -0.546 C  
BRANCH  14  15
HETATM   15  C   UNL     1     -12.521  15.179  71.844  1.00  0.00    -0.348 C  
BRANCH  15  16
HETATM   16  N   UNL     1     -12.047  16.202  70.898  1.00  0.00    -0.276 NA 
HETATM   17  C   UNL     1     -10.590  16.261  70.697  1.00  0.00     0.279 C  
HETATM   18  C   UNL     1     -10.001  15.153  69.815  1.00  0.00    -0.149 C  
HETATM   19  C   UNL     1     -10.761  14.962  68.497  1.00  0.00    -0.245 C  
HETATM   20  C   UNL     1     -12.256  14.839  68.805  1.00  0.00    -0.135 C  
HETATM   21  C   UNL     1     -12.728  16.066  69.598  1.00  0.00     0.701 C  
BRANCH  19  22
HETATM   22  O   UNL     1     -10.677  16.041  67.566  1.00  0.00    -0.312 OA 
BRANCH  22  23
HETATM   23  C   UNL     1      -9.916  15.894  66.364  1.00  0.00    -0.287 C  
BRANCH  23  24
HETATM   24  C   UNL     1     -10.013  14.423  65.956  1.00  0.00    -0.337 A  
HETATM   25  C   UNL     1      -9.068  13.473  66.393  1.00  0.00    -0.064 A  
HETATM   26  C   UNL     1      -9.176  12.130  66.026  1.00  0.00    -0.119 A  
HETATM   27  C   UNL     1     -11.056  13.985  65.128  1.00  0.00    -0.341 A  
HETATM   28  C   UNL     1     -10.229  11.714  65.214  1.00  0.00    -0.316 A  
HETATM   29  C   UNL     1     -11.164  12.641  64.762  1.00  0.00    -0.337 A  
ENDBRANCH  23  24
BRANCH  23  30
HETATM   30  C   UNL     1      -8.476  16.367  66.504  1.00  0.00    -0.336 A  
HETATM   31  C   UNL     1      -5.779  17.150  66.687  1.00  0.00    -0.221 A  
HETATM   32  C   UNL     1      -6.219  16.003  67.343  1.00  0.00    -0.191 A  
HETATM   33  C   UNL     1      -8.027  17.547  65.890  1.00  0.00    -0.071 A  
HETATM   34  C   UNL     1      -6.686  17.930  65.972  1.00  0.00    -0.330 A  
HETATM   35  C   UNL     1      -7.558  15.614  67.255  1.00  0.00    -0.247 A  
ENDBRANCH  23  30
ENDBRANCH  22  23
ENDBRANCH  19  22
ENDBRANCH  15  16
ENDBRANCH  14  15
ENDBRANCH  13  14
ENDBRANCH  11  13
ENDBRANCH   8  11
ENDBRANCH   2   5
TORSDOF 10
ENDMDL
MODEL      218
REMARK 921   NORMALIZED FREE ENERGY PREDICTED BY IDOCK:   -2.46 KCAL/MOL
REMARK 922        TOTAL FREE ENERGY PREDICTED BY IDOCK:   -6.82 KCAL/MOL
REMARK 923 INTER-LIGAND FREE ENERGY PREDICTED BY IDOCK:   -5.91 KCAL/MOL
REMARK 924 INTRA-LIGAND FREE ENERGY PREDICTED BY IDOCK:   -0.91 KCAL/MOL
REMARK 927      BINDING AFFINITY PREDICTED BY RF-SCORE:    0.00 PKD
ROOT
HETATM    1  C   UNL     1      -5.324   4.077  73.386  1.00  0.00    -0.003 C  
HETATM    2  C   UNL     1      -6.856   3.899  73.461  1.00  0.00    -0.049 C  
HETATM    3  C   UNL     1      -7.378   4.847  74.562  1.00  0.00    -0.085 C  
HETATM    4  C   UNL     1      -7.130   2.440  73.883  1.00  0.00    -0.032 C  
ENDROOT
BRANCH   2   5
HETATM    5  C   UNL     1      -7.565   4.211  72.135  1.00  0.00    -0.075 A  
HETATM    6  C   UNL     1      -8.300   3.253  71.424  1.00  0.00    -0.082 A  
HETATM    7  C   UNL     1      -8.917   3.562  70.203  1.00  0.00    -0.174 A  
HETATM    8  C   UNL     1      -8.804   4.843  69.660  1.00  0.00    -0.117 A  
HETATM    9  C   UNL     1      -7.472   5.501  71.578  1.00  0.00    -0.095 A  
HETATM   10  C   UNL     1      -8.081   5.813  70.362  1.00  0.00    -0.106 A  
BRANCH   8  11
HETATM   11  C   UNL     1      -9.453   5.130  68.349  1.00  0.00    -0.129 C  
HETATM   12  O   UNL     1     -10.021   4.224  67.743  1.00  0.00    -0.116 OA 
BRANCH  11  13
HETATM   13  C   UNL     1      -9.377   6.548  67.818  1.00  0.00    -0.118 C  
BRANCH  13  14
HETATM   14  C   UNL     1      -8.211   6.737  66.854  1.00  0.00    -0.113 C  
BRANCH  14  15
HETATM   15  C   UNL     1      -7.806   8.206  66.707  1.00  0.00    -0.095 C  
BRANCH  15  16
HETATM   16  N   UNL     1      -8.759   9.192  67.238  1.00  0.00    -0.117 NA 
HETATM   17  C   UNL     1      -8.298   9.963  68.403  1.00  0.00    -0.107 C  
HETATM   18  C   UNL     1      -7.291  11.080  68.100  1.00  0.00    -0.086 C  
HETATM   19  C   UNL     1      -7.725  11.986  66.940  1.00  0.00    -0.078 C  
HETATM   20  C   UNL     1      -8.118  11.106  65.751  1.00  0.00     0.029 C  
HETATM   21  C   UNL     1      -9.207  10.110  66.175  1.00  0.00    -0.159 C  
BRANCH  19  22
HETATM   22  O   UNL     1      -8.875  12.796  67.179  1.00  0.00    -0.189 OA 
BRANCH  22  23
HETATM   23  C   UNL     1      -9.305  13.739  66.193  1.00  0.00    -0.080 C  
BRANCH  23  24
HETATM   24  C   UNL     1      -9.562  15.058  66.924  1.00  0.00    -0.251 A  
HETATM   25  C   UNL     1      -8.634  16.116  66.882  1.00  0.00    -0.253 A  
HETATM   26  C   UNL     1      -8.887  17.322  67.540  1.00  0.00    -0.219 A  
HETATM   27  C   UNL     1     -10.742  15.241  67.660  1.00  0.00    -0.282 A  
HETATM   28  C   UNL     1     -10.072  17.489  68.254  1.00  0.00    -0.346 A  
HETATM   29  C   UNL     1     -10.995  16.448  68.317  1.00  0.00    -0.355 A  
ENDBRANCH  23  24
BRANCH  23  30
HETATM   30  C   UNL     1     -10.515  13.266  65.399  1.00  0.00    -0.306 A  
HETATM   31  C   UNL     1     -12.795  12.509  63.935  1.00  0.00    -0.318 A  
HETATM   32  C   UNL     1     -12.900  12.781  65.297  1.00  0.00    -0.140 A  
HETATM   33  C   UNL     1     -10.419  12.941  64.037  1.00  0.00    -0.395 A  
HETATM   34  C   UNL     1     -11.552  12.574  63.308  1.00  0.00    -0.445 A  
HETATM   35  C   UNL     1     -11.768  13.155  66.026  1.00  0.00    -0.424 A  
ENDBRANCH  23  30
ENDBRANCH  22  23
ENDBRANCH  19  22
ENDBRANCH  15  16
ENDBRANCH  14  15
ENDBRANCH  13  14
ENDBRANCH  11  13
ENDBRANCH   8  11
ENDBRANCH   2   5
TORSDOF 10
ENDMDL
MODEL      219
REMARK 921   NORMALIZED FREE ENERGY PREDICTED BY IDOCK:   -2.44 KCAL/MOL
REMARK 922        TOTAL FREE ENERGY PREDICTED BY IDOCK:   -6.79 KCAL/MOL
REMARK 923 INTER-LIGAND FREE ENERGY PREDICTED BY IDOCK:   -5.95 KCAL/MOL
REMARK 924 INTRA-LIGAND FREE ENERGY PREDICTED BY IDOCK:   -0.84 KCAL/MOL
REMARK 927      BINDING AFFINITY PREDICTED BY RF-SCORE:    0.00 PKD
ROOT
HETATM    1  C   UNL     1      -5.825   6.856  63.844  1.00  0.00    -0.032 C  
HETATM    2  C   UNL     1      -6.259   6.134  65.138  1.00  0.00    -0.033 C  
HETATM    3  C   UNL     1      -5.297   4.944  65.348  1.00  0.00    -0.013 C  
HETATM    4  C   UNL     1      -7.685   5.591  64.907  1.00  0.00    -0.094 C  
ENDROOT
BRANCH   2   5
HETATM    5  C   UNL     1      -6.229   7.042  66.375  1.00  0.00    -0.039 A  
HETATM    6  C   UNL     1      -6.258   8.442  66.290  1.00  0.00    -0.049 A  
HETATM    7  C   UNL     1      -6.206   9.246  67.438  1.00  0.00    -0.058 A  
HETATM    8  C   UNL     1      -6.115   8.664  68.703  1.00  0.00    -0.045 A  
HETATM    9  C   UNL     1      -6.150   6.474  67.661  1.00  0.00    -0.027 A  
HETATM   10  C   UNL     1      -6.094   7.269  68.806  1.00  0.00    -0.027 A  
BRANCH   8  11
HETATM   11  C   UNL     1      -6.037   9.550  69.900  1.00  0.00    -0.044 C  
HETATM   12  O   UNL     1      -5.680   9.081  70.979  1.00  0.00    -0.035 OA 
BRANCH  11  13
HETATM   13  C   UNL     1      -6.407  11.009  69.724  1.00  0.00    -0.124 C  
BRANCH  13  14
HETATM   14  C   UNL     1      -5.203  11.861  69.334  1.00  0.00    -0.057 C  
BRANCH  14  15
HETATM   15  C   UNL     1      -5.192  13.217  70.045  1.00  0.00    -0.093 C  
BRANCH  15  16
HETATM   16  N   UNL     1      -5.567  14.377  69.223  1.00  0.00    -0.088 NA 
HETATM   17  C   UNL     1      -5.877  14.089  67.813  1.00  0.00    -0.081 C  
HETATM   18  C   UNL     1      -7.246  13.448  67.556  1.00  0.00    -0.163 C  
HETATM   19  C   UNL     1      -8.396  14.174  68.266  1.00  0.00    -0.157 C  
HETATM   20  C   UNL     1      -8.020  14.368  69.737  1.00  0.00     0.437 C  
HETATM   21  C   UNL     1      -6.683  15.116  69.840  1.00  0.00    -0.165 C  
BRANCH  19  22
HETATM   22  O   UNL     1      -8.686  15.490  67.796  1.00  0.00    -0.164 OA 
BRANCH  22  23
HETATM   23  C   UNL     1     -10.043  15.906  67.620  1.00  0.00    -0.242 C  
BRANCH  23  24
HETATM   24  C   UNL     1     -10.024  17.427  67.462  1.00  0.00    -0.298 A  
HETATM   25  C   UNL     1      -9.564  18.269  68.493  1.00  0.00    -0.358 A  
HETATM   26  C   UNL     1      -9.535  19.656  68.331  1.00  0.00    -0.452 A  
HETATM   27  C   UNL     1     -10.470  18.021  66.272  1.00  0.00    -0.340 A  
HETATM   28  C   UNL     1      -9.970  20.225  67.136  1.00  0.00    -0.593 A  
HETATM   29  C   UNL     1     -10.441  19.408  66.111  1.00  0.00    -0.600 A  
ENDBRANCH  23  24
BRANCH  23  30
HETATM   30  C   UNL     1     -10.962  15.448  68.744  1.00  0.00    -0.264 A  
HETATM   31  C   UNL     1     -12.736  14.695  70.795  1.00  0.00    -0.422 A  
HETATM   32  C   UNL     1     -11.933  15.823  70.946  1.00  0.00    -0.453 A  
HETATM   33  C   UNL     1     -11.742  14.286  68.629  1.00  0.00    -0.380 A  
HETATM   34  C   UNL     1     -12.630  13.918  69.642  1.00  0.00    -0.045 A  
HETATM   35  C   UNL     1     -11.050  16.197  69.930  1.00  0.00    -0.357 A  
ENDBRANCH  23  30
ENDBRANCH  22  23
ENDBRANCH  19  22
ENDBRANCH  15  16
ENDBRANCH  14  15
ENDBRANCH  13  14
ENDBRANCH  11  13
ENDBRANCH   8  11
ENDBRANCH   2   5
TORSDOF 10
ENDMDL
MODEL      220
REMARK 921   NORMALIZED FREE ENERGY PREDICTED BY IDOCK:   -2.42 KCAL/MOL
REMARK 922        TOTAL FREE ENERGY PREDICTED BY IDOCK:   -6.76 KCAL/MOL
REMARK 923 INTER-LIGAND FREE ENERGY PREDICTED BY IDOCK:   -6.03 KCAL/MOL
REMARK 924 INTRA-LIGAND FREE ENERGY PREDICTED BY IDOCK:   -0.74 KCAL/MOL
REMARK 927      BINDING AFFINITY PREDICTED BY RF-SCORE:    0.00 PKD
ROOT
HETATM    1  C   UNL     1     -14.397  15.253  72.114  1.00  0.00    -0.651 C  
HETATM    2  C   UNL     1     -12.886  15.195  72.428  1.00  0.00    -0.443 C  
HETATM    3  C   UNL     1     -12.644  13.942  73.299  1.00  0.00     0.378 C  
HETATM    4  C   UNL     1     -12.538  16.453  73.252  1.00  0.00    -0.444 C  
ENDROOT
BRANCH   2   5
HETATM    5  C   UNL     1     -12.011  15.123  71.170  1.00  0.00    -0.386 A  
HETATM    6  C   UNL     1     -10.625  15.335  71.195  1.00  0.00     0.176 A  
HETATM    7  C   UNL     1      -9.856  15.287  70.024  1.00  0.00    -0.072 A  
HETATM    8  C   UNL     1     -10.461  15.031  68.792  1.00  0.00    -0.238 A  
HETATM    9  C   UNL     1     -12.602  14.855  69.920  1.00  0.00    -0.205 A  
HETATM   10  C   UNL     1     -11.841  14.809  68.751  1.00  0.00    -0.330 A  
BRANCH   8  11
HETATM   11  C   UNL     1      -9.616  15.011  67.564  1.00  0.00    -0.203 C  
HETATM   12  O   UNL     1     -10.120  14.703  66.486  1.00  0.00    -0.263 OA 
BRANCH  11  13
HETATM   13  C   UNL     1      -8.152  15.378  67.708  1.00  0.00    -0.152 C  
BRANCH  13  14
HETATM   14  C   UNL     1      -7.545  14.817  68.991  1.00  0.00    -0.141 C  
BRANCH  14  15
HETATM   15  C   UNL     1      -6.712  13.557  68.740  1.00  0.00    -0.105 C  
BRANCH  15  16
HETATM   16  N   UNL     1      -7.101  12.750  67.573  1.00  0.00    -0.142 NA 
HETATM   17  C   UNL     1      -6.031  11.935  66.975  1.00  0.00    -0.153 C  
HETATM   18  C   UNL     1      -5.660  10.663  67.748  1.00  0.00    -0.043 C  
HETATM   19  C   UNL     1      -6.879   9.820  68.145  1.00  0.00    -0.069 C  
HETATM   20  C   UNL     1      -7.906  10.731  68.821  1.00  0.00    -0.129 C  
HETATM   21  C   UNL     1      -8.262  11.899  67.890  1.00  0.00    -0.150 C  
BRANCH  19  22
HETATM   22  O   UNL     1      -7.594   9.213  67.069  1.00  0.00    -0.090 OA 
BRANCH  22  23
HETATM   23  C   UNL     1      -7.631   7.789  66.945  1.00  0.00    -0.099 C  
BRANCH  23  24
HETATM   24  C   UNL     1      -7.629   7.475  65.448  1.00  0.00    -0.095 A  
HETATM   25  C   UNL     1      -7.310   6.190  64.966  1.00  0.00    -0.073 A  
HETATM   26  C   UNL     1      -7.327   5.911  63.597  1.00  0.00    -0.064 A  
HETATM   27  C   UNL     1      -7.949   8.472  64.515  1.00  0.00    -0.145 A  
HETATM   28  C   UNL     1      -7.662   6.912  62.688  1.00  0.00    -0.105 A  
HETATM   29  C   UNL     1      -7.968   8.191  63.147  1.00  0.00    -0.151 A  
ENDBRANCH  23  24
BRANCH  23  30
HETATM   30  C   UNL     1      -8.806   7.153  67.674  1.00  0.00    -0.119 A  
HETATM   31  C   UNL     1     -10.951   5.871  68.966  1.00  0.00    -0.359 A  
HETATM   32  C   UNL     1     -11.028   6.156  67.606  1.00  0.00    -0.400 A  
HETATM   33  C   UNL     1      -8.767   6.903  69.055  1.00  0.00    -0.131 A  
HETATM   34  C   UNL     1      -9.827   6.257  69.695  1.00  0.00    -0.192 A  
HETATM   35  C   UNL     1      -9.964   6.795  66.963  1.00  0.00    -0.234 A  
ENDBRANCH  23  30
ENDBRANCH  22  23
ENDBRANCH  19  22
ENDBRANCH  15  16
ENDBRANCH  14  15
ENDBRANCH  13  14
ENDBRANCH  11  13
ENDBRANCH   8  11
ENDBRANCH   2   5
TORSDOF 10
ENDMDL
MODEL      221
REMARK 921   NORMALIZED FREE ENERGY PREDICTED BY IDOCK:   -2.38 KCAL/MOL
REMARK 922        TOTAL FREE ENERGY PREDICTED BY IDOCK:   -6.70 KCAL/MOL
REMARK 923 INTER-LIGAND FREE ENERGY PREDICTED BY IDOCK:   -5.60 KCAL/MOL
REMARK 924 INTRA-LIGAND FREE ENERGY PREDICTED BY IDOCK:   -1.09 KCAL/MOL
REMARK 927      BINDING AFFINITY PREDICTED BY RF-SCORE:    0.00 PKD
ROOT
HETATM    1  C   UNL     1     -10.046  10.633  66.303  1.00  0.00    -0.291 C  
HETATM    2  C   UNL     1      -8.977   9.926  65.441  1.00  0.00    -0.220 C  
HETATM    3  C   UNL     1      -7.598  10.467  65.880  1.00  0.00    -0.146 C  
HETATM    4  C   UNL     1      -9.230  10.329  63.972  1.00  0.00    -0.311 C  
ENDROOT
BRANCH   2   5
HETATM    5  C   UNL     1      -9.000   8.399  65.585  1.00  0.00    -0.183 A  
HETATM    6  C   UNL     1      -8.017   7.568  65.027  1.00  0.00    -0.132 A  
HETATM    7  C   UNL     1      -8.078   6.173  65.156  1.00  0.00    -0.133 A  
HETATM    8  C   UNL     1      -9.135   5.574  65.844  1.00  0.00    -0.163 A  
HETATM    9  C   UNL     1     -10.051   7.776  66.286  1.00  0.00     0.025 A  
HETATM   10  C   UNL     1     -10.118   6.388  66.414  1.00  0.00    -0.078 A  
BRANCH   8  11
HETATM   11  C   UNL     1      -9.180   4.087  65.940  1.00  0.00    -0.152 C  
HETATM   12  O   UNL     1      -9.912   3.453  65.183  1.00  0.00    -0.097 OA 
BRANCH  11  13
HETATM   13  C   UNL     1      -8.307   3.419  66.985  1.00  0.00    -0.096 C  
BRANCH  13  14
HETATM   14  C   UNL     1      -9.057   2.329  67.743  1.00  0.00    -0.216 C  
BRANCH  14  15
HETATM   15  C   UNL     1      -8.693   2.296  69.230  1.00  0.00    -0.081 C  
BRANCH  15  16
HETATM   16  N   UNL     1      -9.728   2.780  70.156  1.00  0.00    -0.033 NA 
HETATM   17  C   UNL     1      -9.511   2.466  71.578  1.00  0.00    -0.136 C  
HETATM   18  C   UNL     1      -8.455   3.321  72.289  1.00  0.00    -0.085 C  
HETATM   19  C   UNL     1      -8.633   4.826  72.048  1.00  0.00    -0.120 C  
HETATM   20  C   UNL     1      -8.779   5.068  70.544  1.00  0.00    -0.132 C  
HETATM   21  C   UNL     1      -9.940   4.229  69.990  1.00  0.00    -0.126 C  
BRANCH  19  22
HETATM   22  O   UNL     1      -9.802   5.414  72.619  1.00  0.00    -0.157 OA 
BRANCH  22  23
HETATM   23  C   UNL     1      -9.715   6.673  73.291  1.00  0.00    -0.170 C  
BRANCH  23  24
HETATM   24  C   UNL     1     -10.345   7.714  72.364  1.00  0.00    -0.292 A  
HETATM   25  C   UNL     1     -11.501   8.428  72.734  1.00  0.00    -0.235 A  
HETATM   26  C   UNL     1     -12.058   9.388  71.886  1.00  0.00    -0.427 A  
HETATM   27  C   UNL     1      -9.776   7.982  71.110  1.00  0.00    -0.190 A  
HETATM   28  C   UNL     1     -11.468   9.648  70.651  1.00  0.00    -0.376 A  
HETATM   29  C   UNL     1     -10.332   8.942  70.262  1.00  0.00    -0.235 A  
ENDBRANCH  23  24
BRANCH  23  30
HETATM   30  C   UNL     1      -8.295   7.039  73.700  1.00  0.00    -0.146 A  
HETATM   31  C   UNL     1      -5.716   7.759  74.563  1.00  0.00    -0.077 A  
HETATM   32  C   UNL     1      -6.616   8.742  74.161  1.00  0.00    -0.065 A  
HETATM   33  C   UNL     1      -7.359   6.058  74.062  1.00  0.00    -0.088 A  
HETATM   34  C   UNL     1      -6.082   6.416  74.500  1.00  0.00    -0.065 A  
HETATM   35  C   UNL     1      -7.897   8.386  73.730  1.00  0.00    -0.176 A  
ENDBRANCH  23  30
ENDBRANCH  22  23
ENDBRANCH  19  22
ENDBRANCH  15  16
ENDBRANCH  14  15
ENDBRANCH  13  14
ENDBRANCH  11  13
ENDBRANCH   8  11
ENDBRANCH   2   5
TORSDOF 10
ENDMDL
MODEL      222
REMARK 921   NORMALIZED FREE ENERGY PREDICTED BY IDOCK:   -2.35 KCAL/MOL
REMARK 922        TOTAL FREE ENERGY PREDICTED BY IDOCK:   -6.65 KCAL/MOL
REMARK 923 INTER-LIGAND FREE ENERGY PREDICTED BY IDOCK:   -3.24 KCAL/MOL
REMARK 924 INTRA-LIGAND FREE ENERGY PREDICTED BY IDOCK:   -3.41 KCAL/MOL
REMARK 927      BINDING AFFINITY PREDICTED BY RF-SCORE:    0.00 PKD
ROOT
HETATM    1  C   UNL     1     -12.023  13.491  67.525  1.00  0.00    -0.385 C  
HETATM    2  C   UNL     1     -10.988  12.425  67.943  1.00  0.00    -0.266 C  
HETATM    3  C   UNL     1     -11.697  11.445  68.905  1.00  0.00    -0.409 C  
HETATM    4  C   UNL     1      -9.861  13.151  68.708  1.00  0.00     0.005 C  
ENDROOT
BRANCH   2   5
HETATM    5  C   UNL     1     -10.409  11.647  66.753  1.00  0.00    -0.257 A  
HETATM    6  C   UNL     1     -11.148  11.370  65.595  1.00  0.00    -0.207 A  
HETATM    7  C   UNL     1     -10.598  10.636  64.533  1.00  0.00    -0.145 A  
HETATM    8  C   UNL     1      -9.290  10.155  64.612  1.00  0.00    -0.334 A  
HETATM    9  C   UNL     1      -9.087  11.164  66.809  1.00  0.00    -0.174 A  
HETATM   10  C   UNL     1      -8.536  10.431  65.757  1.00  0.00    -0.172 A  
BRANCH   8  11
HETATM   11  C   UNL     1      -8.746   9.358  63.475  1.00  0.00    -0.204 C  
HETATM   12  O   UNL     1      -9.406   9.245  62.444  1.00  0.00    -0.129 OA 
BRANCH  11  13
HETATM   13  C   UNL     1      -7.384   8.717  63.650  1.00  0.00    -0.103 C  
BRANCH  13  14
HETATM   14  C   UNL     1      -7.413   7.222  63.351  1.00  0.00    -0.101 C  
BRANCH  14  15
HETATM   15  C   UNL     1      -6.914   6.380  64.527  1.00  0.00    -0.048 C  
BRANCH  15  16
HETATM   16  N   UNL     1      -6.824   7.073  65.822  1.00  0.00    -0.055 NA 
HETATM   17  C   UNL     1      -8.022   6.995  66.673  1.00  0.00    -0.108 C  
HETATM   18  C   UNL     1      -8.237   5.656  67.390  1.00  0.00    -0.101 C  
HETATM   19  C   UNL     1      -6.980   5.148  68.109  1.00  0.00    -0.061 C  
HETATM   20  C   UNL     1      -5.803   5.197  67.132  1.00  0.00    -0.025 C  
HETATM   21  C   UNL     1      -5.643   6.619  66.577  1.00  0.00    -0.014 C  
BRANCH  19  22
HETATM   22  O   UNL     1      -6.547   5.921  69.228  1.00  0.00    -0.046 OA 
BRANCH  22  23
HETATM   23  C   UNL     1      -7.478   6.288  70.250  1.00  0.00    -0.094 C  
BRANCH  23  24
HETATM   24  C   UNL     1      -7.573   7.814  70.235  1.00  0.00    -0.087 A  
HETATM   25  C   UNL     1      -6.584   8.608  69.621  1.00  0.00    -0.039 A  
HETATM   26  C   UNL     1      -6.690  10.001  69.600  1.00  0.00    -0.068 A  
HETATM   27  C   UNL     1      -8.660   8.462  70.840  1.00  0.00    -0.167 A  
HETATM   28  C   UNL     1      -7.786  10.623  70.195  1.00  0.00     0.426 A  
HETATM   29  C   UNL     1      -8.766   9.854  70.818  1.00  0.00     0.510 A  
ENDBRANCH  23  24
BRANCH  23  30
HETATM   30  C   UNL     1      -7.110   5.739  71.621  1.00  0.00    -0.081 A  
HETATM   31  C   UNL     1      -6.460   4.613  74.117  1.00  0.00    -0.061 A  
HETATM   32  C   UNL     1      -7.793   4.740  73.735  1.00  0.00    -0.098 A  
HETATM   33  C   UNL     1      -5.774   5.649  72.042  1.00  0.00    -0.022 A  
HETATM   34  C   UNL     1      -5.450   5.080  73.277  1.00  0.00    -0.013 A  
HETATM   35  C   UNL     1      -8.118   5.302  72.497  1.00  0.00    -0.103 A  
ENDBRANCH  23  30
ENDBRANCH  22  23
ENDBRANCH  19  22
ENDBRANCH  15  16
ENDBRANCH  14  15
ENDBRANCH  13  14
ENDBRANCH  11  13
ENDBRANCH   8  11
ENDBRANCH   2   5
TORSDOF 10
ENDMDL
MODEL      223
REMARK 921   NORMALIZED FREE ENERGY PREDICTED BY IDOCK:   -2.15 KCAL/MOL
REMARK 922        TOTAL FREE ENERGY PREDICTED BY IDOCK:   -6.33 KCAL/MOL
REMARK 923 INTER-LIGAND FREE ENERGY PREDICTED BY IDOCK:   -6.08 KCAL/MOL
REMARK 924 INTRA-LIGAND FREE ENERGY PREDICTED BY IDOCK:   -0.25 KCAL/MOL
REMARK 927      BINDING AFFINITY PREDICTED BY RF-SCORE:    0.00 PKD
ROOT
HETATM    1  C   UNL     1     -10.897   2.740  64.391  1.00  0.00     0.525 C  
HETATM    2  C   UNL     1      -9.979   3.425  63.356  1.00  0.00    -0.155 C  
HETATM    3  C   UNL     1     -10.878   4.277  62.434  1.00  0.00     0.010 C  
HETATM    4  C   UNL     1      -9.316   2.310  62.519  1.00  0.00    -0.090 C  
ENDROOT
BRANCH   2   5
HETATM    5  C   UNL     1      -8.908   4.317  63.997  1.00  0.00    -0.138 A  
HETATM    6  C   UNL     1      -7.645   4.520  63.423  1.00  0.00    -0.059 A  
HETATM    7  C   UNL     1      -6.678   5.323  64.045  1.00  0.00    -0.046 A  
HETATM    8  C   UNL     1      -6.953   5.938  65.267  1.00  0.00    -0.063 A  
HETATM    9  C   UNL     1      -9.171   4.956  65.224  1.00  0.00    -0.144 A  
HETATM   10  C   UNL     1      -8.211   5.753  65.849  1.00  0.00    -0.121 A  
BRANCH   8  11
HETATM   11  C   UNL     1      -5.893   6.765  65.912  1.00  0.00    -0.030 C  
HETATM   12  O   UNL     1      -5.148   7.449  65.213  1.00  0.00    -0.027 OA 
BRANCH  11  13
HETATM   13  C   UNL     1      -5.785   6.722  67.424  1.00  0.00    -0.013 C  
BRANCH  13  14
HETATM   14  C   UNL     1      -5.675   8.117  68.029  1.00  0.00    -0.035 C  
BRANCH  14  15
HETATM   15  C   UNL     1      -6.939   8.527  68.789  1.00  0.00    -0.063 C  
BRANCH  15  16
HETATM   16  N   UNL     1      -8.150   8.703  67.974  1.00  0.00    -0.110 NA 
HETATM   17  C   UNL     1      -9.428   8.476  68.669  1.00  0.00    -0.143 C  
HETATM   18  C   UNL     1      -9.878   9.604  69.607  1.00  0.00    -0.233 C  
HETATM   19  C   UNL     1      -9.809  10.992  68.959  1.00  0.00    -0.149 C  
HETATM   20  C   UNL     1      -8.428  11.170  68.324  1.00  0.00    -0.145 C  
HETATM   21  C   UNL     1      -8.159  10.030  67.331  1.00  0.00    -0.114 C  
BRANCH  19  22
HETATM   22  O   UNL     1     -10.726  11.227  67.890  1.00  0.00    -0.186 OA 
BRANCH  22  23
HETATM   23  C   UNL     1     -11.783  12.177  68.047  1.00  0.00    -0.344 C  
BRANCH  23  24
HETATM   24  C   UNL     1     -11.296  13.488  67.428  1.00  0.00    -0.338 A  
HETATM   25  C   UNL     1     -11.582  14.734  68.022  1.00  0.00    -0.367 A  
HETATM   26  C   UNL     1     -11.118  15.924  67.456  1.00  0.00    -0.235 A  
HETATM   27  C   UNL     1     -10.547  13.476  66.243  1.00  0.00    -0.288 A  
HETATM   28  C   UNL     1     -10.362  15.888  66.286  1.00  0.00    -0.324 A  
HETATM   29  C   UNL     1     -10.082  14.667  65.678  1.00  0.00    -0.389 A  
ENDBRANCH  23  24
BRANCH  23  30
HETATM   30  C   UNL     1     -12.230  12.344  69.492  1.00  0.00    -0.145 A  
HETATM   31  C   UNL     1     -13.161  12.702  72.123  1.00  0.00    -0.527 A  
HETATM   32  C   UNL     1     -12.747  13.800  71.375  1.00  0.00    -0.450 A  
HETATM   33  C   UNL     1     -12.604  11.242  70.278  1.00  0.00    -0.255 A  
HETATM   34  C   UNL     1     -13.076  11.420  71.581  1.00  0.00    -0.498 A  
HETATM   35  C   UNL     1     -12.282  13.624  70.069  1.00  0.00    -0.395 A  
ENDBRANCH  23  30
ENDBRANCH  22  23
ENDBRANCH  19  22
ENDBRANCH  15  16
ENDBRANCH  14  15
ENDBRANCH  13  14
ENDBRANCH  11  13
ENDBRANCH   8  11
ENDBRANCH   2   5
TORSDOF 10
ENDMDL
MODEL      224
REMARK 921   NORMALIZED FREE ENERGY PREDICTED BY IDOCK:   -2.11 KCAL/MOL
REMARK 922        TOTAL FREE ENERGY PREDICTED BY IDOCK:   -6.27 KCAL/MOL
REMARK 923 INTER-LIGAND FREE ENERGY PREDICTED BY IDOCK:   -5.26 KCAL/MOL
REMARK 924 INTRA-LIGAND FREE ENERGY PREDICTED BY IDOCK:   -1.01 KCAL/MOL
REMARK 927      BINDING AFFINITY PREDICTED BY RF-SCORE:    0.00 PKD
ROOT
HETATM    1  C   UNL     1     -12.234  14.768  69.675  1.00  0.00    -0.310 C  
HETATM    2  C   UNL     1     -11.694  13.816  68.586  1.00  0.00    -0.391 C  
HETATM    3  C   UNL     1     -12.188  14.347  67.222  1.00  0.00    -0.248 C  
HETATM    4  C   UNL     1     -12.318  12.426  68.839  1.00  0.00     0.209 C  
ENDROOT
BRANCH   2   5
HETATM    5  C   UNL     1     -10.163  13.718  68.575  1.00  0.00    -0.235 A  
HETATM    6  C   UNL     1      -9.480  12.500  68.452  1.00  0.00    -0.167 A  
HETATM    7  C   UNL     1      -8.079  12.440  68.469  1.00  0.00    -0.096 A  
HETATM    8  C   UNL     1      -7.326  13.606  68.618  1.00  0.00    -0.113 A  
HETATM    9  C   UNL     1      -9.385  14.884  68.712  1.00  0.00    -0.203 A  
HETATM   10  C   UNL     1      -7.991  14.830  68.733  1.00  0.00    -0.152 A  
BRANCH   8  11
HETATM   11  C   UNL     1      -5.839  13.502  68.656  1.00  0.00    -0.085 C  
HETATM   12  O   UNL     1      -5.233  13.854  69.666  1.00  0.00    -0.084 OA 
BRANCH  11  13
HETATM   13  C   UNL     1      -5.137  12.959  67.427  1.00  0.00     0.035 C  
BRANCH  13  14
HETATM   14  C   UNL     1      -5.127  11.434  67.402  1.00  0.00    -0.053 C  
BRANCH  14  15
HETATM   15  C   UNL     1      -5.573  10.868  66.052  1.00  0.00    -0.144 C  
BRANCH  15  16
HETATM   16  N   UNL     1      -6.842  10.124  66.053  1.00  0.00    -0.104 NA 
HETATM   17  C   UNL     1      -6.822   8.825  65.362  1.00  0.00    -0.072 C  
HETATM   18  C   UNL     1      -6.136   7.683  66.123  1.00  0.00    -0.038 C  
HETATM   19  C   UNL     1      -6.606   7.559  67.578  1.00  0.00    -0.062 C  
HETATM   20  C   UNL     1      -6.527   8.938  68.239  1.00  0.00    -0.059 C  
HETATM   21  C   UNL     1      -7.345   9.953  67.428  1.00  0.00    -0.090 C  
BRANCH  19  22
HETATM   22  O   UNL     1      -7.962   7.153  67.763  1.00  0.00    -0.111 OA 
BRANCH  22  23
HETATM   23  C   UNL     1      -8.352   6.483  68.964  1.00  0.00    -0.116 C  
BRANCH  23  24
HETATM   24  C   UNL     1      -8.708   5.047  68.575  1.00  0.00    -0.103 A  
HETATM   25  C   UNL     1      -9.130   4.720  67.271  1.00  0.00    -0.127 A  
HETATM   26  C   UNL     1      -9.436   3.402  66.923  1.00  0.00    -0.174 A  
HETATM   27  C   UNL     1      -8.620   4.015  69.521  1.00  0.00    -0.111 A  
HETATM   28  C   UNL     1      -9.329   2.390  67.874  1.00  0.00    -0.237 A  
HETATM   29  C   UNL     1      -8.926   2.697  69.172  1.00  0.00    -0.171 A  
ENDBRANCH  23  24
BRANCH  23  30
HETATM   30  C   UNL     1      -9.484   7.184  69.702  1.00  0.00    -0.152 A  
HETATM   31  C   UNL     1     -11.548   8.414  71.166  1.00  0.00    -0.317 A  
HETATM   32  C   UNL     1     -11.688   7.098  70.734  1.00  0.00    -0.363 A  
HETATM   33  C   UNL     1      -9.380   8.526  70.102  1.00  0.00    -0.164 A  
HETATM   34  C   UNL     1     -10.400   9.134  70.838  1.00  0.00    -0.349 A  
HETATM   35  C   UNL     1     -10.665   6.487  70.005  1.00  0.00    -0.302 A  
ENDBRANCH  23  30
ENDBRANCH  22  23
ENDBRANCH  19  22
ENDBRANCH  15  16
ENDBRANCH  14  15
ENDBRANCH  13  14
ENDBRANCH  11  13
ENDBRANCH   8  11
ENDBRANCH   2   5
TORSDOF 10
ENDMDL
MODEL      225
REMARK 921   NORMALIZED FREE ENERGY PREDICTED BY IDOCK:   -2.03 KCAL/MOL
REMARK 922        TOTAL FREE ENERGY PREDICTED BY IDOCK:   -6.14 KCAL/MOL
REMARK 923 INTER-LIGAND FREE ENERGY PREDICTED BY IDOCK:   -5.31 KCAL/MOL
REMARK 924 INTRA-LIGAND FREE ENERGY PREDICTED BY IDOCK:   -0.83 KCAL/MOL
REMARK 927      BINDING AFFINITY PREDICTED BY RF-SCORE:    0.00 PKD
ROOT
HETATM    1  C   UNL     1     -11.677  15.294  68.202  1.00  0.00    -0.297 C  
HETATM    2  C   UNL     1     -11.102  14.716  66.890  1.00  0.00    -0.333 C  
HETATM    3  C   UNL     1     -10.978  15.884  65.886  1.00  0.00    -0.151 C  
HETATM    4  C   UNL     1     -12.126  13.695  66.348  1.00  0.00    -0.478 C  
ENDROOT
BRANCH   2   5
HETATM    5  C   UNL     1      -9.732  14.049  67.074  1.00  0.00    -0.256 A  
HETATM    6  C   UNL     1      -8.573  14.770  67.395  1.00  0.00    -0.210 A  
HETATM    7  C   UNL     1      -7.330  14.135  67.534  1.00  0.00    -0.193 A  
HETATM    8  C   UNL     1      -7.219  12.757  67.346  1.00  0.00    -0.134 A  
HETATM    9  C   UNL     1      -9.601  12.658  66.901  1.00  0.00    -0.232 A  
HETATM   10  C   UNL     1      -8.366  12.021  67.035  1.00  0.00    -0.178 A  
BRANCH   8  11
HETATM   11  C   UNL     1      -5.877  12.118  67.478  1.00  0.00    -0.122 C  
HETATM   12  O   UNL     1      -5.360  11.587  66.497  1.00  0.00    -0.127 OA 
BRANCH  11  13
HETATM   13  C   UNL     1      -5.207  12.157  68.837  1.00  0.00    -0.054 C  
BRANCH  13  14
HETATM   14  C   UNL     1      -5.553  10.934  69.680  1.00  0.00    -0.042 C  
BRANCH  14  15
HETATM   15  C   UNL     1      -7.058  10.796  69.920  1.00  0.00    -0.093 C  
BRANCH  15  16
HETATM   16  N   UNL     1      -7.475   9.661  70.757  1.00  0.00    -0.303 NA 
HETATM   17  C   UNL     1      -8.923   9.398  70.803  1.00  0.00    -0.191 C  
HETATM   18  C   UNL     1      -9.510   8.716  69.562  1.00  0.00    -0.162 C  
HETATM   19  C   UNL     1      -8.711   7.485  69.114  1.00  0.00    -0.136 C  
HETATM   20  C   UNL     1      -7.231   7.866  69.024  1.00  0.00    -0.075 C  
HETATM   21  C   UNL     1      -6.756   8.434  70.369  1.00  0.00    -0.036 C  
BRANCH  19  22
HETATM   22  O   UNL     1      -8.738   6.368  70.003  1.00  0.00    -0.139 OA 
BRANCH  22  23
HETATM   23  C   UNL     1      -9.739   5.358  69.855  1.00  0.00    -0.184 C  
BRANCH  23  24
HETATM   24  C   UNL     1     -10.997   5.874  70.557  1.00  0.00    -0.362 A  
HETATM   25  C   UNL     1     -11.320   5.483  71.871  1.00  0.00    -0.141 A  
HETATM   26  C   UNL     1     -12.462   5.974  72.508  1.00  0.00     0.116 A  
HETATM   27  C   UNL     1     -11.864   6.757  69.897  1.00  0.00    -0.208 A  
HETATM   28  C   UNL     1     -13.302   6.862  71.839  1.00  0.00    -0.197 A  
HETATM   29  C   UNL     1     -13.006   7.248  70.534  1.00  0.00     0.308 A  
ENDBRANCH  23  24
BRANCH  23  30
HETATM   30  C   UNL     1      -9.299   3.996  70.373  1.00  0.00    -0.230 A  
HETATM   31  C   UNL     1      -8.577   1.484  71.416  1.00  0.00    -0.073 A  
HETATM   32  C   UNL     1      -8.288   2.645  72.130  1.00  0.00    -0.061 A  
HETATM   33  C   UNL     1      -9.538   2.820  69.645  1.00  0.00    -0.061 A  
HETATM   34  C   UNL     1      -9.188   1.572  70.167  1.00  0.00    -0.154 A  
HETATM   35  C   UNL     1      -8.645   3.893  71.612  1.00  0.00    -0.116 A  
ENDBRANCH  23  30
ENDBRANCH  22  23
ENDBRANCH  19  22
ENDBRANCH  15  16
ENDBRANCH  14  15
ENDBRANCH  13  14
ENDBRANCH  11  13
ENDBRANCH   8  11
ENDBRANCH   2   5
TORSDOF 10
ENDMDL
MODEL      226
REMARK 921   NORMALIZED FREE ENERGY PREDICTED BY IDOCK:   -1.84 KCAL/MOL
REMARK 922        TOTAL FREE ENERGY PREDICTED BY IDOCK:   -5.84 KCAL/MOL
REMARK 923 INTER-LIGAND FREE ENERGY PREDICTED BY IDOCK:   -5.25 KCAL/MOL
REMARK 924 INTRA-LIGAND FREE ENERGY PREDICTED BY IDOCK:   -0.59 KCAL/MOL
REMARK 927      BINDING AFFINITY PREDICTED BY RF-SCORE:    0.00 PKD
ROOT
HETATM    1  C   UNL     1      -7.532  15.156  70.306  1.00  0.00     0.391 C  
HETATM    2  C   UNL     1      -6.105  14.569  70.240  1.00  0.00    -0.170 C  
HETATM    3  C   UNL     1      -5.718  14.132  71.670  1.00  0.00    -0.201 C  
HETATM    4  C   UNL     1      -5.160  15.703  69.789  1.00  0.00    -0.099 C  
ENDROOT
BRANCH   2   5
HETATM    5  C   UNL     1      -5.990  13.371  69.288  1.00  0.00    -0.093 A  
HETATM    6  C   UNL     1      -5.978  12.042  69.736  1.00  0.00    -0.136 A  
HETATM    7  C   UNL     1      -5.848  10.969  68.843  1.00  0.00    -0.040 A  
HETATM    8  C   UNL     1      -5.718  11.203  67.474  1.00  0.00    -0.047 A  
HETATM    9  C   UNL     1      -5.870  13.586  67.901  1.00  0.00    -0.133 A  
HETATM   10  C   UNL     1      -5.736  12.522  67.009  1.00  0.00     0.119 A  
BRANCH   8  11
HETATM   11  C   UNL     1      -5.557  10.039  66.556  1.00  0.00    -0.046 C  
HETATM   12  O   UNL     1      -5.134   8.973  66.997  1.00  0.00    -0.034 OA 
BRANCH  11  13
HETATM   13  C   UNL     1      -5.930  10.231  65.099  1.00  0.00    -0.130 C  
BRANCH  13  14
HETATM   14  C   UNL     1      -7.117   9.363  64.693  1.00  0.00    -0.100 C  
BRANCH  14  15
HETATM   15  C   UNL     1      -8.177   9.271  65.793  1.00  0.00    -0.117 C  
BRANCH  15  16
HETATM   16  N   UNL     1      -8.646  10.553  66.342  1.00  0.00    -0.140 NA 
HETATM   17  C   UNL     1      -8.967  11.593  65.352  1.00  0.00     0.090 C  
HETATM   18  C   UNL     1     -10.296  11.410  64.609  1.00  0.00    -0.362 C  
HETATM   19  C   UNL     1     -11.476  11.116  65.545  1.00  0.00     0.342 C  
HETATM   20  C   UNL     1     -11.081   9.978  66.489  1.00  0.00     0.273 C  
HETATM   21  C   UNL     1      -9.795  10.346  67.242  1.00  0.00    -0.178 C  
BRANCH  19  22
HETATM   22  O   UNL     1     -11.863  12.181  66.413  1.00  0.00    -0.563 OA 
BRANCH  22  23
HETATM   23  C   UNL     1     -10.897  12.797  67.268  1.00  0.00    -0.251 C  
BRANCH  23  24
HETATM   24  C   UNL     1     -11.555  12.949  68.641  1.00  0.00    -0.353 A  
HETATM   25  C   UNL     1     -11.574  11.891  69.570  1.00  0.00    -0.394 A  
HETATM   26  C   UNL     1     -12.163  12.047  70.827  1.00  0.00    -0.382 A  
HETATM   27  C   UNL     1     -12.160  14.161  69.006  1.00  0.00    -0.348 A  
HETATM   28  C   UNL     1     -12.746  13.264  71.175  1.00  0.00    -0.404 A  
HETATM   29  C   UNL     1     -12.748  14.317  70.263  1.00  0.00    -0.305 A  
ENDBRANCH  23  24
BRANCH  23  30
HETATM   30  C   UNL     1     -10.368  14.117  66.725  1.00  0.00    -0.274 A  
HETATM   31  C   UNL     1      -9.296  16.495  65.669  1.00  0.00     0.057 A  
HETATM   32  C   UNL     1      -8.685  15.877  66.757  1.00  0.00    -0.303 A  
HETATM   33  C   UNL     1     -11.000  14.779  65.660  1.00  0.00    -0.345 A  
HETATM   34  C   UNL     1     -10.463  15.954  65.130  1.00  0.00    -0.363 A  
HETATM   35  C   UNL     1      -9.217  14.697  67.284  1.00  0.00    -0.212 A  
ENDBRANCH  23  30
ENDBRANCH  22  23
ENDBRANCH  19  22
ENDBRANCH  15  16
ENDBRANCH  14  15
ENDBRANCH  13  14
ENDBRANCH  11  13
ENDBRANCH   8  11
ENDBRANCH   2   5
TORSDOF 10
ENDMDL
MODEL      227
REMARK 921   NORMALIZED FREE ENERGY PREDICTED BY IDOCK:   -1.79 KCAL/MOL
REMARK 922        TOTAL FREE ENERGY PREDICTED BY IDOCK:   -5.76 KCAL/MOL
REMARK 923 INTER-LIGAND FREE ENERGY PREDICTED BY IDOCK:   -5.84 KCAL/MOL
REMARK 924 INTRA-LIGAND FREE ENERGY PREDICTED BY IDOCK:    0.07 KCAL/MOL
REMARK 927      BINDING AFFINITY PREDICTED BY RF-SCORE:    0.00 PKD
ROOT
HETATM    1  C   UNL     1      -5.874   3.793  73.437  1.00  0.00    -0.004 C  
HETATM    2  C   UNL     1      -7.264   3.126  73.357  1.00  0.00    -0.046 C  
HETATM    3  C   UNL     1      -8.243   3.999  74.172  1.00  0.00    -0.091 C  
HETATM    4  C   UNL     1      -7.149   1.740  74.027  1.00  0.00    -0.024 C  
ENDROOT
BRANCH   2   5
HETATM    5  C   UNL     1      -7.780   2.981  71.919  1.00  0.00    -0.053 A  
HETATM    6  C   UNL     1      -7.997   1.736  71.312  1.00  0.00    -0.040 A  
HETATM    7  C   UNL     1      -8.447   1.635  69.987  1.00  0.00    -0.079 A  
HETATM    8  C   UNL     1      -8.685   2.786  69.234  1.00  0.00    -0.134 A  
HETATM    9  C   UNL     1      -8.038   4.130  71.147  1.00  0.00    -0.072 A  
HETATM   10  C   UNL     1      -8.483   4.036  69.827  1.00  0.00    -0.089 A  
BRANCH   8  11
HETATM   11  C   UNL     1      -9.140   2.642  67.822  1.00  0.00    -0.187 C  
HETATM   12  O   UNL     1      -9.312   1.519  67.352  1.00  0.00    -0.109 OA 
BRANCH  11  13
HETATM   13  C   UNL     1      -9.372   3.908  67.021  1.00  0.00    -0.212 C  
BRANCH  13  14
HETATM   14  C   UNL     1      -8.115   4.356  66.283  1.00  0.00    -0.102 C  
BRANCH  14  15
HETATM   15  C   UNL     1      -7.935   5.876  66.305  1.00  0.00    -0.102 C  
BRANCH  15  16
HETATM   16  N   UNL     1      -9.125   6.670  65.961  1.00  0.00    -0.121 NA 
HETATM   17  C   UNL     1     -10.222   6.636  66.942  1.00  0.00    -0.220 C  
HETATM   18  C   UNL     1     -10.006   7.481  68.204  1.00  0.00    -0.198 C  
HETATM   19  C   UNL     1      -9.544   8.912  67.899  1.00  0.00    -0.148 C  
HETATM   20  C   UNL     1      -8.360   8.851  66.931  1.00  0.00    -0.112 C  
HETATM   21  C   UNL     1      -8.756   8.067  65.672  1.00  0.00    -0.125 C  
BRANCH  19  22
HETATM   22  O   UNL     1     -10.497   9.749  67.244  1.00  0.00    -0.238 OA 
BRANCH  22  23
HETATM   23  C   UNL     1     -11.263  10.692  67.999  1.00  0.00    -0.307 C  
BRANCH  23  24
HETATM   24  C   UNL     1     -10.513  12.023  67.935  1.00  0.00    -0.221 A  
HETATM   25  C   UNL     1     -11.089  13.217  68.410  1.00  0.00    -0.299 A  
HETATM   26  C   UNL     1     -10.388  14.424  68.362  1.00  0.00    -0.244 A  
HETATM   27  C   UNL     1      -9.219  12.082  67.395  1.00  0.00    -0.180 A  
HETATM   28  C   UNL     1      -9.099  14.458  67.835  1.00  0.00    -0.187 A  
HETATM   29  C   UNL     1      -8.518  13.289  67.348  1.00  0.00    -0.206 A  
ENDBRANCH  23  24
BRANCH  23  30
HETATM   30  C   UNL     1     -11.531  10.240  69.427  1.00  0.00    -0.248 A  
HETATM   31  C   UNL     1     -12.083   9.305  72.023  1.00  0.00    -0.406 A  
HETATM   32  C   UNL     1     -13.110   9.812  71.232  1.00  0.00    -0.465 A  
HETATM   33  C   UNL     1     -10.500   9.773  70.256  1.00  0.00    -0.345 A  
HETATM   34  C   UNL     1     -10.775   9.299  71.541  1.00  0.00    -0.425 A  
HETATM   35  C   UNL     1     -12.838  10.279  69.944  1.00  0.00     0.201 A  
ENDBRANCH  23  30
ENDBRANCH  22  23
ENDBRANCH  19  22
ENDBRANCH  15  16
ENDBRANCH  14  15
ENDBRANCH  13  14
ENDBRANCH  11  13
ENDBRANCH   8  11
ENDBRANCH   2   5
TORSDOF 10
ENDMDL
MODEL      228
REMARK 921   NORMALIZED FREE ENERGY PREDICTED BY IDOCK:   -1.78 KCAL/MOL
REMARK 922        TOTAL FREE ENERGY PREDICTED BY IDOCK:   -5.75 KCAL/MOL
REMARK 923 INTER-LIGAND FREE ENERGY PREDICTED BY IDOCK:   -5.44 KCAL/MOL
REMARK 924 INTRA-LIGAND FREE ENERGY PREDICTED BY IDOCK:   -0.32 KCAL/MOL
REMARK 927      BINDING AFFINITY PREDICTED BY RF-SCORE:    0.00 PKD
ROOT
HETATM    1  C   UNL     1      -9.794  16.445  69.654  1.00  0.00    -0.028 C  
HETATM    2  C   UNL     1      -9.514  16.463  68.135  1.00  0.00    -0.213 C  
HETATM    3  C   UNL     1      -8.108  17.071  67.932  1.00  0.00    -0.196 C  
HETATM    4  C   UNL     1     -10.561  17.391  67.484  1.00  0.00    -0.330 C  
ENDROOT
BRANCH   2   5
HETATM    5  C   UNL     1      -9.568  15.068  67.496  1.00  0.00    -0.203 A  
HETATM    6  C   UNL     1      -9.404  13.887  68.234  1.00  0.00    -0.209 A  
HETATM    7  C   UNL     1      -9.436  12.628  67.617  1.00  0.00    -0.189 A  
HETATM    8  C   UNL     1      -9.624  12.523  66.239  1.00  0.00    -0.246 A  
HETATM    9  C   UNL     1      -9.769  14.941  66.108  1.00  0.00    -0.333 A  
HETATM   10  C   UNL     1      -9.797  13.691  65.489  1.00  0.00    -0.175 A  
BRANCH   8  11
HETATM   11  C   UNL     1      -9.627  11.170  65.613  1.00  0.00    -0.224 C  
HETATM   12  O   UNL     1      -8.858  10.929  64.685  1.00  0.00    -0.171 OA 
BRANCH  11  13
HETATM   13  C   UNL     1     -10.595  10.140  66.162  1.00  0.00    -0.099 C  
BRANCH  13  14
HETATM   14  C   UNL     1      -9.921   9.188  67.144  1.00  0.00    -0.280 C  
BRANCH  14  15
HETATM   15  C   UNL     1      -8.428   9.483  67.313  1.00  0.00    -0.128 C  
BRANCH  15  16
HETATM   16  N   UNL     1      -7.570   8.321  67.588  1.00  0.00    -0.097 NA 
HETATM   17  C   UNL     1      -6.601   8.487  68.684  1.00  0.00    -0.055 C  
HETATM   18  C   UNL     1      -7.185   8.408  70.100  1.00  0.00    -0.050 C  
HETATM   19  C   UNL     1      -8.095   7.191  70.310  1.00  0.00    -0.118 C  
HETATM   20  C   UNL     1      -9.113   7.136  69.168  1.00  0.00    -0.137 C  
HETATM   21  C   UNL     1      -8.383   7.113  67.818  1.00  0.00    -0.118 C  
BRANCH  19  22
HETATM   22  O   UNL     1      -7.451   5.917  70.275  1.00  0.00    -0.084 OA 
BRANCH  22  23
HETATM   23  C   UNL     1      -7.833   4.895  71.198  1.00  0.00    -0.088 C  
BRANCH  23  24
HETATM   24  C   UNL     1      -8.295   3.697  70.366  1.00  0.00    -0.082 A  
HETATM   25  C   UNL     1      -9.107   2.686  70.917  1.00  0.00    -0.183 A  
HETATM   26  C   UNL     1      -9.536   1.606  70.143  1.00  0.00    -0.092 A  
HETATM   27  C   UNL     1      -7.913   3.579  69.022  1.00  0.00    -0.063 A  
HETATM   28  C   UNL     1      -9.157   1.516  68.805  1.00  0.00    -0.171 A  
HETATM   29  C   UNL     1      -8.343   2.499  68.248  1.00  0.00    -0.085 A  
ENDBRANCH  23  24
BRANCH  23  30
HETATM   30  C   UNL     1      -8.886   5.351  72.198  1.00  0.00    -0.133 A  
HETATM   31  C   UNL     1     -10.871   6.078  74.055  1.00  0.00     0.066 A  
HETATM   32  C   UNL     1     -11.226   5.742  72.751  1.00  0.00    -0.336 A  
HETATM   33  C   UNL     1      -8.542   5.742  73.502  1.00  0.00    -0.120 A  
HETATM   34  C   UNL     1      -9.528   6.093  74.427  1.00  0.00    -0.206 A  
HETATM   35  C   UNL     1     -10.241   5.383  71.828  1.00  0.00    -0.263 A  
ENDBRANCH  23  30
ENDBRANCH  22  23
ENDBRANCH  19  22
ENDBRANCH  15  16
ENDBRANCH  14  15
ENDBRANCH  13  14
ENDBRANCH  11  13
ENDBRANCH   8  11
ENDBRANCH   2   5
TORSDOF 10
ENDMDL
MODEL      229
REMARK 921   NORMALIZED FREE ENERGY PREDICTED BY IDOCK:   -1.44 KCAL/MOL
REMARK 922        TOTAL FREE ENERGY PREDICTED BY IDOCK:   -5.20 KCAL/MOL
REMARK 923 INTER-LIGAND FREE ENERGY PREDICTED BY IDOCK:   -5.79 KCAL/MOL
REMARK 924 INTRA-LIGAND FREE ENERGY PREDICTED BY IDOCK:    0.59 KCAL/MOL
REMARK 927      BINDING AFFINITY PREDICTED BY RF-SCORE:    0.00 PKD
ROOT
HETATM    1  C   UNL     1      -5.622   5.955  72.664  1.00  0.00    -0.031 C  
HETATM    2  C   UNL     1      -7.022   6.322  72.125  1.00  0.00    -0.074 C  
HETATM    3  C   UNL     1      -7.386   7.712  72.692  1.00  0.00    -0.091 C  
HETATM    4  C   UNL     1      -8.016   5.278  72.678  1.00  0.00    -0.102 C  
ENDROOT
BRANCH   2   5
HETATM    5  C   UNL     1      -7.087   6.359  70.593  1.00  0.00    -0.069 A  
HETATM    6  C   UNL     1      -6.861   5.228  69.795  1.00  0.00    -0.056 A  
HETATM    7  C   UNL     1      -6.905   5.299  68.395  1.00  0.00    -0.056 A  
HETATM    8  C   UNL     1      -7.169   6.513  67.758  1.00  0.00    -0.090 A  
HETATM    9  C   UNL     1      -7.364   7.572  69.932  1.00  0.00    -0.082 A  
HETATM   10  C   UNL     1      -7.405   7.649  68.539  1.00  0.00    -0.095 A  
BRANCH   8  11
HETATM   11  C   UNL     1      -7.183   6.557  66.268  1.00  0.00    -0.072 C  
HETATM   12  O   UNL     1      -6.351   5.910  65.635  1.00  0.00    -0.039 OA 
BRANCH  11  13
HETATM   13  C   UNL     1      -8.241   7.409  65.596  1.00  0.00    -0.137 C  
BRANCH  13  14
HETATM   14  C   UNL     1      -7.781   7.925  64.236  1.00  0.00    -0.128 C  
BRANCH  14  15
HETATM   15  C   UNL     1      -8.581   9.145  63.773  1.00  0.00    -0.169 C  
BRANCH  15  16
HETATM   16  N   UNL     1      -8.566  10.305  64.678  1.00  0.00    -0.178 NA 
HETATM   17  C   UNL     1      -9.524  11.377  64.359  1.00  0.00    -0.135 C  
HETATM   18  C   UNL     1     -10.984  11.089  64.731  1.00  0.00    -0.142 C  
HETATM   19  C   UNL     1     -11.151  10.569  66.164  1.00  0.00     0.262 C  
HETATM   20  C   UNL     1     -10.170   9.414  66.385  1.00  0.00    -0.300 C  
HETATM   21  C   UNL     1      -8.739   9.878  66.077  1.00  0.00    -0.137 C  
BRANCH  19  22
HETATM   22  O   UNL     1     -10.847  11.498  67.204  1.00  0.00    -0.239 OA 
BRANCH  22  23
HETATM   23  C   UNL     1     -11.753  11.675  68.295  1.00  0.00    -0.304 C  
BRANCH  23  24
HETATM   24  C   UNL     1     -11.653  13.141  68.721  1.00  0.00    -0.348 A  
HETATM   25  C   UNL     1     -10.819  14.050  68.041  1.00  0.00    -0.257 A  
HETATM   26  C   UNL     1     -10.747  15.390  68.430  1.00  0.00    -0.256 A  
HETATM   27  C   UNL     1     -12.397  13.614  69.812  1.00  0.00    -0.285 A  
HETATM   28  C   UNL     1     -11.506  15.843  69.507  1.00  0.00    -0.342 A  
HETATM   29  C   UNL     1     -12.326  14.954  70.199  1.00  0.00    -0.376 A  
ENDBRANCH  23  24
BRANCH  23  30
HETATM   30  C   UNL     1     -11.500  10.714  69.448  1.00  0.00    -0.356 A  
HETATM   31  C   UNL     1     -10.913   8.967  71.574  1.00  0.00    -0.418 A  
HETATM   32  C   UNL     1     -10.536   8.636  70.275  1.00  0.00    -0.240 A  
HETATM   33  C   UNL     1     -11.916  11.009  70.756  1.00  0.00    -0.436 A  
HETATM   34  C   UNL     1     -11.616  10.147  71.813  1.00  0.00     0.199 A  
HETATM   35  C   UNL     1     -10.829   9.501  69.218  1.00  0.00    -0.211 A  
ENDBRANCH  23  30
ENDBRANCH  22  23
ENDBRANCH  19  22
ENDBRANCH  15  16
ENDBRANCH  14  15
ENDBRANCH  13  14
ENDBRANCH  11  13
ENDBRANCH   8  11
ENDBRANCH   2   5
TORSDOF 10
ENDMDL
MODEL      230
REMARK 921   NORMALIZED FREE ENERGY PREDICTED BY IDOCK:   -1.42 KCAL/MOL
REMARK 922        TOTAL FREE ENERGY PREDICTED BY IDOCK:   -5.18 KCAL/MOL
REMARK 923 INTER-LIGAND FREE ENERGY PREDICTED BY IDOCK:   -5.55 KCAL/MOL
REMARK 924 INTRA-LIGAND FREE ENERGY PREDICTED BY IDOCK:    0.37 KCAL/MOL
REMARK 927      BINDING AFFINITY PREDICTED BY RF-SCORE:    0.00 PKD
ROOT
HETATM    1  C   UNL     1      -9.650   8.833  71.134  1.00  0.00    -0.309 C  
HETATM    2  C   UNL     1      -8.275   8.655  70.454  1.00  0.00    -0.122 C  
HETATM    3  C   UNL     1      -7.556   7.486  71.163  1.00  0.00    -0.081 C  
HETATM    4  C   UNL     1      -7.473   9.954  70.690  1.00  0.00     0.047 C  
ENDROOT
BRANCH   2   5
HETATM    5  C   UNL     1      -8.378   8.359  68.952  1.00  0.00    -0.119 A  
HETATM    6  C   UNL     1      -9.606   8.235  68.286  1.00  0.00    -0.158 A  
HETATM    7  C   UNL     1      -9.668   7.940  66.916  1.00  0.00    -0.285 A  
HETATM    8  C   UNL     1      -8.496   7.756  66.180  1.00  0.00    -0.143 A  
HETATM    9  C   UNL     1      -7.207   8.182  68.190  1.00  0.00    -0.094 A  
HETATM   10  C   UNL     1      -7.264   7.885  66.828  1.00  0.00    -0.088 A  
BRANCH   8  11
HETATM   11  C   UNL     1      -8.601   7.420  64.731  1.00  0.00     0.209 C  
HETATM   12  O   UNL     1      -8.789   6.254  64.391  1.00  0.00     0.249 OA 
BRANCH  11  13
HETATM   13  C   UNL     1      -8.469   8.552  63.732  1.00  0.00    -0.033 C  
BRANCH  13  14
HETATM   14  C   UNL     1      -9.065   9.853  64.260  1.00  0.00    -0.297 C  
BRANCH  14  15
HETATM   15  C   UNL     1      -8.884  11.018  63.284  1.00  0.00    -0.112 C  
BRANCH  15  16
HETATM   16  N   UNL     1      -9.922  12.059  63.325  1.00  0.00    -0.399 NA 
HETATM   17  C   UNL     1     -11.307  11.577  63.452  1.00  0.00    -0.206 C  
HETATM   18  C   UNL     1     -11.714  11.097  64.851  1.00  0.00     0.502 C  
HETATM   19  C   UNL     1     -11.341  12.088  65.961  1.00  0.00    -0.343 C  
HETATM   20  C   UNL     1      -9.871  12.480  65.796  1.00  0.00    -0.244 C  
HETATM   21  C   UNL     1      -9.635  13.041  64.386  1.00  0.00     0.457 C  
BRANCH  19  22
HETATM   22  O   UNL     1     -12.044  13.330  65.950  1.00  0.00    -0.398 OA 
BRANCH  22  23
HETATM   23  C   UNL     1     -12.181  14.087  67.156  1.00  0.00    -0.321 C  
BRANCH  23  24
HETATM   24  C   UNL     1     -11.166  15.229  67.079  1.00  0.00    -0.275 A  
HETATM   25  C   UNL     1     -10.984  15.974  65.897  1.00  0.00    -0.115 A  
HETATM   26  C   UNL     1     -10.065  17.025  65.844  1.00  0.00    -0.281 A  
HETATM   27  C   UNL     1     -10.387  15.560  68.197  1.00  0.00    -0.237 A  
HETATM   28  C   UNL     1      -9.311  17.347  66.971  1.00  0.00    -0.265 A  
HETATM   29  C   UNL     1      -9.469  16.611  68.143  1.00  0.00    -0.228 A  
ENDBRANCH  23  24
BRANCH  23  30
HETATM   30  C   UNL     1     -12.020  13.246  68.414  1.00  0.00    -0.336 A  
HETATM   31  C   UNL     1     -11.844  11.682  70.746  1.00  0.00    -0.119 A  
HETATM   32  C   UNL     1     -12.290  12.998  70.822  1.00  0.00    -0.394 A  
HETATM   33  C   UNL     1     -11.525  11.934  68.363  1.00  0.00    -0.357 A  
HETATM   34  C   UNL     1     -11.447  11.153  69.519  1.00  0.00    -0.374 A  
HETATM   35  C   UNL     1     -12.376  13.777  69.665  1.00  0.00    -0.284 A  
ENDBRANCH  23  30
ENDBRANCH  22  23
ENDBRANCH  19  22
ENDBRANCH  15  16
ENDBRANCH  14  15
ENDBRANCH  13  14
ENDBRANCH  11  13
ENDBRANCH   8  11
ENDBRANCH   2   5
TORSDOF 10
ENDMDL
MODEL      231
REMARK 921   NORMALIZED FREE ENERGY PREDICTED BY IDOCK:   -1.41 KCAL/MOL
REMARK 922        TOTAL FREE ENERGY PREDICTED BY IDOCK:   -5.17 KCAL/MOL
REMARK 923 INTER-LIGAND FREE ENERGY PREDICTED BY IDOCK:   -5.38 KCAL/MOL
REMARK 924 INTRA-LIGAND FREE ENERGY PREDICTED BY IDOCK:    0.22 KCAL/MOL
REMARK 927      BINDING AFFINITY PREDICTED BY RF-SCORE:    0.00 PKD
ROOT
HETATM    1  C   UNL     1     -13.888   7.552  71.763  1.00  0.00    -0.438 C  
HETATM    2  C   UNL     1     -12.889   8.722  71.896  1.00  0.00    -0.423 C  
HETATM    3  C   UNL     1     -12.070   8.486  73.184  1.00  0.00     0.763 C  
HETATM    4  C   UNL     1     -13.714  10.017  72.056  1.00  0.00    -0.252 C  
ENDROOT
BRANCH   2   5
HETATM    5  C   UNL     1     -11.938   8.841  70.697  1.00  0.00    -0.078 A  
HETATM    6  C   UNL     1     -11.766  10.033  69.980  1.00  0.00    -0.242 A  
HETATM    7  C   UNL     1     -10.907  10.105  68.874  1.00  0.00    -0.256 A  
HETATM    8  C   UNL     1     -10.203   8.975  68.454  1.00  0.00    -0.232 A  
HETATM    9  C   UNL     1     -11.210   7.716  70.266  1.00  0.00    -0.230 A  
HETATM   10  C   UNL     1     -10.357   7.780  69.163  1.00  0.00    -0.219 A  
BRANCH   8  11
HETATM   11  C   UNL     1      -9.317   9.082  67.259  1.00  0.00    -0.139 C  
HETATM   12  O   UNL     1      -9.504   8.338  66.298  1.00  0.00    -0.206 OA 
BRANCH  11  13
HETATM   13  C   UNL     1      -8.213  10.120  67.288  1.00  0.00    -0.117 C  
BRANCH  13  14
HETATM   14  C   UNL     1      -6.862   9.507  67.644  1.00  0.00    -0.075 C  
BRANCH  14  15
HETATM   15  C   UNL     1      -6.089  10.349  68.663  1.00  0.00    -0.043 C  
BRANCH  15  16
HETATM   16  N   UNL     1      -5.660  11.679  68.205  1.00  0.00    -0.045 NA 
HETATM   17  C   UNL     1      -6.568  12.355  67.264  1.00  0.00    -0.136 C  
HETATM   18  C   UNL     1      -7.833  12.961  67.886  1.00  0.00    -0.151 C  
HETATM   19  C   UNL     1      -7.545  13.814  69.128  1.00  0.00     0.103 C  
HETATM   20  C   UNL     1      -6.657  13.011  70.081  1.00  0.00     0.290 C  
HETATM   21  C   UNL     1      -5.382  12.562  69.353  1.00  0.00    -0.072 C  
BRANCH  19  22
HETATM   22  O   UNL     1      -6.821  15.023  68.899  1.00  0.00    -0.093 OA 
BRANCH  22  23
HETATM   23  C   UNL     1      -7.519  16.264  68.771  1.00  0.00    -0.195 C  
BRANCH  23  24
HETATM   24  C   UNL     1      -9.006  15.926  68.655  1.00  0.00    -0.203 A  
HETATM   25  C   UNL     1      -9.866  15.993  69.769  1.00  0.00    -0.126 A  
HETATM   26  C   UNL     1     -11.226  15.697  69.647  1.00  0.00    -0.310 A  
HETATM   27  C   UNL     1      -9.550  15.536  67.422  1.00  0.00    -0.213 A  
HETATM   28  C   UNL     1     -11.748  15.326  68.410  1.00  0.00    -0.340 A  
HETATM   29  C   UNL     1     -10.910  15.241  67.301  1.00  0.00    -0.318 A  
ENDBRANCH  23  24
BRANCH  23  30
HETATM   30  C   UNL     1      -7.022  17.115  67.611  1.00  0.00    -0.159 A  
HETATM   31  C   UNL     1      -6.085  18.782  65.546  1.00  0.00    -0.275 A  
HETATM   32  C   UNL     1      -7.344  18.998  66.100  1.00  0.00    -0.294 A  
HETATM   33  C   UNL     1      -5.776  16.881  67.008  1.00  0.00    -0.205 A  
HETATM   34  C   UNL     1      -5.306  17.714  65.990  1.00  0.00    -0.224 A  
HETATM   35  C   UNL     1      -7.812  18.170  67.124  1.00  0.00    -0.230 A  
ENDBRANCH  23  30
ENDBRANCH  22  23
ENDBRANCH  19  22
ENDBRANCH  15  16
ENDBRANCH  14  15
ENDBRANCH  13  14
ENDBRANCH  11  13
ENDBRANCH   8  11
ENDBRANCH   2   5
TORSDOF 10
ENDMDL
MODEL      232
REMARK 921   NORMALIZED FREE ENERGY PREDICTED BY IDOCK:   -1.25 KCAL/MOL
REMARK 922        TOTAL FREE ENERGY PREDICTED BY IDOCK:   -4.90 KCAL/MOL
REMARK 923 INTER-LIGAND FREE ENERGY PREDICTED BY IDOCK:   -6.17 KCAL/MOL
REMARK 924 INTRA-LIGAND FREE ENERGY PREDICTED BY IDOCK:    1.27 KCAL/MOL
REMARK 927      BINDING AFFINITY PREDICTED BY RF-SCORE:    0.00 PKD
ROOT
HETATM    1  C   UNL     1      -5.164   3.695  73.393  1.00  0.00     0.000 C  
HETATM    2  C   UNL     1      -6.675   3.497  73.147  1.00  0.00    -0.038 C  
HETATM    3  C   UNL     1      -7.422   4.565  73.976  1.00  0.00    -0.081 C  
HETATM    4  C   UNL     1      -7.049   2.097  73.678  1.00  0.00    -0.028 C  
ENDROOT
BRANCH   2   5
HETATM    5  C   UNL     1      -7.068   3.628  71.669  1.00  0.00    -0.035 A  
HETATM    6  C   UNL     1      -7.573   2.555  70.920  1.00  0.00    -0.036 A  
HETATM    7  C   UNL     1      -7.901   2.700  69.564  1.00  0.00    -0.049 A  
HETATM    8  C   UNL     1      -7.722   3.927  68.922  1.00  0.00    -0.053 A  
HETATM    9  C   UNL     1      -6.906   4.860  71.007  1.00  0.00    -0.039 A  
HETATM   10  C   UNL     1      -7.227   5.008  69.657  1.00  0.00    -0.056 A  
BRANCH   8  11
HETATM   11  C   UNL     1      -8.058   4.037  67.473  1.00  0.00    -0.091 C  
HETATM   12  O   UNL     1      -8.239   3.016  66.813  1.00  0.00    -0.086 OA 
BRANCH  11  13
HETATM   13  C   UNL     1      -8.162   5.427  66.877  1.00  0.00    -0.104 C  
BRANCH  13  14
HETATM   14  C   UNL     1      -6.870   5.850  66.184  1.00  0.00    -0.061 C  
BRANCH  14  15
HETATM   15  C   UNL     1      -6.868   7.333  65.807  1.00  0.00    -0.056 C  
BRANCH  15  16
HETATM   16  N   UNL     1      -8.181   7.998  65.801  1.00  0.00    -0.124 NA 
HETATM   17  C   UNL     1      -9.223   7.361  66.623  1.00  0.00    -0.158 C  
HETATM   18  C   UNL     1      -9.101   7.587  68.135  1.00  0.00    -0.128 C  
HETATM   19  C   UNL     1      -8.884   9.059  68.510  1.00  0.00    -0.134 C  
HETATM   20  C   UNL     1      -7.740   9.619  67.661  1.00  0.00    -0.095 C  
HETATM   21  C   UNL     1      -8.049   9.418  66.171  1.00  0.00    -0.111 C  
BRANCH  19  22
HETATM   22  O   UNL     1      -9.980   9.936  68.253  1.00  0.00    -0.145 OA 
BRANCH  22  23
HETATM   23  C   UNL     1     -10.100  11.165  68.974  1.00  0.00    -0.155 C  
BRANCH  23  24
HETATM   24  C   UNL     1     -11.155  10.941  70.059  1.00  0.00    -0.285 A  
HETATM   25  C   UNL     1     -11.210   9.743  70.798  1.00  0.00    -0.419 A  
HETATM   26  C   UNL     1     -12.168   9.557  71.797  1.00  0.00    -0.465 A  
HETATM   27  C   UNL     1     -12.102  11.937  70.341  1.00  0.00    -0.421 A  
HETATM   28  C   UNL     1     -13.090  10.564  72.072  1.00  0.00    -0.511 A  
HETATM   29  C   UNL     1     -13.060  11.750  71.341  1.00  0.00    -0.322 A  
ENDBRANCH  23  24
BRANCH  23  30
HETATM   30  C   UNL     1     -10.424  12.355  68.082  1.00  0.00    -0.228 A  
HETATM   31  C   UNL     1     -11.118  14.581  66.507  1.00  0.00    -0.332 A  
HETATM   32  C   UNL     1     -11.902  13.431  66.471  1.00  0.00    -0.443 A  
HETATM   33  C   UNL     1      -9.618  13.504  68.068  1.00  0.00    -0.221 A  
HETATM   34  C   UNL     1      -9.968  14.613  67.294  1.00  0.00    -0.235 A  
HETATM   35  C   UNL     1     -11.557  12.323  67.251  1.00  0.00    -0.427 A  
ENDBRANCH  23  30
ENDBRANCH  22  23
ENDBRANCH  19  22
ENDBRANCH  15  16
ENDBRANCH  14  15
ENDBRANCH  13  14
ENDBRANCH  11  13
ENDBRANCH   8  11
ENDBRANCH   2   5
TORSDOF 10
ENDMDL
MODEL      233
REMARK 921   NORMALIZED FREE ENERGY PREDICTED BY IDOCK:   -1.11 KCAL/MOL
REMARK 922        TOTAL FREE ENERGY PREDICTED BY IDOCK:   -4.69 KCAL/MOL
REMARK 923 INTER-LIGAND FREE ENERGY PREDICTED BY IDOCK:   -4.64 KCAL/MOL
REMARK 924 INTRA-LIGAND FREE ENERGY PREDICTED BY IDOCK:   -0.05 KCAL/MOL
REMARK 927      BINDING AFFINITY PREDICTED BY RF-SCORE:    0.00 PKD
ROOT
HETATM    1  C   UNL     1     -11.657  15.340  68.174  1.00  0.00    -0.344 C  
HETATM    2  C   UNL     1     -11.111  14.790  66.838  1.00  0.00    -0.339 C  
HETATM    3  C   UNL     1     -11.011  15.977  65.855  1.00  0.00    -0.115 C  
HETATM    4  C   UNL     1     -12.145  13.778  66.300  1.00  0.00    -0.484 C  
ENDROOT
BRANCH   2   5
HETATM    5  C   UNL     1      -9.736  14.122  66.978  1.00  0.00    -0.258 A  
HETATM    6  C   UNL     1      -8.571  14.839  67.285  1.00  0.00    -0.230 A  
HETATM    7  C   UNL     1      -7.325  14.204  67.383  1.00  0.00    -0.143 A  
HETATM    8  C   UNL     1      -7.215  12.829  67.168  1.00  0.00    -0.014 A  
HETATM    9  C   UNL     1      -9.608  12.734  66.777  1.00  0.00    -0.244 A  
HETATM   10  C   UNL     1      -8.369  12.098  66.870  1.00  0.00    -0.151 A  
BRANCH   8  11
HETATM   11  C   UNL     1      -5.871  12.191  67.256  1.00  0.00    -0.146 C  
HETATM   12  O   UNL     1      -5.409  11.611  66.276  1.00  0.00    -0.292 OA 
BRANCH  11  13
HETATM   13  C   UNL     1      -5.127  12.291  68.573  1.00  0.00    -0.051 C  
BRANCH  13  14
HETATM   14  C   UNL     1      -5.470  11.139  69.513  1.00  0.00    -0.046 C  
BRANCH  14  15
HETATM   15  C   UNL     1      -6.962  11.083  69.848  1.00  0.00    -0.049 C  
BRANCH  15  16
HETATM   16  N   UNL     1      -7.375  10.015  70.772  1.00  0.00    -0.282 NA 
HETATM   17  C   UNL     1      -8.827   9.832  70.930  1.00  0.00     0.471 C  
HETATM   18  C   UNL     1      -9.532   9.119  69.769  1.00  0.00    -0.191 C  
HETATM   19  C   UNL     1      -8.827   7.826  69.337  1.00  0.00    -0.139 C  
HETATM   20  C   UNL     1      -7.341   8.124  69.127  1.00  0.00    -0.082 C  
HETATM   21  C   UNL     1      -6.745   8.735  70.404  1.00  0.00    -0.043 C  
BRANCH  19  22
HETATM   22  O   UNL     1      -8.847   6.759  70.285  1.00  0.00    -0.149 OA 
BRANCH  22  23
HETATM   23  C   UNL     1      -9.906   5.798  70.261  1.00  0.00    -0.189 C  
BRANCH  23  24
HETATM   24  C   UNL     1     -10.149   5.444  68.793  1.00  0.00    -0.255 A  
HETATM   25  C   UNL     1      -9.567   4.304  68.204  1.00  0.00    -0.196 A  
HETATM   26  C   UNL     1      -9.810   3.982  66.867  1.00  0.00    -0.157 A  
HETATM   27  C   UNL     1     -10.967   6.257  67.995  1.00  0.00    -0.418 A  
HETATM   28  C   UNL     1     -10.637   4.795  66.096  1.00  0.00    -0.282 A  
HETATM   29  C   UNL     1     -11.210   5.934  66.658  1.00  0.00     0.080 A  
ENDBRANCH  23  24
BRANCH  23  30
HETATM   30  C   UNL     1     -11.168   6.279  70.963  1.00  0.00    -0.372 A  
HETATM   31  C   UNL     1     -13.562   7.161  72.151  1.00  0.00    -0.048 A  
HETATM   32  C   UNL     1     -12.840   8.014  71.320  1.00  0.00    -0.221 A  
HETATM   33  C   UNL     1     -11.882   5.449  71.842  1.00  0.00     0.405 A  
HETATM   34  C   UNL     1     -13.076   5.883  72.424  1.00  0.00     0.630 A  
HETATM   35  C   UNL     1     -11.650   7.578  70.731  1.00  0.00    -0.300 A  
ENDBRANCH  23  30
ENDBRANCH  22  23
ENDBRANCH  19  22
ENDBRANCH  15  16
ENDBRANCH  14  15
ENDBRANCH  13  14
ENDBRANCH  11  13
ENDBRANCH   8  11
ENDBRANCH   2   5
TORSDOF 10
ENDMDL
MODEL      234
REMARK 921   NORMALIZED FREE ENERGY PREDICTED BY IDOCK:   -1.10 KCAL/MOL
REMARK 922        TOTAL FREE ENERGY PREDICTED BY IDOCK:   -4.67 KCAL/MOL
REMARK 923 INTER-LIGAND FREE ENERGY PREDICTED BY IDOCK:   -6.27 KCAL/MOL
REMARK 924 INTRA-LIGAND FREE ENERGY PREDICTED BY IDOCK:    1.60 KCAL/MOL
REMARK 927      BINDING AFFINITY PREDICTED BY RF-SCORE:    0.00 PKD
ROOT
HETATM    1  C   UNL     1      -7.924   7.711  74.087  1.00  0.00    -0.224 C  
HETATM    2  C   UNL     1      -6.501   7.756  73.489  1.00  0.00    -0.084 C  
HETATM    3  C   UNL     1      -5.652   6.704  74.236  1.00  0.00    -0.055 C  
HETATM    4  C   UNL     1      -5.925   9.160  73.773  1.00  0.00     0.040 C  
ENDROOT
BRANCH   2   5
HETATM    5  C   UNL     1      -6.471   7.464  71.982  1.00  0.00    -0.043 A  
HETATM    6  C   UNL     1      -7.201   6.420  71.396  1.00  0.00    -0.079 A  
HETATM    7  C   UNL     1      -7.134   6.164  70.018  1.00  0.00    -0.072 A  
HETATM    8  C   UNL     1      -6.325   6.947  69.194  1.00  0.00    -0.028 A  
HETATM    9  C   UNL     1      -5.670   8.250  71.132  1.00  0.00    -0.033 A  
HETATM   10  C   UNL     1      -5.597   7.997  69.761  1.00  0.00    -0.023 A  
BRANCH   8  11
HETATM   11  C   UNL     1      -6.260   6.630  67.738  1.00  0.00    -0.035 C  
HETATM   12  O   UNL     1      -5.250   6.921  67.099  1.00  0.00    -0.011 OA 
BRANCH  11  13
HETATM   13  C   UNL     1      -7.461   5.953  67.108  1.00  0.00    -0.084 C  
BRANCH  13  14
HETATM   14  C   UNL     1      -8.679   6.871  67.071  1.00  0.00    -0.119 C  
BRANCH  14  15
HETATM   15  C   UNL     1      -9.308   7.063  68.453  1.00  0.00    -0.130 C  
BRANCH  15  16
HETATM   16  N   UNL     1     -10.423   8.021  68.525  1.00  0.00    -0.194 NA 
HETATM   17  C   UNL     1     -10.343   9.014  69.608  1.00  0.00    -0.212 C  
HETATM   18  C   UNL     1      -9.353  10.163  69.379  1.00  0.00    -0.235 C  
HETATM   19  C   UNL     1      -9.498  10.819  68.000  1.00  0.00    -0.160 C  
HETATM   20  C   UNL     1      -9.501   9.722  66.932  1.00  0.00    -0.202 C  
HETATM   21  C   UNL     1     -10.609   8.703  67.232  1.00  0.00    -0.238 C  
BRANCH  19  22
HETATM   22  O   UNL     1     -10.712  11.537  67.776  1.00  0.00    -0.190 OA 
BRANCH  22  23
HETATM   23  C   UNL     1     -10.670  12.903  67.357  1.00  0.00    -0.237 C  
BRANCH  23  24
HETATM   24  C   UNL     1     -11.261  12.953  65.947  1.00  0.00    -0.323 A  
HETATM   25  C   UNL     1     -11.868  14.120  65.443  1.00  0.00    -0.362 A  
HETATM   26  C   UNL     1     -12.389  14.158  64.147  1.00  0.00    -0.372 A  
HETATM   27  C   UNL     1     -11.210  11.822  65.118  1.00  0.00    -0.311 A  
HETATM   28  C   UNL     1     -12.315  13.028  63.335  1.00  0.00    -0.478 A  
HETATM   29  C   UNL     1     -11.730  11.861  63.822  1.00  0.00    -0.554 A  
ENDBRANCH  23  24
BRANCH  23  30
HETATM   30  C   UNL     1      -9.276  13.510  67.427  1.00  0.00    -0.223 A  
HETATM   31  C   UNL     1      -6.738  14.705  67.649  1.00  0.00    -0.196 A  
HETATM   32  C   UNL     1      -7.795  15.413  67.083  1.00  0.00    -0.249 A  
HETATM   33  C   UNL     1      -8.188  12.793  67.950  1.00  0.00    -0.168 A  
HETATM   34  C   UNL     1      -6.930  13.390  68.070  1.00  0.00    -0.127 A  
HETATM   35  C   UNL     1      -9.055  14.820  66.970  1.00  0.00    -0.257 A  
ENDBRANCH  23  30
ENDBRANCH  22  23
ENDBRANCH  19  22
ENDBRANCH  15  16
ENDBRANCH  14  15
ENDBRANCH  13  14
ENDBRANCH  11  13
ENDBRANCH   8  11
ENDBRANCH   2   5
TORSDOF 10
ENDMDL
MODEL      235
REMARK 921   NORMALIZED FREE ENERGY PREDICTED BY IDOCK:   -0.65 KCAL/MOL
REMARK 922        TOTAL FREE ENERGY PREDICTED BY IDOCK:   -3.96 KCAL/MOL
REMARK 923 INTER-LIGAND FREE ENERGY PREDICTED BY IDOCK:   -3.28 KCAL/MOL
REMARK 924 INTRA-LIGAND FREE ENERGY PREDICTED BY IDOCK:   -0.68 KCAL/MOL
REMARK 927      BINDING AFFINITY PREDICTED BY RF-SCORE:    0.00 PKD
ROOT
HETATM    1  C   UNL     1     -11.021  15.984  70.615  1.00  0.00    -0.273 C  
HETATM    2  C   UNL     1     -11.525  15.830  69.164  1.00  0.00    -0.383 C  
HETATM    3  C   UNL     1     -10.791  16.883  68.305  1.00  0.00    -0.357 C  
HETATM    4  C   UNL     1     -13.036  16.147  69.164  1.00  0.00     1.927 C  
ENDROOT
BRANCH   2   5
HETATM    5  C   UNL     1     -11.275  14.430  68.585  1.00  0.00    -0.280 A  
HETATM    6  C   UNL     1     -11.112  13.294  69.389  1.00  0.00    -0.148 A  
HETATM    7  C   UNL     1     -10.862  12.031  68.831  1.00  0.00    -0.252 A  
HETATM    8  C   UNL     1     -10.760  11.880  67.447  1.00  0.00    -0.271 A  
HETATM    9  C   UNL     1     -11.181  14.255  67.191  1.00  0.00    -0.333 A  
HETATM   10  C   UNL     1     -10.928  13.002  66.630  1.00  0.00    -0.301 A  
BRANCH   8  11
HETATM   11  C   UNL     1     -10.469  10.528  66.890  1.00  0.00    -0.246 C  
HETATM   12  O   UNL     1      -9.656  10.412  65.975  1.00  0.00    -0.181 OA 
BRANCH  11  13
HETATM   13  C   UNL     1     -11.201   9.344  67.490  1.00  0.00     0.319 C  
BRANCH  13  14
HETATM   14  C   UNL     1     -10.627   8.943  68.845  1.00  0.00    -0.188 C  
BRANCH  14  15
HETATM   15  C   UNL     1      -9.103   9.072  68.895  1.00  0.00    -0.140 C  
BRANCH  15  16
HETATM   16  N   UNL     1      -8.353   7.808  68.977  1.00  0.00    -0.130 NA 
HETATM   17  C   UNL     1      -7.387   7.709  70.082  1.00  0.00    -0.076 C  
HETATM   18  C   UNL     1      -7.993   7.454  71.468  1.00  0.00    -0.095 C  
HETATM   19  C   UNL     1      -9.009   6.305  71.481  1.00  0.00    -0.142 C  
HETATM   20  C   UNL     1     -10.014   6.526  70.347  1.00  0.00    -0.202 C  
HETATM   21  C   UNL     1      -9.272   6.657  69.010  1.00  0.00    -0.131 C  
BRANCH  19  22
HETATM   22  O   UNL     1      -8.479   5.002  71.238  1.00  0.00    -0.116 OA 
BRANCH  22  23
HETATM   23  C   UNL     1      -9.353   3.929  70.877  1.00  0.00    -0.152 C  
BRANCH  23  24
HETATM   24  C   UNL     1      -9.666   3.160  72.162  1.00  0.00    -0.230 A  
HETATM   25  C   UNL     1      -8.646   2.763  73.049  1.00  0.00    -0.075 A  
HETATM   26  C   UNL     1      -8.946   2.075  74.228  1.00  0.00    -0.071 A  
HETATM   27  C   UNL     1     -10.990   2.832  72.486  1.00  0.00     0.249 A  
HETATM   28  C   UNL     1     -10.270   1.772  74.538  1.00  0.00    -0.157 A  
HETATM   29  C   UNL     1     -11.289   2.146  73.665  1.00  0.00    -0.322 A  
ENDBRANCH  23  24
BRANCH  23  30
HETATM   30  C   UNL     1      -8.783   3.033  69.786  1.00  0.00    -0.130 A  
HETATM   31  C   UNL     1      -7.735   1.474  67.691  1.00  0.00    -0.058 A  
HETATM   32  C   UNL     1      -9.081   1.831  67.688  1.00  0.00    -0.181 A  
HETATM   33  C   UNL     1      -7.440   2.623  69.798  1.00  0.00    -0.044 A  
HETATM   34  C   UNL     1      -6.917   1.858  68.753  1.00  0.00    -0.036 A  
HETATM   35  C   UNL     1      -9.603   2.603  68.729  1.00  0.00    -0.070 A  
ENDBRANCH  23  30
ENDBRANCH  22  23
ENDBRANCH  19  22
ENDBRANCH  15  16
ENDBRANCH  14  15
ENDBRANCH  13  14
ENDBRANCH  11  13
ENDBRANCH   8  11
ENDBRANCH   2   5
TORSDOF 10
ENDMDL
MODEL      236
REMARK 921   NORMALIZED FREE ENERGY PREDICTED BY IDOCK:   -0.49 KCAL/MOL
REMARK 922        TOTAL FREE ENERGY PREDICTED BY IDOCK:   -3.70 KCAL/MOL
REMARK 923 INTER-LIGAND FREE ENERGY PREDICTED BY IDOCK:   -4.42 KCAL/MOL
REMARK 924 INTRA-LIGAND FREE ENERGY PREDICTED BY IDOCK:    0.73 KCAL/MOL
REMARK 927      BINDING AFFINITY PREDICTED BY RF-SCORE:    0.00 PKD
ROOT
HETATM    1  C   UNL     1     -10.962  16.363  66.394  1.00  0.00     0.044 C  
HETATM    2  C   UNL     1     -10.492  15.765  67.737  1.00  0.00    -0.283 C  
HETATM    3  C   UNL     1     -11.342  16.412  68.854  1.00  0.00    -0.272 C  
HETATM    4  C   UNL     1      -9.015  16.170  67.932  1.00  0.00    -0.183 C  
ENDROOT
BRANCH   2   5
HETATM    5  C   UNL     1     -10.638  14.238  67.801  1.00  0.00    -0.253 A  
HETATM    6  C   UNL     1     -10.780  13.440  66.657  1.00  0.00    -0.282 A  
HETATM    7  C   UNL     1     -10.934  12.049  66.749  1.00  0.00    -0.329 A  
HETATM    8  C   UNL     1     -10.958  11.424  67.996  1.00  0.00    -0.290 A  
HETATM    9  C   UNL     1     -10.652  13.587  69.050  1.00  0.00    -0.126 A  
HETATM   10  C   UNL     1     -10.810  12.204  69.147  1.00  0.00    -0.165 A  
BRANCH   8  11
HETATM   11  C   UNL     1     -11.149   9.946  68.057  1.00  0.00    -0.158 C  
HETATM   12  O   UNL     1     -10.887   9.260  67.072  1.00  0.00    -0.186 OA 
BRANCH  11  13
HETATM   13  C   UNL     1     -11.665   9.353  69.354  1.00  0.00     0.440 C  
BRANCH  13  14
HETATM   14  C   UNL     1     -10.722   9.623  70.521  1.00  0.00    -0.374 C  
BRANCH  14  15
HETATM   15  C   UNL     1      -9.739   8.474  70.757  1.00  0.00    -0.183 C  
BRANCH  15  16
HETATM   16  N   UNL     1      -8.326   8.855  70.903  1.00  0.00    -0.166 NA 
HETATM   17  C   UNL     1      -7.349   7.770  70.722  1.00  0.00    -0.065 C  
HETATM   18  C   UNL     1      -7.097   7.344  69.270  1.00  0.00    -0.075 C  
HETATM   19  C   UNL     1      -6.830   8.528  68.331  1.00  0.00    -0.065 C  
HETATM   20  C   UNL     1      -7.929   9.573  68.535  1.00  0.00    -0.093 C  
HETATM   21  C   UNL     1      -7.994   9.982  70.014  1.00  0.00    -0.150 C  
BRANCH  19  22
HETATM   22  O   UNL     1      -5.614   9.241  68.557  1.00  0.00    -0.040 OA 
BRANCH  22  23
HETATM   23  C   UNL     1      -5.162  10.208  67.606  1.00  0.00    -0.037 C  
BRANCH  23  24
HETATM   24  C   UNL     1      -5.349  11.583  68.249  1.00  0.00    -0.042 A  
HETATM   25  C   UNL     1      -5.383  11.743  69.648  1.00  0.00    -0.066 A  
HETATM   26  C   UNL     1      -5.538  13.006  70.224  1.00  0.00    -0.145 A  
HETATM   27  C   UNL     1      -5.492  12.726  67.448  1.00  0.00    -0.041 A  
HETATM   28  C   UNL     1      -5.664  14.130  69.410  1.00  0.00    -0.086 A  
HETATM   29  C   UNL     1      -5.646  13.989  68.025  1.00  0.00    -0.124 A  
ENDBRANCH  23  24
BRANCH  23  30
HETATM   30  C   UNL     1      -5.860  10.095  66.258  1.00  0.00    -0.065 A  
HETATM   31  C   UNL     1      -7.190  10.003  63.779  1.00  0.00    -0.128 A  
HETATM   32  C   UNL     1      -7.920   9.967  64.964  1.00  0.00    -0.137 A  
HETATM   33  C   UNL     1      -5.137  10.080  65.055  1.00  0.00    -0.059 A  
HETATM   34  C   UNL     1      -5.797  10.045  63.824  1.00  0.00    -0.129 A  
HETATM   35  C   UNL     1      -7.261  10.010  66.196  1.00  0.00    -0.109 A  
ENDBRANCH  23  30
ENDBRANCH  22  23
ENDBRANCH  19  22
ENDBRANCH  15  16
ENDBRANCH  14  15
ENDBRANCH  13  14
ENDBRANCH  11  13
ENDBRANCH   8  11
ENDBRANCH   2   5
TORSDOF 10
ENDMDL
MODEL      237
REMARK 921   NORMALIZED FREE ENERGY PREDICTED BY IDOCK:   -0.22 KCAL/MOL
REMARK 922        TOTAL FREE ENERGY PREDICTED BY IDOCK:   -3.27 KCAL/MOL
REMARK 923 INTER-LIGAND FREE ENERGY PREDICTED BY IDOCK:   -1.65 KCAL/MOL
REMARK 924 INTRA-LIGAND FREE ENERGY PREDICTED BY IDOCK:   -1.62 KCAL/MOL
REMARK 927      BINDING AFFINITY PREDICTED BY RF-SCORE:    0.00 PKD
ROOT
HETATM    1  C   UNL     1     -11.995   8.583  68.772  1.00  0.00     2.346 C  
HETATM    2  C   UNL     1     -11.833   7.986  70.187  1.00  0.00     0.282 C  
HETATM    3  C   UNL     1     -12.356   6.533  70.138  1.00  0.00     0.381 C  
HETATM    4  C   UNL     1     -12.726   8.810  71.139  1.00  0.00    -0.171 C  
ENDROOT
BRANCH   2   5
HETATM    5  C   UNL     1     -10.380   7.993  70.681  1.00  0.00    -0.211 A  
HETATM    6  C   UNL     1     -10.023   8.364  71.985  1.00  0.00    -0.354 A  
HETATM    7  C   UNL     1      -8.684   8.382  72.400  1.00  0.00    -0.280 A  
HETATM    8  C   UNL     1      -7.665   8.035  71.511  1.00  0.00    -0.098 A  
HETATM    9  C   UNL     1      -9.340   7.633  69.803  1.00  0.00    -0.150 A  
HETATM   10  C   UNL     1      -8.005   7.654  70.210  1.00  0.00    -0.101 A  
BRANCH   8  11
HETATM   11  C   UNL     1      -6.251   8.089  71.980  1.00  0.00    -0.045 C  
HETATM   12  O   UNL     1      -5.978   7.740  73.127  1.00  0.00    -0.051 OA 
BRANCH  11  13
HETATM   13  C   UNL     1      -5.201   8.580  71.002  1.00  0.00    -0.028 C  
BRANCH  13  14
HETATM   14  C   UNL     1      -5.127  10.103  70.961  1.00  0.00    -0.068 C  
BRANCH  14  15
HETATM   15  C   UNL     1      -6.340  10.729  70.268  1.00  0.00    -0.142 C  
BRANCH  15  16
HETATM   16  N   UNL     1      -6.054  11.526  69.065  1.00  0.00    -0.052 NA 
HETATM   17  C   UNL     1      -6.867  11.208  67.880  1.00  0.00    -0.068 C  
HETATM   18  C   UNL     1      -8.307  11.738  67.905  1.00  0.00    -0.149 C  
HETATM   19  C   UNL     1      -8.398  13.220  68.291  1.00  0.00    -0.154 C  
HETATM   20  C   UNL     1      -7.586  13.445  69.569  1.00  0.00     0.593 C  
HETATM   21  C   UNL     1      -6.142  12.967  69.361  1.00  0.00    -0.108 C  
BRANCH  19  22
HETATM   22  O   UNL     1      -7.848  14.144  67.352  1.00  0.00    -0.178 OA 
BRANCH  22  23
HETATM   23  C   UNL     1      -8.543  15.356  67.048  1.00  0.00    -0.234 C  
BRANCH  23  24
HETATM   24  C   UNL     1      -7.509  16.483  67.094  1.00  0.00    -0.217 A  
HETATM   25  C   UNL     1      -6.211  16.271  67.597  1.00  0.00    -0.172 A  
HETATM   26  C   UNL     1      -5.270  17.303  67.619  1.00  0.00    -0.128 A  
HETATM   27  C   UNL     1      -7.839  17.765  66.631  1.00  0.00    -0.277 A  
HETATM   28  C   UNL     1      -5.614  18.566  67.141  1.00  0.00    -0.142 A  
HETATM   29  C   UNL     1      -6.897  18.797  66.652  1.00  0.00    -0.217 A  
ENDBRANCH  23  24
BRANCH  23  30
HETATM   30  C   UNL     1      -9.729  15.615  67.967  1.00  0.00    -0.204 A  
HETATM   31  C   UNL     1     -11.902  15.982  69.716  1.00  0.00    -0.234 A  
HETATM   32  C   UNL     1     -12.012  15.100  68.643  1.00  0.00    -0.270 A  
HETATM   33  C   UNL     1      -9.653  16.536  69.023  1.00  0.00    -0.255 A  
HETATM   34  C   UNL     1     -10.728  16.711  69.898  1.00  0.00    -0.204 A  
HETATM   35  C   UNL     1     -10.934  14.919  67.773  1.00  0.00    -0.294 A  
ENDBRANCH  23  30
ENDBRANCH  22  23
ENDBRANCH  19  22
ENDBRANCH  15  16
ENDBRANCH  14  15
ENDBRANCH  13  14
ENDBRANCH  11  13
ENDBRANCH   8  11
ENDBRANCH   2   5
TORSDOF 10
ENDMDL
MODEL      238
REMARK 921   NORMALIZED FREE ENERGY PREDICTED BY IDOCK:   -0.16 KCAL/MOL
REMARK 922        TOTAL FREE ENERGY PREDICTED BY IDOCK:   -3.18 KCAL/MOL
REMARK 923 INTER-LIGAND FREE ENERGY PREDICTED BY IDOCK:   -5.61 KCAL/MOL
REMARK 924 INTRA-LIGAND FREE ENERGY PREDICTED BY IDOCK:    2.43 KCAL/MOL
REMARK 927      BINDING AFFINITY PREDICTED BY RF-SCORE:    0.00 PKD
ROOT
HETATM    1  C   UNL     1      -6.735   1.791  63.899  1.00  0.00    -0.026 C  
HETATM    2  C   UNL     1      -8.128   2.441  64.045  1.00  0.00    -0.081 C  
HETATM    3  C   UNL     1      -8.837   1.752  65.233  1.00  0.00    -0.120 C  
HETATM    4  C   UNL     1      -8.914   2.142  62.750  1.00  0.00    -0.084 C  
ENDROOT
BRANCH   2   5
HETATM    5  C   UNL     1      -8.065   3.954  64.292  1.00  0.00    -0.090 A  
HETATM    6  C   UNL     1      -9.064   4.653  64.985  1.00  0.00    -0.156 A  
HETATM    7  C   UNL     1      -8.989   6.041  65.175  1.00  0.00     0.128 A  
HETATM    8  C   UNL     1      -7.909   6.764  64.665  1.00  0.00    -0.116 A  
HETATM    9  C   UNL     1      -6.978   4.700  63.797  1.00  0.00    -0.045 A  
HETATM   10  C   UNL     1      -6.900   6.081  63.980  1.00  0.00    -0.038 A  
BRANCH   8  11
HETATM   11  C   UNL     1      -7.875   8.242  64.865  1.00  0.00    -0.126 C  
HETATM   12  O   UNL     1      -7.119   8.928  64.180  1.00  0.00    -0.089 OA 
BRANCH  11  13
HETATM   13  C   UNL     1      -8.789   8.834  65.918  1.00  0.00    -0.222 C  
BRANCH  13  14
HETATM   14  C   UNL     1      -8.605  10.342  66.053  1.00  0.00    -0.158 C  
BRANCH  14  15
HETATM   15  C   UNL     1      -8.702  11.065  64.707  1.00  0.00     0.028 C  
BRANCH  15  16
HETATM   16  N   UNL     1      -9.831  11.996  64.556  1.00  0.00    -0.200 NA 
HETATM   17  C   UNL     1     -11.141  11.488  64.993  1.00  0.00    -0.201 C  
HETATM   18  C   UNL     1     -11.361  11.447  66.511  1.00  0.00    -0.195 C  
HETATM   19  C   UNL     1     -10.984  12.759  67.211  1.00  0.00    -0.262 C  
HETATM   20  C   UNL     1      -9.583  13.175  66.754  1.00  0.00    -0.249 C  
HETATM   21  C   UNL     1      -9.543  13.279  65.223  1.00  0.00     0.167 C  
BRANCH  19  22
HETATM   22  O   UNL     1     -11.806  13.886  66.908  1.00  0.00    -0.376 OA 
BRANCH  22  23
HETATM   23  C   UNL     1     -11.850  15.003  67.800  1.00  0.00    -0.204 C  
BRANCH  23  24
HETATM   24  C   UNL     1     -10.538  15.768  67.616  1.00  0.00    -0.301 A  
HETATM   25  C   UNL     1      -9.354  15.369  68.267  1.00  0.00    -0.193 A  
HETATM   26  C   UNL     1      -8.159  16.067  68.078  1.00  0.00    -0.148 A  
HETATM   27  C   UNL     1     -10.488  16.897  66.785  1.00  0.00    -0.260 A  
HETATM   28  C   UNL     1      -8.128  17.177  67.237  1.00  0.00    -0.206 A  
HETATM   29  C   UNL     1      -9.292  17.594  66.596  1.00  0.00    -0.289 A  
ENDBRANCH  23  24
BRANCH  23  30
HETATM   30  C   UNL     1     -12.094  14.604  69.249  1.00  0.00    -0.307 A  
HETATM   31  C   UNL     1     -12.423  13.870  71.945  1.00  0.00    -0.249 A  
HETATM   32  C   UNL     1     -11.932  12.946  71.026  1.00  0.00     0.168 A  
HETATM   33  C   UNL     1     -12.634  15.507  70.179  1.00  0.00    -0.304 A  
HETATM   34  C   UNL     1     -12.788  15.146  71.519  1.00  0.00    -0.442 A  
HETATM   35  C   UNL     1     -11.771  13.309  69.687  1.00  0.00    -0.369 A  
ENDBRANCH  23  30
ENDBRANCH  22  23
ENDBRANCH  19  22
ENDBRANCH  15  16
ENDBRANCH  14  15
ENDBRANCH  13  14
ENDBRANCH  11  13
ENDBRANCH   8  11
ENDBRANCH   2   5
TORSDOF 10
ENDMDL
MODEL      239
REMARK 921   NORMALIZED FREE ENERGY PREDICTED BY IDOCK:    0.09 KCAL/MOL
REMARK 922        TOTAL FREE ENERGY PREDICTED BY IDOCK:   -2.79 KCAL/MOL
REMARK 923 INTER-LIGAND FREE ENERGY PREDICTED BY IDOCK:   -4.29 KCAL/MOL
REMARK 924 INTRA-LIGAND FREE ENERGY PREDICTED BY IDOCK:    1.50 KCAL/MOL
REMARK 927      BINDING AFFINITY PREDICTED BY RF-SCORE:    0.00 PKD
ROOT
HETATM    1  C   UNL     1     -10.972  16.651  69.413  1.00  0.00    -0.235 C  
HETATM    2  C   UNL     1     -10.119  16.637  68.125  1.00  0.00    -0.267 C  
HETATM    3  C   UNL     1      -9.137  17.827  68.209  1.00  0.00    -0.281 C  
HETATM    4  C   UNL     1     -11.078  16.861  66.935  1.00  0.00     0.244 C  
ENDROOT
BRANCH   2   5
HETATM    5  C   UNL     1      -9.332  15.334  67.937  1.00  0.00    -0.189 A  
HETATM    6  C   UNL     1      -9.099  14.429  68.983  1.00  0.00     0.000 A  
HETATM    7  C   UNL     1      -8.355  13.257  68.785  1.00  0.00     0.105 A  
HETATM    8  C   UNL     1      -7.819  12.966  67.529  1.00  0.00    -0.177 A  
HETATM    9  C   UNL     1      -8.794  15.016  66.675  1.00  0.00    -0.307 A  
HETATM   10  C   UNL     1      -8.050  13.852  66.473  1.00  0.00     0.722 A  
BRANCH   8  11
HETATM   11  C   UNL     1      -7.013  11.722  67.361  1.00  0.00    -0.121 C  
HETATM   12  O   UNL     1      -5.947  11.769  66.751  1.00  0.00    -0.147 OA 
BRANCH  11  13
HETATM   13  C   UNL     1      -7.558  10.441  67.961  1.00  0.00    -0.091 C  
BRANCH  13  14
HETATM   14  C   UNL     1      -8.985  10.156  67.502  1.00  0.00    -0.136 C  
BRANCH  14  15
HETATM   15  C   UNL     1      -9.866   9.621  68.633  1.00  0.00    -0.161 C  
BRANCH  15  16
HETATM   16  N   UNL     1      -9.961   8.156  68.736  1.00  0.00    -0.184 NA 
HETATM   17  C   UNL     1     -10.458   7.462  67.537  1.00  0.00    -0.268 C  
HETATM   18  C   UNL     1      -9.452   7.329  66.386  1.00  0.00    -0.185 C  
HETATM   19  C   UNL     1      -8.084   6.801  66.838  1.00  0.00    -0.109 C  
HETATM   20  C   UNL     1      -7.613   7.623  68.040  1.00  0.00    -0.110 C  
HETATM   21  C   UNL     1      -8.671   7.577  69.152  1.00  0.00    -0.136 C  
BRANCH  19  22
HETATM   22  O   UNL     1      -8.059   5.450  67.299  1.00  0.00    -0.101 OA 
BRANCH  22  23
HETATM   23  C   UNL     1      -9.271   4.693  67.369  1.00  0.00    -0.131 C  
BRANCH  23  24
HETATM   24  C   UNL     1      -9.211   3.881  68.664  1.00  0.00    -0.211 A  
HETATM   25  C   UNL     1      -8.833   2.524  68.666  1.00  0.00    -0.154 A  
HETATM   26  C   UNL     1      -8.766   1.797  69.856  1.00  0.00    -0.106 A  
HETATM   27  C   UNL     1      -9.537   4.479  69.891  1.00  0.00    -0.269 A  
HETATM   28  C   UNL     1      -9.080   2.414  71.066  1.00  0.00    -0.174 A  
HETATM   29  C   UNL     1      -9.470   3.751  71.081  1.00  0.00    -0.236 A  
ENDBRANCH  23  24
BRANCH  23  30
HETATM   30  C   UNL     1      -9.506   3.822  66.144  1.00  0.00    -0.184 A  
HETATM   31  C   UNL     1     -10.000   2.129  63.951  1.00  0.00    -0.121 A  
HETATM   32  C   UNL     1      -9.038   1.782  64.897  1.00  0.00    -0.126 A  
HETATM   33  C   UNL     1     -10.437   4.179  65.156  1.00  0.00    -0.174 A  
HETATM   34  C   UNL     1     -10.690   3.334  64.072  1.00  0.00    -0.135 A  
HETATM   35  C   UNL     1      -8.790   2.623  65.985  1.00  0.00    -0.136 A  
ENDBRANCH  23  30
ENDBRANCH  22  23
ENDBRANCH  19  22
ENDBRANCH  15  16
ENDBRANCH  14  15
ENDBRANCH  13  14
ENDBRANCH  11  13
ENDBRANCH   8  11
ENDBRANCH   2   5
TORSDOF 10
ENDMDL
MODEL      240
REMARK 921   NORMALIZED FREE ENERGY PREDICTED BY IDOCK:    0.42 KCAL/MOL
REMARK 922        TOTAL FREE ENERGY PREDICTED BY IDOCK:   -2.26 KCAL/MOL
REMARK 923 INTER-LIGAND FREE ENERGY PREDICTED BY IDOCK:   -2.31 KCAL/MOL
REMARK 924 INTRA-LIGAND FREE ENERGY PREDICTED BY IDOCK:    0.05 KCAL/MOL
REMARK 927      BINDING AFFINITY PREDICTED BY RF-SCORE:    0.00 PKD
ROOT
HETATM    1  C   UNL     1     -10.962  16.627  69.383  1.00  0.00    -0.235 C  
HETATM    2  C   UNL     1     -10.141  16.639  68.076  1.00  0.00    -0.262 C  
HETATM    3  C   UNL     1      -9.256  17.905  68.097  1.00  0.00    -0.278 C  
HETATM    4  C   UNL     1     -11.141  16.745  66.904  1.00  0.00     0.223 C  
ENDROOT
BRANCH   2   5
HETATM    5  C   UNL     1      -9.255  15.397  67.908  1.00  0.00    -0.180 A  
HETATM    6  C   UNL     1      -8.919  14.554  68.977  1.00  0.00    -0.044 A  
HETATM    7  C   UNL     1      -8.088  13.438  68.796  1.00  0.00     0.043 A  
HETATM    8  C   UNL     1      -7.566  13.145  67.536  1.00  0.00    -0.166 A  
HETATM    9  C   UNL     1      -8.729  15.077  66.642  1.00  0.00    -0.289 A  
HETATM   10  C   UNL     1      -7.899  13.970  66.457  1.00  0.00     1.049 A  
BRANCH   8  11
HETATM   11  C   UNL     1      -6.666  11.965  67.385  1.00  0.00    -0.126 C  
HETATM   12  O   UNL     1      -5.651  12.061  66.699  1.00  0.00    -0.298 OA 
BRANCH  11  13
HETATM   13  C   UNL     1      -7.055  10.685  68.099  1.00  0.00    -0.081 C  
BRANCH  13  14
HETATM   14  C   UNL     1      -8.487  10.266  67.782  1.00  0.00    -0.114 C  
BRANCH  14  15
HETATM   15  C   UNL     1      -9.223   9.726  69.010  1.00  0.00    -0.165 C  
BRANCH  15  16
HETATM   16  N   UNL     1      -9.084   8.283  69.260  1.00  0.00    -0.150 NA 
HETATM   17  C   UNL     1      -8.862   7.446  68.069  1.00  0.00    -0.126 C  
HETATM   18  C   UNL     1      -7.445   7.494  67.484  1.00  0.00    -0.104 C  
HETATM   19  C   UNL     1      -6.349   7.304  68.541  1.00  0.00    -0.036 C  
HETATM   20  C   UNL     1      -6.618   8.259  69.706  1.00  0.00    -0.039 C  
HETATM   21  C   UNL     1      -8.031   8.024  70.258  1.00  0.00    -0.104 C  
BRANCH  19  22
HETATM   22  O   UNL     1      -6.284   6.013  69.146  1.00  0.00    -0.032 OA 
BRANCH  22  23
HETATM   23  C   UNL     1      -7.301   5.044  68.878  1.00  0.00    -0.058 C  
BRANCH  23  24
HETATM   24  C   UNL     1      -7.606   4.343  70.204  1.00  0.00    -0.049 A  
HETATM   25  C   UNL     1      -6.972   4.726  71.402  1.00  0.00    -0.047 A  
HETATM   26  C   UNL     1      -7.270   4.090  72.609  1.00  0.00    -0.062 A  
HETATM   27  C   UNL     1      -8.534   3.293  70.253  1.00  0.00    -0.095 A  
HETATM   28  C   UNL     1      -8.206   3.058  72.638  1.00  0.00    -0.071 A  
HETATM   29  C   UNL     1      -8.833   2.658  71.460  1.00  0.00    -0.127 A  
ENDBRANCH  23  24
BRANCH  23  30
HETATM   30  C   UNL     1      -6.922   4.065  67.775  1.00  0.00    -0.055 A  
HETATM   31  C   UNL     1      -6.267   2.165  65.807  1.00  0.00    -0.023 A  
HETATM   32  C   UNL     1      -5.516   2.243  66.977  1.00  0.00    -0.017 A  
HETATM   33  C   UNL     1      -7.637   4.005  66.569  1.00  0.00    -0.088 A  
HETATM   34  C   UNL     1      -7.318   3.055  65.595  1.00  0.00    -0.072 A  
HETATM   35  C   UNL     1      -5.839   3.188  67.955  1.00  0.00    -0.026 A  
ENDBRANCH  23  30
ENDBRANCH  22  23
ENDBRANCH  19  22
ENDBRANCH  15  16
ENDBRANCH  14  15
ENDBRANCH  13  14
ENDBRANCH  11  13
ENDBRANCH   8  11
ENDBRANCH   2   5
TORSDOF 10
ENDMDL
MODEL      241
REMARK 921   NORMALIZED FREE ENERGY PREDICTED BY IDOCK:    0.42 KCAL/MOL
REMARK 922        TOTAL FREE ENERGY PREDICTED BY IDOCK:   -2.26 KCAL/MOL
REMARK 923 INTER-LIGAND FREE ENERGY PREDICTED BY IDOCK:   -4.41 KCAL/MOL
REMARK 924 INTRA-LIGAND FREE ENERGY PREDICTED BY IDOCK:    2.16 KCAL/MOL
REMARK 927      BINDING AFFINITY PREDICTED BY RF-SCORE:    0.00 PKD
ROOT
HETATM    1  C   UNL     1      -7.824   4.078  67.515  1.00  0.00    -0.090 C  
HETATM    2  C   UNL     1      -9.110   4.926  67.615  1.00  0.00    -0.126 C  
HETATM    3  C   UNL     1      -9.326   5.264  69.107  1.00  0.00    -0.166 C  
HETATM    4  C   UNL     1     -10.281   4.047  67.124  1.00  0.00     0.327 C  
ENDROOT
BRANCH   2   5
HETATM    5  C   UNL     1      -9.041   6.224  66.799  1.00  0.00    -0.141 A  
HETATM    6  C   UNL     1      -9.639   7.420  67.221  1.00  0.00    -0.191 A  
HETATM    7  C   UNL     1      -9.578   8.584  66.442  1.00  0.00    -0.314 A  
HETATM    8  C   UNL     1      -8.920   8.575  65.211  1.00  0.00    -0.102 A  
HETATM    9  C   UNL     1      -8.371   6.238  65.560  1.00  0.00    -0.147 A  
HETATM   10  C   UNL     1      -8.311   7.393  64.779  1.00  0.00     0.000 A  
BRANCH   8  11
HETATM   11  C   UNL     1      -8.897   9.824  64.397  1.00  0.00    -0.227 C  
HETATM   12  O   UNL     1      -8.386   9.810  63.279  1.00  0.00    -0.143 OA 
BRANCH  11  13
HETATM   13  C   UNL     1      -9.515  11.071  64.999  1.00  0.00    -0.269 C  
BRANCH  13  14
HETATM   14  C   UNL     1     -10.731  11.544  64.210  1.00  0.00    -0.416 C  
BRANCH  14  15
HETATM   15  C   UNL     1     -10.697  13.048  63.930  1.00  0.00    -0.284 C  
BRANCH  15  16
HETATM   16  N   UNL     1     -10.886  13.925  65.096  1.00  0.00    -0.337 NA 
HETATM   17  C   UNL     1     -12.128  13.716  65.858  1.00  0.00    -0.439 C  
HETATM   18  C   UNL     1     -12.145  12.480  66.767  1.00  0.00    -0.180 C  
HETATM   19  C   UNL     1     -10.896  12.363  67.649  1.00  0.00    -0.225 C  
HETATM   20  C   UNL     1      -9.655  12.521  66.768  1.00  0.00    -0.231 C  
HETATM   21  C   UNL     1      -9.725  13.848  66.000  1.00  0.00    -0.250 C  
BRANCH  19  22
HETATM   22  O   UNL     1     -10.747  13.364  68.656  1.00  0.00    -0.248 OA 
BRANCH  22  23
HETATM   23  C   UNL     1     -10.942  13.032  70.033  1.00  0.00     0.635 C  
BRANCH  23  24
HETATM   24  C   UNL     1     -11.136  11.516  70.099  1.00  0.00     0.153 A  
HETATM   25  C   UNL     1     -12.334  10.907  69.674  1.00  0.00    -0.290 A  
HETATM   26  C   UNL     1     -12.493   9.520  69.724  1.00  0.00     0.860 A  
HETATM   27  C   UNL     1     -10.114  10.692  70.592  1.00  0.00     1.204 A  
HETATM   28  C   UNL     1     -11.459   8.719  70.204  1.00  0.00    -0.027 A  
HETATM   29  C   UNL     1     -10.273   9.305  70.641  1.00  0.00    -0.335 A  
ENDBRANCH  23  24
BRANCH  23  30
HETATM   30  C   UNL     1     -12.090  13.796  70.678  1.00  0.00    -0.405 A  
HETATM   31  C   UNL     1     -14.161  15.185  71.982  1.00  0.00    -0.659 A  
HETATM   32  C   UNL     1     -14.109  13.795  72.040  1.00  0.00    -0.522 A  
HETATM   33  C   UNL     1     -12.185  15.193  70.588  1.00  0.00    -0.401 A  
HETATM   34  C   UNL     1     -13.207  15.884  71.243  1.00  0.00    -0.075 A  
HETATM   35  C   UNL     1     -13.083  13.103  71.392  1.00  0.00    -0.352 A  
ENDBRANCH  23  30
ENDBRANCH  22  23
ENDBRANCH  19  22
ENDBRANCH  15  16
ENDBRANCH  14  15
ENDBRANCH  13  14
ENDBRANCH  11  13
ENDBRANCH   8  11
ENDBRANCH   2   5
TORSDOF 10
ENDMDL
MODEL      242
REMARK 921   NORMALIZED FREE ENERGY PREDICTED BY IDOCK:    0.82 KCAL/MOL
REMARK 922        TOTAL FREE ENERGY PREDICTED BY IDOCK:   -1.63 KCAL/MOL
REMARK 923 INTER-LIGAND FREE ENERGY PREDICTED BY IDOCK:   -5.61 KCAL/MOL
REMARK 924 INTRA-LIGAND FREE ENERGY PREDICTED BY IDOCK:    3.97 KCAL/MOL
REMARK 927      BINDING AFFINITY PREDICTED BY RF-SCORE:    0.00 PKD
ROOT
HETATM    1  C   UNL     1     -10.091   6.838  72.589  1.00  0.00    -0.193 C  
HETATM    2  C   UNL     1      -8.569   6.714  72.364  1.00  0.00    -0.124 C  
HETATM    3  C   UNL     1      -8.240   5.209  72.246  1.00  0.00    -0.121 C  
HETATM    4  C   UNL     1      -7.870   7.283  73.618  1.00  0.00    -0.129 C  
ENDROOT
BRANCH   2   5
HETATM    5  C   UNL     1      -8.083   7.446  71.106  1.00  0.00    -0.101 A  
HETATM    6  C   UNL     1      -7.424   8.682  71.153  1.00  0.00    -0.104 A  
HETATM    7  C   UNL     1      -7.013   9.338  69.983  1.00  0.00    -0.060 A  
HETATM    8  C   UNL     1      -7.261   8.770  68.732  1.00  0.00    -0.075 A  
HETATM    9  C   UNL     1      -8.314   6.884  69.835  1.00  0.00    -0.139 A  
HETATM   10  C   UNL     1      -7.910   7.534  68.668  1.00  0.00    -0.121 A  
BRANCH   8  11
HETATM   11  C   UNL     1      -6.832   9.507  67.509  1.00  0.00    -0.083 C  
HETATM   12  O   UNL     1      -5.645   9.787  67.355  1.00  0.00    -0.039 OA 
BRANCH  11  13
HETATM   13  C   UNL     1      -7.899   9.880  66.499  1.00  0.00    -0.110 C  
BRANCH  13  14
HETATM   14  C   UNL     1      -7.938  11.383  66.238  1.00  0.00    -0.037 C  
BRANCH  14  15
HETATM   15  C   UNL     1      -6.780  12.123  66.910  1.00  0.00     0.006 C  
BRANCH  15  16
HETATM   16  N   UNL     1      -7.085  12.760  68.200  1.00  0.00    -0.093 NA 
HETATM   17  C   UNL     1      -7.468  14.179  68.138  1.00  0.00    -0.129 C  
HETATM   18  C   UNL     1      -8.896  14.457  67.649  1.00  0.00    -0.193 C  
HETATM   19  C   UNL     1      -9.954  13.600  68.356  1.00  0.00    -0.235 C  
HETATM   20  C   UNL     1      -9.510  12.136  68.311  1.00  0.00    -0.204 C  
HETATM   21  C   UNL     1      -8.112  11.995  68.930  1.00  0.00     0.103 C  
BRANCH  19  22
HETATM   22  O   UNL     1     -10.149  13.871  69.744  1.00  0.00     0.476 OA 
BRANCH  22  23
HETATM   23  C   UNL     1     -10.321  15.217  70.195  1.00  0.00    -0.187 C  
BRANCH  23  24
HETATM   24  C   UNL     1     -11.650  15.265  70.950  1.00  0.00    -0.382 A  
HETATM   25  C   UNL     1     -11.697  15.400  72.351  1.00  0.00    -0.565 A  
HETATM   26  C   UNL     1     -12.918  15.459  73.028  1.00  0.00    -0.598 A  
HETATM   27  C   UNL     1     -12.864  15.174  70.253  1.00  0.00    -0.284 A  
HETATM   28  C   UNL     1     -14.112  15.381  72.315  1.00  0.00    -0.660 A  
HETATM   29  C   UNL     1     -14.084  15.234  70.930  1.00  0.00    -0.184 A  
ENDBRANCH  23  24
BRANCH  23  30
HETATM   30  C   UNL     1     -10.251  16.240  69.070  1.00  0.00    -0.261 A  
HETATM   31  C   UNL     1     -10.033  18.064  66.938  1.00  0.00    -0.340 A  
HETATM   32  C   UNL     1      -9.042  18.012  67.915  1.00  0.00    -0.269 A  
HETATM   33  C   UNL     1     -11.265  16.341  68.104  1.00  0.00    -0.298 A  
HETATM   34  C   UNL     1     -11.152  17.239  67.040  1.00  0.00     0.250 A  
HETATM   35  C   UNL     1      -9.150  17.108  68.975  1.00  0.00    -0.123 A  
ENDBRANCH  23  30
ENDBRANCH  22  23
ENDBRANCH  19  22
ENDBRANCH  15  16
ENDBRANCH  14  15
ENDBRANCH  13  14
ENDBRANCH  11  13
ENDBRANCH   8  11
ENDBRANCH   2   5
TORSDOF 10
ENDMDL
MODEL      243
REMARK 921   NORMALIZED FREE ENERGY PREDICTED BY IDOCK:    0.98 KCAL/MOL
REMARK 922        TOTAL FREE ENERGY PREDICTED BY IDOCK:   -1.37 KCAL/MOL
REMARK 923 INTER-LIGAND FREE ENERGY PREDICTED BY IDOCK:   -2.35 KCAL/MOL
REMARK 924 INTRA-LIGAND FREE ENERGY PREDICTED BY IDOCK:    0.98 KCAL/MOL
REMARK 927      BINDING AFFINITY PREDICTED BY RF-SCORE:    0.00 PKD
ROOT
HETATM    1  C   UNL     1     -11.751  10.241  71.706  1.00  0.00     0.210 C  
HETATM    2  C   UNL     1     -12.388  10.803  70.416  1.00  0.00    -0.438 C  
HETATM    3  C   UNL     1     -12.869  12.238  70.725  1.00  0.00    -0.101 C  
HETATM    4  C   UNL     1     -13.614   9.923  70.086  1.00  0.00     0.851 C  
ENDROOT
BRANCH   2   5
HETATM    5  C   UNL     1     -11.418  10.830  69.227  1.00  0.00    -0.369 A  
HETATM    6  C   UNL     1     -10.420  11.805  69.084  1.00  0.00    -0.060 A  
HETATM    7  C   UNL     1      -9.563  11.817  67.974  1.00  0.00    -0.187 A  
HETATM    8  C   UNL     1      -9.692  10.854  66.972  1.00  0.00    -0.203 A  
HETATM    9  C   UNL     1     -11.524   9.859  68.213  1.00  0.00     0.099 A  
HETATM   10  C   UNL     1     -10.677   9.870  67.104  1.00  0.00    -0.276 A  
BRANCH   8  11
HETATM   11  C   UNL     1      -8.780  10.912  65.794  1.00  0.00    -0.190 C  
HETATM   12  O   UNL     1      -8.162  11.948  65.557  1.00  0.00     0.517 OA 
BRANCH  11  13
HETATM   13  C   UNL     1      -8.658   9.671  64.933  1.00  0.00    -0.188 C  
BRANCH  13  14
HETATM   14  C   UNL     1      -7.247   9.090  64.964  1.00  0.00    -0.092 C  
BRANCH  14  15
HETATM   15  C   UNL     1      -6.473   9.501  66.219  1.00  0.00    -0.070 C  
BRANCH  15  16
HETATM   16  N   UNL     1      -6.136   8.414  67.151  1.00  0.00    -0.054 NA 
HETATM   17  C   UNL     1      -7.275   7.785  67.839  1.00  0.00    -0.090 C  
HETATM   18  C   UNL     1      -8.106   6.816  66.989  1.00  0.00    -0.109 C  
HETATM   19  C   UNL     1      -7.251   5.794  66.229  1.00  0.00    -0.077 C  
HETATM   20  C   UNL     1      -6.138   6.539  65.488  1.00  0.00    -0.034 C  
HETATM   21  C   UNL     1      -5.325   7.383  66.480  1.00  0.00    -0.024 C  
BRANCH  19  22
HETATM   22  O   UNL     1      -6.564   4.835  67.033  1.00  0.00    -0.047 OA 
BRANCH  22  23
HETATM   23  C   UNL     1      -7.223   3.632  67.434  1.00  0.00    -0.059 C  
BRANCH  23  24
HETATM   24  C   UNL     1      -8.197   3.265  66.313  1.00  0.00    -0.097 A  
HETATM   25  C   UNL     1      -8.233   1.969  65.762  1.00  0.00    -0.089 A  
HETATM   26  C   UNL     1      -9.138   1.642  64.750  1.00  0.00    -0.123 A  
HETATM   27  C   UNL     1      -9.085   4.225  65.805  1.00  0.00    -0.135 A  
HETATM   28  C   UNL     1     -10.020   2.607  64.269  1.00  0.00    -0.062 A  
HETATM   29  C   UNL     1      -9.990   3.897  64.793  1.00  0.00    -0.203 A  
ENDBRANCH  23  24
BRANCH  23  30
HETATM   30  C   UNL     1      -7.909   3.746  68.789  1.00  0.00    -0.055 A  
HETATM   31  C   UNL     1      -9.232   3.848  71.270  1.00  0.00    -0.197 A  
HETATM   32  C   UNL     1      -9.939   4.078  70.092  1.00  0.00    -0.084 A  
HETATM   33  C   UNL     1      -7.201   3.566  69.988  1.00  0.00    -0.041 A  
HETATM   34  C   UNL     1      -7.860   3.606  71.219  1.00  0.00    -0.059 A  
HETATM   35  C   UNL     1      -9.283   4.029  68.860  1.00  0.00    -0.210 A  
ENDBRANCH  23  30
ENDBRANCH  22  23
ENDBRANCH  19  22
ENDBRANCH  15  16
ENDBRANCH  14  15
ENDBRANCH  13  14
ENDBRANCH  11  13
ENDBRANCH   8  11
ENDBRANCH   2   5
TORSDOF 10
ENDMDL
MODEL      244
REMARK 921   NORMALIZED FREE ENERGY PREDICTED BY IDOCK:    1.35 KCAL/MOL
REMARK 922        TOTAL FREE ENERGY PREDICTED BY IDOCK:   -0.78 KCAL/MOL
REMARK 923 INTER-LIGAND FREE ENERGY PREDICTED BY IDOCK:   -1.85 KCAL/MOL
REMARK 924 INTRA-LIGAND FREE ENERGY PREDICTED BY IDOCK:    1.06 KCAL/MOL
REMARK 927      BINDING AFFINITY PREDICTED BY RF-SCORE:    0.00 PKD
ROOT
HETATM    1  C   UNL     1     -12.409   8.050  70.987  1.00  0.00    -0.164 C  
HETATM    2  C   UNL     1     -11.200   7.096  70.881  1.00  0.00    -0.305 C  
HETATM    3  C   UNL     1     -11.219   6.482  69.464  1.00  0.00    -0.434 C  
HETATM    4  C   UNL     1     -11.407   5.972  71.918  1.00  0.00    -0.335 C  
ENDROOT
BRANCH   2   5
HETATM    5  C   UNL     1      -9.856   7.798  71.119  1.00  0.00    -0.187 A  
HETATM    6  C   UNL     1      -8.953   7.393  72.112  1.00  0.00    -0.154 A  
HETATM    7  C   UNL     1      -7.742   8.070  72.320  1.00  0.00    -0.140 A  
HETATM    8  C   UNL     1      -7.410   9.178  71.539  1.00  0.00     0.035 A  
HETATM    9  C   UNL     1      -9.498   8.910  70.333  1.00  0.00    -0.227 A  
HETATM   10  C   UNL     1      -8.296   9.590  70.539  1.00  0.00    -0.203 A  
BRANCH   8  11
HETATM   11  C   UNL     1      -6.126   9.888  71.805  1.00  0.00     0.292 C  
HETATM   12  O   UNL     1      -5.833  10.200  72.957  1.00  0.00    -0.050 OA 
BRANCH  11  13
HETATM   13  C   UNL     1      -5.230  10.194  70.621  1.00  0.00    -0.050 C  
BRANCH  13  14
HETATM   14  C   UNL     1      -5.459   9.225  69.465  1.00  0.00    -0.034 C  
BRANCH  14  15
HETATM   15  C   UNL     1      -5.762   9.946  68.149  1.00  0.00    -0.039 C  
BRANCH  15  16
HETATM   16  N   UNL     1      -6.214  11.340  68.269  1.00  0.00    -0.046 NA 
HETATM   17  C   UNL     1      -6.189  12.129  67.026  1.00  0.00    -0.097 C  
HETATM   18  C   UNL     1      -7.320  11.834  66.033  1.00  0.00     0.619 C  
HETATM   19  C   UNL     1      -8.708  11.822  66.685  1.00  0.00    -0.186 C  
HETATM   20  C   UNL     1      -8.662  10.924  67.924  1.00  0.00    -0.131 C  
HETATM   21  C   UNL     1      -7.556  11.404  68.875  1.00  0.00    -0.114 C  
BRANCH  19  22
HETATM   22  O   UNL     1      -9.178  13.079  67.173  1.00  0.00    -0.210 OA 
BRANCH  22  23
HETATM   23  C   UNL     1      -8.792  14.291  66.521  1.00  0.00    -0.063 C  
BRANCH  23  24
HETATM   24  C   UNL     1      -8.261  15.229  67.607  1.00  0.00    -0.175 A  
HETATM   25  C   UNL     1      -8.120  14.803  68.943  1.00  0.00    -0.160 A  
HETATM   26  C   UNL     1      -7.620  15.663  69.923  1.00  0.00     0.116 A  
HETATM   27  C   UNL     1      -7.902  16.547  67.291  1.00  0.00    -0.185 A  
HETATM   28  C   UNL     1      -7.255  16.965  69.585  1.00  0.00     0.221 A  
HETATM   29  C   UNL     1      -7.401  17.407  68.272  1.00  0.00    -0.214 A  
ENDBRANCH  23  24
BRANCH  23  30
HETATM   30  C   UNL     1      -9.914  14.919  65.706  1.00  0.00    -0.376 A  
HETATM   31  C   UNL     1     -11.907  16.163  64.158  1.00  0.00     0.224 A  
HETATM   32  C   UNL     1     -11.451  16.769  65.326  1.00  0.00     0.574 A  
HETATM   33  C   UNL     1     -10.420  14.298  64.553  1.00  0.00    -0.172 A  
HETATM   34  C   UNL     1     -11.402  14.920  63.779  1.00  0.00     0.856 A  
HETATM   35  C   UNL     1     -10.463  16.152  66.096  1.00  0.00    -0.334 A  
ENDBRANCH  23  30
ENDBRANCH  22  23
ENDBRANCH  19  22
ENDBRANCH  15  16
ENDBRANCH  14  15
ENDBRANCH  13  14
ENDBRANCH  11  13
ENDBRANCH   8  11
ENDBRANCH   2   5
TORSDOF 10
ENDMDL
MODEL      245
REMARK 921   NORMALIZED FREE ENERGY PREDICTED BY IDOCK:    1.35 KCAL/MOL
REMARK 922        TOTAL FREE ENERGY PREDICTED BY IDOCK:   -0.78 KCAL/MOL
REMARK 923 INTER-LIGAND FREE ENERGY PREDICTED BY IDOCK:   -2.76 KCAL/MOL
REMARK 924 INTRA-LIGAND FREE ENERGY PREDICTED BY IDOCK:    1.98 KCAL/MOL
REMARK 927      BINDING AFFINITY PREDICTED BY RF-SCORE:    0.00 PKD
ROOT
HETATM    1  C   UNL     1      -9.272   6.068  64.870  1.00  0.00     0.511 C  
HETATM    2  C   UNL     1      -9.461   5.617  66.335  1.00  0.00    -0.170 C  
HETATM    3  C   UNL     1      -9.115   4.113  66.403  1.00  0.00    -0.136 C  
HETATM    4  C   UNL     1     -10.952   5.806  66.686  1.00  0.00    -0.208 C  
ENDROOT
BRANCH   2   5
HETATM    5  C   UNL     1      -8.579   6.392  67.323  1.00  0.00    -0.110 A  
HETATM    6  C   UNL     1      -8.588   6.147  68.703  1.00  0.00    -0.113 A  
HETATM    7  C   UNL     1      -7.788   6.889  69.584  1.00  0.00    -0.119 A  
HETATM    8  C   UNL     1      -6.961   7.904  69.100  1.00  0.00    -0.057 A  
HETATM    9  C   UNL     1      -7.730   7.412  66.853  1.00  0.00    -0.110 A  
HETATM   10  C   UNL     1      -6.934   8.156  67.725  1.00  0.00    -0.078 A  
BRANCH   8  11
HETATM   11  C   UNL     1      -6.142   8.688  70.068  1.00  0.00    -0.030 C  
HETATM   12  O   UNL     1      -5.129   8.186  70.552  1.00  0.00    -0.023 OA 
BRANCH  11  13
HETATM   13  C   UNL     1      -6.606  10.089  70.413  1.00  0.00    -0.132 C  
BRANCH  13  14
HETATM   14  C   UNL     1      -8.078  10.122  70.813  1.00  0.00     0.963 C  
BRANCH  14  15
HETATM   15  C   UNL     1      -9.000   9.648  69.687  1.00  0.00    -0.203 C  
BRANCH  15  16
HETATM   16  N   UNL     1      -8.943  10.425  68.439  1.00  0.00    -0.132 NA 
HETATM   17  C   UNL     1     -10.197  11.085  68.039  1.00  0.00    -0.179 C  
HETATM   18  C   UNL     1     -10.558  12.351  68.827  1.00  0.00    -0.213 C  
HETATM   19  C   UNL     1      -9.393  13.342  68.944  1.00  0.00     0.252 C  
HETATM   20  C   UNL     1      -8.153  12.587  69.431  1.00  0.00     0.913 C  
HETATM   21  C   UNL     1      -7.851  11.414  68.488  1.00  0.00    -0.140 C  
BRANCH  19  22
HETATM   22  O   UNL     1      -8.977  13.961  67.726  1.00  0.00    -0.171 OA 
BRANCH  22  23
HETATM   23  C   UNL     1      -9.729  15.047  67.181  1.00  0.00    -0.226 C  
BRANCH  23  24
HETATM   24  C   UNL     1     -10.612  14.464  66.076  1.00  0.00    -0.304 A  
HETATM   25  C   UNL     1     -10.058  13.923  64.899  1.00  0.00    -0.294 A  
HETATM   26  C   UNL     1     -10.873  13.379  63.904  1.00  0.00    -0.075 A  
HETATM   27  C   UNL     1     -12.008  14.458  66.213  1.00  0.00    -0.391 A  
HETATM   28  C   UNL     1     -12.256  13.370  64.067  1.00  0.00    -0.466 A  
HETATM   29  C   UNL     1     -12.822  13.913  65.218  1.00  0.00    -0.437 A  
ENDBRANCH  23  24
BRANCH  23  30
HETATM   30  C   UNL     1      -8.857  16.194  66.688  1.00  0.00    -0.298 A  
HETATM   31  C   UNL     1      -7.284  18.379  65.873  1.00  0.00    -0.267 A  
HETATM   32  C   UNL     1      -8.667  18.423  65.726  1.00  0.00     0.419 A  
HETATM   33  C   UNL     1      -7.458  16.146  66.784  1.00  0.00    -0.246 A  
HETATM   34  C   UNL     1      -6.677  17.235  66.389  1.00  0.00    -0.289 A  
HETATM   35  C   UNL     1      -9.450  17.338  66.128  1.00  0.00    -0.204 A  
ENDBRANCH  23  30
ENDBRANCH  22  23
ENDBRANCH  19  22
ENDBRANCH  15  16
ENDBRANCH  14  15
ENDBRANCH  13  14
ENDBRANCH  11  13
ENDBRANCH   8  11
ENDBRANCH   2   5
TORSDOF 10
ENDMDL
MODEL      246
REMARK 921   NORMALIZED FREE ENERGY PREDICTED BY IDOCK:    1.58 KCAL/MOL
REMARK 922        TOTAL FREE ENERGY PREDICTED BY IDOCK:   -0.43 KCAL/MOL
REMARK 923 INTER-LIGAND FREE ENERGY PREDICTED BY IDOCK:   -2.64 KCAL/MOL
REMARK 924 INTRA-LIGAND FREE ENERGY PREDICTED BY IDOCK:    2.21 KCAL/MOL
REMARK 927      BINDING AFFINITY PREDICTED BY RF-SCORE:    0.00 PKD
ROOT
HETATM    1  C   UNL     1     -13.051   9.034  70.244  1.00  0.00     1.089 C  
HETATM    2  C   UNL     1     -12.357  10.408  70.357  1.00  0.00    -0.370 C  
HETATM    3  C   UNL     1     -11.947  10.600  71.834  1.00  0.00     0.528 C  
HETATM    4  C   UNL     1     -13.400  11.483  69.982  1.00  0.00     1.289 C  
ENDROOT
BRANCH   2   5
HETATM    5  C   UNL     1     -11.118  10.533  69.459  1.00  0.00    -0.320 A  
HETATM    6  C   UNL     1     -10.885  11.645  68.637  1.00  0.00    -0.253 A  
HETATM    7  C   UNL     1      -9.754  11.719  67.810  1.00  0.00    -0.185 A  
HETATM    8  C   UNL     1      -8.831  10.673  67.782  1.00  0.00    -0.133 A  
HETATM    9  C   UNL     1     -10.169   9.494  69.426  1.00  0.00    -0.215 A  
HETATM   10  C   UNL     1      -9.044   9.561  68.602  1.00  0.00    -0.132 A  
BRANCH   8  11
HETATM   11  C   UNL     1      -7.654  10.775  66.873  1.00  0.00    -0.123 C  
HETATM   12  O   UNL     1      -7.506   9.946  65.977  1.00  0.00    -0.099 OA 
BRANCH  11  13
HETATM   13  C   UNL     1      -6.682  11.916  67.101  1.00  0.00    -0.142 C  
BRANCH  13  14
HETATM   14  C   UNL     1      -5.520  11.506  68.001  1.00  0.00    -0.044 C  
BRANCH  14  15
HETATM   15  C   UNL     1      -5.328  12.463  69.179  1.00  0.00    -0.068 C  
BRANCH  15  16
HETATM   16  N   UNL     1      -5.243  13.892  68.841  1.00  0.00    -0.071 NA 
HETATM   17  C   UNL     1      -5.984  14.309  67.639  1.00  0.00    -0.025 C  
HETATM   18  C   UNL     1      -7.504  14.426  67.807  1.00  0.00    -0.182 C  
HETATM   19  C   UNL     1      -7.914  15.228  69.049  1.00  0.00    -0.195 C  
HETATM   20  C   UNL     1      -7.152  14.682  70.259  1.00  0.00     0.199 C  
HETATM   21  C   UNL     1      -5.642  14.726  69.989  1.00  0.00    -0.114 C  
BRANCH  19  22
HETATM   22  O   UNL     1      -7.596  16.619  69.025  1.00  0.00    -0.226 OA 
BRANCH  22  23
HETATM   23  C   UNL     1      -8.347  17.512  68.197  1.00  0.00    -0.249 C  
BRANCH  23  24
HETATM   24  C   UNL     1      -9.292  16.650  67.359  1.00  0.00    -0.223 A  
HETATM   25  C   UNL     1     -10.312  15.882  67.954  1.00  0.00    -0.269 A  
HETATM   26  C   UNL     1     -11.179  15.111  67.176  1.00  0.00    -0.320 A  
HETATM   27  C   UNL     1      -9.159  16.606  65.963  1.00  0.00    -0.259 A  
HETATM   28  C   UNL     1     -11.039  15.093  65.790  1.00  0.00    -0.330 A  
HETATM   29  C   UNL     1     -10.028  15.836  65.186  1.00  0.00    -0.050 A  
ENDBRANCH  23  24
BRANCH  23  30
HETATM   30  C   UNL     1      -7.471  18.418  67.343  1.00  0.00    -0.221 A  
HETATM   31  C   UNL     1      -5.769  20.000  65.756  1.00  0.00    -0.191 A  
HETATM   32  C   UNL     1      -5.435  19.729  67.080  1.00  0.00    -0.167 A  
HETATM   33  C   UNL     1      -7.817  18.741  66.022  1.00  0.00    -0.199 A  
HETATM   34  C   UNL     1      -6.967  19.518  65.230  1.00  0.00    -0.168 A  
HETATM   35  C   UNL     1      -6.280  18.946  67.870  1.00  0.00    -0.207 A  
ENDBRANCH  23  30
ENDBRANCH  22  23
ENDBRANCH  19  22
ENDBRANCH  15  16
ENDBRANCH  14  15
ENDBRANCH  13  14
ENDBRANCH  11  13
ENDBRANCH   8  11
ENDBRANCH   2   5
TORSDOF 10
ENDMDL
MODEL      247
REMARK 921   NORMALIZED FREE ENERGY PREDICTED BY IDOCK:    1.90 KCAL/MOL
REMARK 922        TOTAL FREE ENERGY PREDICTED BY IDOCK:    0.09 KCAL/MOL
REMARK 923 INTER-LIGAND FREE ENERGY PREDICTED BY IDOCK:   -1.96 KCAL/MOL
REMARK 924 INTRA-LIGAND FREE ENERGY PREDICTED BY IDOCK:    2.04 KCAL/MOL
REMARK 927      BINDING AFFINITY PREDICTED BY RF-SCORE:    0.00 PKD
ROOT
HETATM    1  C   UNL     1     -10.121   6.800  74.025  1.00  0.00    -0.389 C  
HETATM    2  C   UNL     1     -10.294   6.032  72.696  1.00  0.00    -0.222 C  
HETATM    3  C   UNL     1     -11.512   5.096  72.859  1.00  0.00    -0.329 C  
HETATM    4  C   UNL     1      -9.027   5.174  72.491  1.00  0.00    -0.136 C  
ENDROOT
BRANCH   2   5
HETATM    5  C   UNL     1     -10.512   6.955  71.490  1.00  0.00    -0.231 A  
HETATM    6  C   UNL     1     -11.151   8.199  71.591  1.00  0.00    -0.310 A  
HETATM    7  C   UNL     1     -11.356   9.010  70.466  1.00  0.00    -0.282 A  
HETATM    8  C   UNL     1     -10.932   8.588  69.205  1.00  0.00     0.023 A  
HETATM    9  C   UNL     1     -10.080   6.552  70.212  1.00  0.00    -0.208 A  
HETATM   10  C   UNL     1     -10.285   7.354  69.088  1.00  0.00    -0.196 A  
BRANCH   8  11
HETATM   11  C   UNL     1     -11.189   9.465  68.027  1.00  0.00     0.226 C  
HETATM   12  O   UNL     1     -12.010  10.375  68.117  1.00  0.00    -0.263 OA 
BRANCH  11  13
HETATM   13  C   UNL     1     -10.411   9.187  66.756  1.00  0.00    -0.308 C  
BRANCH  13  14
HETATM   14  C   UNL     1     -10.789  10.147  65.633  1.00  0.00     0.362 C  
BRANCH  14  15
HETATM   15  C   UNL     1      -9.574  10.868  65.045  1.00  0.00    -0.251 C  
BRANCH  15  16
HETATM   16  N   UNL     1      -9.638  12.338  65.040  1.00  0.00    -0.046 NA 
HETATM   17  C   UNL     1     -10.580  12.940  65.997  1.00  0.00    -0.270 C  
HETATM   18  C   UNL     1     -10.117  12.953  67.460  1.00  0.00    -0.214 C  
HETATM   19  C   UNL     1      -8.690  13.485  67.637  1.00  0.00    -0.194 C  
HETATM   20  C   UNL     1      -7.768  12.757  66.656  1.00  0.00     0.446 C  
HETATM   21  C   UNL     1      -8.296  12.920  65.223  1.00  0.00     2.789 C  
BRANCH  19  22
HETATM   22  O   UNL     1      -8.500  14.869  67.343  1.00  0.00    -0.169 OA 
BRANCH  22  23
HETATM   23  C   UNL     1      -9.537  15.812  67.628  1.00  0.00    -0.220 C  
BRANCH  23  24
HETATM   24  C   UNL     1     -10.559  15.703  66.494  1.00  0.00    -0.307 A  
HETATM   25  C   UNL     1     -11.828  15.128  66.700  1.00  0.00     0.038 A  
HETATM   26  C   UNL     1     -12.759  15.049  65.661  1.00  0.00     0.493 A  
HETATM   27  C   UNL     1     -10.247  16.178  65.212  1.00  0.00    -0.202 A  
HETATM   28  C   UNL     1     -12.434  15.540  64.398  1.00  0.00     0.096 A  
HETATM   29  C   UNL     1     -11.178  16.099  64.174  1.00  0.00     0.172 A  
ENDBRANCH  23  24
BRANCH  23  30
HETATM   30  C   UNL     1      -9.022  17.232  67.815  1.00  0.00    -0.234 A  
HETATM   31  C   UNL     1      -7.971  19.827  68.094  1.00  0.00    -0.334 A  
HETATM   32  C   UNL     1      -7.406  18.767  68.797  1.00  0.00    -0.342 A  
HETATM   33  C   UNL     1      -9.611  18.320  67.151  1.00  0.00    -0.281 A  
HETATM   34  C   UNL     1      -9.083  19.607  67.281  1.00  0.00    -0.396 A  
HETATM   35  C   UNL     1      -7.929  17.478  68.662  1.00  0.00    -0.268 A  
ENDBRANCH  23  30
ENDBRANCH  22  23
ENDBRANCH  19  22
ENDBRANCH  15  16
ENDBRANCH  14  15
ENDBRANCH  13  14
ENDBRANCH  11  13
ENDBRANCH   8  11
ENDBRANCH   2   5
TORSDOF 10
ENDMDL
MODEL      248
REMARK 921   NORMALIZED FREE ENERGY PREDICTED BY IDOCK:    1.93 KCAL/MOL
REMARK 922        TOTAL FREE ENERGY PREDICTED BY IDOCK:    0.12 KCAL/MOL
REMARK 923 INTER-LIGAND FREE ENERGY PREDICTED BY IDOCK:    1.81 KCAL/MOL
REMARK 924 INTRA-LIGAND FREE ENERGY PREDICTED BY IDOCK:   -1.68 KCAL/MOL
REMARK 927      BINDING AFFINITY PREDICTED BY RF-SCORE:    0.00 PKD
ROOT
HETATM    1  C   UNL     1      -6.731   7.600  68.286  1.00  0.00    -0.062 C  
HETATM    2  C   UNL     1      -6.468   6.247  68.982  1.00  0.00    -0.043 C  
HETATM    3  C   UNL     1      -5.138   6.377  69.757  1.00  0.00    -0.013 C  
HETATM    4  C   UNL     1      -6.302   5.184  67.874  1.00  0.00    -0.040 C  
ENDROOT
BRANCH   2   5
HETATM    5  C   UNL     1      -7.588   5.838  69.948  1.00  0.00    -0.080 A  
HETATM    6  C   UNL     1      -8.532   4.847  69.641  1.00  0.00    -0.090 A  
HETATM    7  C   UNL     1      -9.559   4.512  70.536  1.00  0.00    -0.274 A  
HETATM    8  C   UNL     1      -9.669   5.170  71.761  1.00  0.00    -0.212 A  
HETATM    9  C   UNL     1      -7.708   6.482  71.194  1.00  0.00    -0.098 A  
HETATM   10  C   UNL     1      -8.731   6.155  72.087  1.00  0.00    -0.131 A  
BRANCH   8  11
HETATM   11  C   UNL     1     -10.787   4.805  72.677  1.00  0.00    -0.175 C  
HETATM   12  O   UNL     1     -10.658   3.850  73.441  1.00  0.00    -0.162 OA 
BRANCH  11  13
HETATM   13  C   UNL     1     -12.049   5.643  72.621  1.00  0.00    -0.041 C  
BRANCH  13  14
HETATM   14  C   UNL     1     -11.997   6.680  71.503  1.00  0.00    -0.402 C  
BRANCH  14  15
HETATM   15  C   UNL     1     -13.322   7.427  71.336  1.00  0.00    -0.334 C  
BRANCH  15  16
HETATM   16  N   UNL     1     -13.255   8.892  71.456  1.00  0.00    -0.339 NA 
HETATM   17  C   UNL     1     -11.939   9.443  71.820  1.00  0.00    -0.382 C  
HETATM   18  C   UNL     1     -10.902   9.475  70.690  1.00  0.00    -0.371 C  
HETATM   19  C   UNL     1     -11.444  10.078  69.388  1.00  0.00    -0.083 C  
HETATM   20  C   UNL     1     -12.774   9.399  69.049  1.00  0.00     3.508 C  
HETATM   21  C   UNL     1     -13.748   9.540  70.228  1.00  0.00     0.978 C  
BRANCH  19  22
HETATM   22  O   UNL     1     -11.756  11.470  69.429  1.00  0.00    -0.286 OA 
BRANCH  22  23
HETATM   23  C   UNL     1     -10.727  12.428  69.691  1.00  0.00     0.440 C  
BRANCH  23  24
HETATM   24  C   UNL     1     -11.406  13.796  69.775  1.00  0.00    -0.200 A  
HETATM   25  C   UNL     1     -11.880  14.456  68.624  1.00  0.00    -0.366 A  
HETATM   26  C   UNL     1     -12.513  15.697  68.715  1.00  0.00     0.414 A  
HETATM   27  C   UNL     1     -11.571  14.429  71.016  1.00  0.00    -0.167 A  
HETATM   28  C   UNL     1     -12.680  16.302  69.960  1.00  0.00     1.185 A  
HETATM   29  C   UNL     1     -12.205  15.671  71.107  1.00  0.00    -0.466 A  
ENDBRANCH  23  24
BRANCH  23  30
HETATM   30  C   UNL     1      -9.603  12.397  68.665  1.00  0.00    -0.036 A  
HETATM   31  C   UNL     1      -7.553  12.457  66.738  1.00  0.00     0.143 A  
HETATM   32  C   UNL     1      -8.885  12.387  66.337  1.00  0.00    -0.048 A  
HETATM   33  C   UNL     1      -8.253  12.417  69.052  1.00  0.00     0.346 A  
HETATM   34  C   UNL     1      -7.236  12.457  68.096  1.00  0.00    -0.100 A  
HETATM   35  C   UNL     1      -9.903  12.355  67.293  1.00  0.00    -0.207 A  
ENDBRANCH  23  30
ENDBRANCH  22  23
ENDBRANCH  19  22
ENDBRANCH  15  16
ENDBRANCH  14  15
ENDBRANCH  13  14
ENDBRANCH  11  13
ENDBRANCH   8  11
ENDBRANCH   2   5
TORSDOF 10
ENDMDL
MODEL      249
REMARK 921   NORMALIZED FREE ENERGY PREDICTED BY IDOCK:    2.24 KCAL/MOL
REMARK 922        TOTAL FREE ENERGY PREDICTED BY IDOCK:    0.62 KCAL/MOL
REMARK 923 INTER-LIGAND FREE ENERGY PREDICTED BY IDOCK:   -3.62 KCAL/MOL
REMARK 924 INTRA-LIGAND FREE ENERGY PREDICTED BY IDOCK:    4.23 KCAL/MOL
REMARK 927      BINDING AFFINITY PREDICTED BY RF-SCORE:    0.00 PKD
ROOT
HETATM    1  C   UNL     1      -9.275   6.077  64.873  1.00  0.00     0.511 C  
HETATM    2  C   UNL     1      -9.483   5.652  66.343  1.00  0.00    -0.170 C  
HETATM    3  C   UNL     1      -9.172   4.142  66.436  1.00  0.00    -0.161 C  
HETATM    4  C   UNL     1     -10.972   5.880  66.682  1.00  0.00    -0.228 C  
ENDROOT
BRANCH   2   5
HETATM    5  C   UNL     1      -8.590   6.422  67.325  1.00  0.00    -0.110 A  
HETATM    6  C   UNL     1      -8.629   6.213  68.711  1.00  0.00    -0.120 A  
HETATM    7  C   UNL     1      -7.816   6.950  69.586  1.00  0.00    -0.119 A  
HETATM    8  C   UNL     1      -6.947   7.923  69.090  1.00  0.00    -0.057 A  
HETATM    9  C   UNL     1      -7.698   7.399  66.843  1.00  0.00    -0.110 A  
HETATM   10  C   UNL     1      -6.890   8.137  67.709  1.00  0.00    -0.073 A  
BRANCH   8  11
HETATM   11  C   UNL     1      -6.116   8.703  70.050  1.00  0.00    -0.030 C  
HETATM   12  O   UNL     1      -5.143   8.171  70.582  1.00  0.00    -0.023 OA 
BRANCH  11  13
HETATM   13  C   UNL     1      -6.518  10.138  70.328  1.00  0.00    -0.128 C  
BRANCH  13  14
HETATM   14  C   UNL     1      -8.000  10.262  70.665  1.00  0.00     0.913 C  
BRANCH  14  15
HETATM   15  C   UNL     1      -8.900   9.761  69.533  1.00  0.00    -0.193 C  
BRANCH  15  16
HETATM   16  N   UNL     1      -8.717  10.415  68.228  1.00  0.00    -0.125 NA 
HETATM   17  C   UNL     1      -9.877  11.164  67.720  1.00  0.00    -0.171 C  
HETATM   18  C   UNL     1     -10.126  12.526  68.381  1.00  0.00    -0.216 C  
HETATM   19  C   UNL     1      -8.865  13.395  68.465  1.00  0.00    -0.068 C  
HETATM   20  C   UNL     1      -7.732  12.561  69.068  1.00  0.00     0.186 C  
HETATM   21  C   UNL     1      -7.527  11.284  68.242  1.00  0.00    -0.099 C  
BRANCH  19  22
HETATM   22  O   UNL     1      -8.342  13.857  67.219  1.00  0.00    -0.187 OA 
BRANCH  22  23
HETATM   23  C   UNL     1      -8.951  14.967  66.554  1.00  0.00    -0.253 C  
BRANCH  23  24
HETATM   24  C   UNL     1      -9.351  15.969  67.638  1.00  0.00    -0.214 A  
HETATM   25  C   UNL     1     -10.658  16.003  68.164  1.00  0.00    -0.286 A  
HETATM   26  C   UNL     1     -11.007  16.911  69.166  1.00  0.00    -0.151 A  
HETATM   27  C   UNL     1      -8.413  16.885  68.136  1.00  0.00    -0.217 A  
HETATM   28  C   UNL     1     -10.056  17.803  69.657  1.00  0.00     0.290 A  
HETATM   29  C   UNL     1      -8.763  17.793  69.138  1.00  0.00     0.136 A  
ENDBRANCH  23  24
BRANCH  23  30
HETATM   30  C   UNL     1     -10.123  14.566  65.668  1.00  0.00    -0.384 A  
HETATM   31  C   UNL     1     -12.235  13.886  63.938  1.00  0.00    -0.375 A  
HETATM   32  C   UNL     1     -12.111  15.192  64.407  1.00  0.00    -0.313 A  
HETATM   33  C   UNL     1     -10.292  13.245  65.226  1.00  0.00    -0.324 A  
HETATM   34  C   UNL     1     -11.334  12.909  64.359  1.00  0.00    -0.402 A  
HETATM   35  C   UNL     1     -11.064  15.530  65.268  1.00  0.00    -0.344 A  
ENDBRANCH  23  30
ENDBRANCH  22  23
ENDBRANCH  19  22
ENDBRANCH  15  16
ENDBRANCH  14  15
ENDBRANCH  13  14
ENDBRANCH  11  13
ENDBRANCH   8  11
ENDBRANCH   2   5
TORSDOF 10
ENDMDL
MODEL      250
REMARK 921   NORMALIZED FREE ENERGY PREDICTED BY IDOCK:    3.53 KCAL/MOL
REMARK 922        TOTAL FREE ENERGY PREDICTED BY IDOCK:    2.66 KCAL/MOL
REMARK 923 INTER-LIGAND FREE ENERGY PREDICTED BY IDOCK:   -1.12 KCAL/MOL
REMARK 924 INTRA-LIGAND FREE ENERGY PREDICTED BY IDOCK:    3.78 KCAL/MOL
REMARK 927      BINDING AFFINITY PREDICTED BY RF-SCORE:    0.00 PKD
ROOT
HETATM    1  C   UNL     1      -5.924  15.912  70.098  1.00  0.00    -0.134 C  
HETATM    2  C   UNL     1      -7.104  14.974  69.763  1.00  0.00    -0.170 C  
HETATM    3  C   UNL     1      -8.172  15.818  69.033  1.00  0.00    -0.234 C  
HETATM    4  C   UNL     1      -7.689  14.474  71.101  1.00  0.00     2.731 C  
ENDROOT
BRANCH   2   5
HETATM    5  C   UNL     1      -6.698  13.785  68.882  1.00  0.00    -0.108 A  
HETATM    6  C   UNL     1      -6.012  13.938  67.669  1.00  0.00    -0.059 A  
HETATM    7  C   UNL     1      -5.675  12.833  66.874  1.00  0.00     0.569 A  
HETATM    8  C   UNL     1      -6.027  11.543  67.275  1.00  0.00    -0.100 A  
HETATM    9  C   UNL     1      -7.033  12.475  69.275  1.00  0.00     0.032 A  
HETATM   10  C   UNL     1      -6.704  11.372  68.486  1.00  0.00    -0.069 A  
BRANCH   8  11
HETATM   11  C   UNL     1      -5.674  10.393  66.393  1.00  0.00    -0.070 C  
HETATM   12  O   UNL     1      -5.133  10.604  65.309  1.00  0.00    -0.099 OA 
BRANCH  11  13
HETATM   13  C   UNL     1      -6.004   8.998  66.885  1.00  0.00    -0.056 C  
BRANCH  13  14
HETATM   14  C   UNL     1      -5.144   8.595  68.079  1.00  0.00    -0.034 C  
BRANCH  14  15
HETATM   15  C   UNL     1      -5.436   7.170  68.555  1.00  0.00    -0.021 C  
BRANCH  15  16
HETATM   16  N   UNL     1      -6.005   7.046  69.906  1.00  0.00    -0.023 NA 
HETATM   17  C   UNL     1      -5.486   7.993  70.906  1.00  0.00    -0.029 C  
HETATM   18  C   UNL     1      -6.020   9.427  70.798  1.00  0.00    -0.063 C  
HETATM   19  C   UNL     1      -7.547   9.494  70.673  1.00  0.00    -0.122 C  
HETATM   20  C   UNL     1      -7.992   8.535  69.566  1.00  0.00    -0.106 C  
HETATM   21  C   UNL     1      -7.476   7.120  69.863  1.00  0.00    -0.086 C  
BRANCH  19  22
HETATM   22  O   UNL     1      -8.286   9.079  71.822  1.00  0.00    -0.351 OA 
BRANCH  22  23
HETATM   23  C   UNL     1      -9.713   9.011  71.772  1.00  0.00    -0.241 C  
BRANCH  23  24
HETATM   24  C   UNL     1     -10.093   7.537  71.931  1.00  0.00    -0.205 A  
HETATM   25  C   UNL     1     -11.226   6.995  71.294  1.00  0.00    -0.296 A  
HETATM   26  C   UNL     1     -11.553   5.645  71.434  1.00  0.00     0.146 A  
HETATM   27  C   UNL     1      -9.310   6.687  72.726  1.00  0.00    -0.149 A  
HETATM   28  C   UNL     1     -10.754   4.814  72.217  1.00  0.00    -0.185 A  
HETATM   29  C   UNL     1      -9.637   5.336  72.865  1.00  0.00    -0.160 A  
ENDBRANCH  23  24
BRANCH  23  30
HETATM   30  C   UNL     1     -10.299   9.631  70.511  1.00  0.00    -0.359 A  
HETATM   31  C   UNL     1     -11.467  10.687  68.179  1.00  0.00    -0.303 A  
HETATM   32  C   UNL     1     -10.710   9.520  68.113  1.00  0.00    -0.247 A  
HETATM   33  C   UNL     1     -11.024  10.833  70.551  1.00  0.00     0.072 A  
HETATM   34  C   UNL     1     -11.612  11.352  69.396  1.00  0.00    -0.391 A  
HETATM   35  C   UNL     1     -10.128   8.996  69.269  1.00  0.00    -0.197 A  
ENDBRANCH  23  30
ENDBRANCH  22  23
ENDBRANCH  19  22
ENDBRANCH  15  16
ENDBRANCH  14  15
ENDBRANCH  13  14
ENDBRANCH  11  13
ENDBRANCH   8  11
ENDBRANCH   2   5
TORSDOF 10
ENDMDL
MODEL      251
REMARK 921   NORMALIZED FREE ENERGY PREDICTED BY IDOCK:    3.84 KCAL/MOL
REMARK 922        TOTAL FREE ENERGY PREDICTED BY IDOCK:    3.16 KCAL/MOL
REMARK 923 INTER-LIGAND FREE ENERGY PREDICTED BY IDOCK:   -0.93 KCAL/MOL
REMARK 924 INTRA-LIGAND FREE ENERGY PREDICTED BY IDOCK:    4.08 KCAL/MOL
REMARK 927      BINDING AFFINITY PREDICTED BY RF-SCORE:    0.00 PKD
ROOT
HETATM    1  C   UNL     1      -7.273  10.051  63.336  1.00  0.00    -0.135 C  
HETATM    2  C   UNL     1      -8.640  10.007  64.052  1.00  0.00    -0.196 C  
HETATM    3  C   UNL     1      -9.718   9.761  62.973  1.00  0.00     0.439 C  
HETATM    4  C   UNL     1      -8.873  11.394  64.687  1.00  0.00     0.251 C  
ENDROOT
BRANCH   2   5
HETATM    5  C   UNL     1      -8.725   8.910  65.122  1.00  0.00    -0.213 A  
HETATM    6  C   UNL     1      -9.680   8.922  66.148  1.00  0.00    -0.338 A  
HETATM    7  C   UNL     1      -9.717   7.918  67.126  1.00  0.00    -0.249 A  
HETATM    8  C   UNL     1      -8.788   6.877  67.103  1.00  0.00    -0.120 A  
HETATM    9  C   UNL     1      -7.803   7.846  65.109  1.00  0.00    -0.114 A  
HETATM   10  C   UNL     1      -7.833   6.845  66.082  1.00  0.00    -0.102 A  
BRANCH   8  11
HETATM   11  C   UNL     1      -8.841   5.840  68.173  1.00  0.00    -0.105 C  
HETATM   12  O   UNL     1      -9.250   4.712  67.904  1.00  0.00    -0.115 OA 
BRANCH  11  13
HETATM   13  C   UNL     1      -8.380   6.234  69.562  1.00  0.00    -0.118 C  
BRANCH  13  14
HETATM   14  C   UNL     1      -8.264   7.747  69.719  1.00  0.00    -0.129 C  
BRANCH  14  15
HETATM   15  C   UNL     1      -6.974   8.299  69.106  1.00  0.00    -0.063 C  
BRANCH  15  16
HETATM   16  N   UNL     1      -6.586   9.652  69.536  1.00  0.00    -0.047 NA 
HETATM   17  C   UNL     1      -5.258  10.107  69.093  1.00  0.00    -0.035 C  
HETATM   18  C   UNL     1      -5.163  10.533  67.623  1.00  0.00    -0.036 C  
HETATM   19  C   UNL     1      -6.278  11.498  67.200  1.00  0.00    -0.121 C  
HETATM   20  C   UNL     1      -7.624  10.914  67.636  1.00  0.00    -0.096 C  
HETATM   21  C   UNL     1      -7.609  10.638  69.146  1.00  0.00    -0.131 C  
BRANCH  19  22
HETATM   22  O   UNL     1      -6.241  12.793  67.799  1.00  0.00    -0.105 OA 
BRANCH  22  23
HETATM   23  C   UNL     1      -7.235  13.170  68.755  1.00  0.00    -0.085 C  
BRANCH  23  24
HETATM   24  C   UNL     1      -8.487  13.554  67.965  1.00  0.00    -0.176 A  
HETATM   25  C   UNL     1      -9.416  12.584  67.539  1.00  0.00    -0.185 A  
HETATM   26  C   UNL     1     -10.564  12.948  66.832  1.00  0.00    -0.262 A  
HETATM   27  C   UNL     1      -8.738  14.896  67.644  1.00  0.00    -0.181 A  
HETATM   28  C   UNL     1     -10.801  14.289  66.536  1.00  0.00    -0.304 A  
HETATM   29  C   UNL     1      -9.886  15.260  66.938  1.00  0.00    -0.242 A  
ENDBRANCH  23  24
BRANCH  23  30
HETATM   30  C   UNL     1      -6.775  14.276  69.694  1.00  0.00    -0.118 A  
HETATM   31  C   UNL     1      -5.833  16.346  71.351  1.00  0.00     0.900 A  
HETATM   32  C   UNL     1      -5.137  15.142  71.276  1.00  0.00    -0.145 A  
HETATM   33  C   UNL     1      -7.491  15.477  69.821  1.00  0.00    -0.081 A  
HETATM   34  C   UNL     1      -7.018  16.509  70.635  1.00  0.00     1.962 A  
HETATM   35  C   UNL     1      -5.605  14.113  70.455  1.00  0.00    -0.132 A  
ENDBRANCH  23  30
ENDBRANCH  22  23
ENDBRANCH  19  22
ENDBRANCH  15  16
ENDBRANCH  14  15
ENDBRANCH  13  14
ENDBRANCH  11  13
ENDBRANCH   8  11
ENDBRANCH   2   5
TORSDOF 10
ENDMDL
MODEL      252
REMARK 921   NORMALIZED FREE ENERGY PREDICTED BY IDOCK:    4.38 KCAL/MOL
REMARK 922        TOTAL FREE ENERGY PREDICTED BY IDOCK:    4.01 KCAL/MOL
REMARK 923 INTER-LIGAND FREE ENERGY PREDICTED BY IDOCK:    1.37 KCAL/MOL
REMARK 924 INTRA-LIGAND FREE ENERGY PREDICTED BY IDOCK:    2.65 KCAL/MOL
REMARK 927      BINDING AFFINITY PREDICTED BY RF-SCORE:    0.00 PKD
ROOT
HETATM    1  C   UNL     1     -11.139   9.885  65.513  1.00  0.00     1.528 C  
HETATM    2  C   UNL     1     -10.288  11.112  65.120  1.00  0.00    -0.354 C  
HETATM    3  C   UNL     1     -11.247  12.315  64.985  1.00  0.00    -0.367 C  
HETATM    4  C   UNL     1      -9.660  10.814  63.741  1.00  0.00    -0.339 C  
ENDROOT
BRANCH   2   5
HETATM    5  C   UNL     1      -9.193  11.440  66.143  1.00  0.00    -0.223 A  
HETATM    6  C   UNL     1      -7.864  11.696  65.778  1.00  0.00     0.542 A  
HETATM    7  C   UNL     1      -6.880  11.970  66.740  1.00  0.00     0.046 A  
HETATM    8  C   UNL     1      -7.206  11.985  68.097  1.00  0.00    -0.090 A  
HETATM    9  C   UNL     1      -9.504  11.472  67.516  1.00  0.00    -0.173 A  
HETATM   10  C   UNL     1      -8.528  11.740  68.478  1.00  0.00    -0.125 A  
BRANCH   8  11
HETATM   11  C   UNL     1      -6.129  12.256  69.093  1.00  0.00    -0.083 C  
HETATM   12  O   UNL     1      -5.866  11.410  69.945  1.00  0.00    -0.080 OA 
BRANCH  11  13
HETATM   13  C   UNL     1      -5.401  13.582  69.003  1.00  0.00    -0.070 C  
BRANCH  13  14
HETATM   14  C   UNL     1      -5.601  14.429  70.256  1.00  0.00    -0.122 C  
BRANCH  14  15
HETATM   15  C   UNL     1      -5.171  15.884  70.053  1.00  0.00    -0.131 C  
BRANCH  15  16
HETATM   16  N   UNL     1      -6.002  16.678  69.135  1.00  0.00    -0.153 NA 
HETATM   17  C   UNL     1      -6.568  15.946  67.990  1.00  0.00    -0.131 C  
HETATM   18  C   UNL     1      -7.764  15.041  68.311  1.00  0.00    -0.111 C  
HETATM   19  C   UNL     1      -8.845  15.741  69.144  1.00  0.00    -0.250 C  
HETATM   20  C   UNL     1      -8.180  16.413  70.347  1.00  0.00     2.443 C  
HETATM   21  C   UNL     1      -7.077  17.369  69.869  1.00  0.00     0.662 C  
BRANCH  19  22
HETATM   22  O   UNL     1      -9.548  16.798  68.490  1.00  0.00    -0.228 OA 
BRANCH  22  23
HETATM   23  C   UNL     1     -10.929  16.639  68.152  1.00  0.00    -0.327 C  
BRANCH  23  24
HETATM   24  C   UNL     1     -11.585  15.889  69.312  1.00  0.00    -0.372 A  
HETATM   25  C   UNL     1     -12.459  16.536  70.208  1.00  0.00     1.577 A  
HETATM   26  C   UNL     1     -13.065  15.837  71.254  1.00  0.00    -0.407 A  
HETATM   27  C   UNL     1     -11.326  14.524  69.509  1.00  0.00    -0.313 A  
HETATM   28  C   UNL     1     -12.805  14.478  71.423  1.00  0.00    -0.406 A  
HETATM   29  C   UNL     1     -11.934  13.825  70.555  1.00  0.00    -0.367 A  
ENDBRANCH  23  24
BRANCH  23  30
HETATM   30  C   UNL     1     -11.143  15.946  66.813  1.00  0.00    -0.064 A  
HETATM   31  C   UNL     1     -11.632  14.744  64.317  1.00  0.00    -0.215 A  
HETATM   32  C   UNL     1     -12.506  14.526  65.379  1.00  0.00    -0.265 A  
HETATM   33  C   UNL     1     -10.246  16.115  65.747  1.00  0.00    -0.397 A  
HETATM   34  C   UNL     1     -10.494  15.526  64.504  1.00  0.00     0.302 A  
HETATM   35  C   UNL     1     -12.263  15.121  66.619  1.00  0.00     0.429 A  
ENDBRANCH  23  30
ENDBRANCH  22  23
ENDBRANCH  19  22
ENDBRANCH  15  16
ENDBRANCH  14  15
ENDBRANCH  13  14
ENDBRANCH  11  13
ENDBRANCH   8  11
ENDBRANCH   2   5
TORSDOF 10
ENDMDL
MODEL      253
REMARK 921   NORMALIZED FREE ENERGY PREDICTED BY IDOCK:    4.41 KCAL/MOL
REMARK 922        TOTAL FREE ENERGY PREDICTED BY IDOCK:    4.06 KCAL/MOL
REMARK 923 INTER-LIGAND FREE ENERGY PREDICTED BY IDOCK:    0.75 KCAL/MOL
REMARK 924 INTRA-LIGAND FREE ENERGY PREDICTED BY IDOCK:    3.31 KCAL/MOL
REMARK 927      BINDING AFFINITY PREDICTED BY RF-SCORE:    0.00 PKD
ROOT
HETATM    1  C   UNL     1      -5.951  15.913  70.110  1.00  0.00    -0.134 C  
HETATM    2  C   UNL     1      -7.114  14.946  69.801  1.00  0.00    -0.156 C  
HETATM    3  C   UNL     1      -8.228  15.768  69.116  1.00  0.00    -0.247 C  
HETATM    4  C   UNL     1      -7.642  14.413  71.150  1.00  0.00     2.672 C  
ENDROOT
BRANCH   2   5
HETATM    5  C   UNL     1      -6.703  13.780  68.891  1.00  0.00    -0.108 A  
HETATM    6  C   UNL     1      -6.063  13.967  67.659  1.00  0.00    -0.078 A  
HETATM    7  C   UNL     1      -5.720  12.882  66.839  1.00  0.00     0.715 A  
HETATM    8  C   UNL     1      -6.021  11.578  67.234  1.00  0.00    -0.100 A  
HETATM    9  C   UNL     1      -6.987  12.456  69.279  1.00  0.00     0.021 A  
HETATM   10  C   UNL     1      -6.652  11.373  68.465  1.00  0.00    -0.062 A  
BRANCH   8  11
HETATM   11  C   UNL     1      -5.665  10.450  66.326  1.00  0.00    -0.075 C  
HETATM   12  O   UNL     1      -5.143  10.688  65.239  1.00  0.00    -0.099 OA 
BRANCH  11  13
HETATM   13  C   UNL     1      -5.968   9.041  66.798  1.00  0.00    -0.053 C  
BRANCH  13  14
HETATM   14  C   UNL     1      -5.130   8.651  68.011  1.00  0.00    -0.034 C  
BRANCH  14  15
HETATM   15  C   UNL     1      -5.479   7.258  68.540  1.00  0.00    -0.022 C  
BRANCH  15  16
HETATM   16  N   UNL     1      -6.104   7.212  69.870  1.00  0.00    -0.027 NA 
HETATM   17  C   UNL     1      -7.257   8.107  70.066  1.00  0.00    -0.056 C  
HETATM   18  C   UNL     1      -8.569   7.644  69.419  1.00  0.00    -0.136 C  
HETATM   19  C   UNL     1      -8.911   6.180  69.727  1.00  0.00    -0.135 C  
HETATM   20  C   UNL     1      -7.683   5.316  69.429  1.00  0.00    -0.080 C  
HETATM   21  C   UNL     1      -6.476   5.831  70.226  1.00  0.00    -0.036 C  
BRANCH  19  22
HETATM   22  O   UNL     1      -9.231   5.888  71.087  1.00  0.00    -0.148 OA 
BRANCH  22  23
HETATM   23  C   UNL     1      -9.217   4.536  71.553  1.00  0.00    -0.135 C  
BRANCH  23  24
HETATM   24  C   UNL     1      -8.123   4.446  72.619  1.00  0.00    -0.098 A  
HETATM   25  C   UNL     1      -7.727   3.210  73.166  1.00  0.00    -0.060 A  
HETATM   26  C   UNL     1      -6.716   3.139  74.127  1.00  0.00    -0.035 A  
HETATM   27  C   UNL     1      -7.486   5.608  73.079  1.00  0.00    -0.092 A  
HETATM   28  C   UNL     1      -6.087   4.304  74.560  1.00  0.00    -0.034 A  
HETATM   29  C   UNL     1      -6.475   5.536  74.040  1.00  0.00    -0.074 A  
ENDBRANCH  23  24
BRANCH  23  30
HETATM   30  C   UNL     1      -9.028   3.519  70.436  1.00  0.00    -0.168 A  
HETATM   31  C   UNL     1      -8.632   1.729  68.302  1.00  0.00    -0.094 A  
HETATM   32  C   UNL     1      -9.656   2.670  68.241  1.00  0.00    -0.105 A  
HETATM   33  C   UNL     1      -8.032   2.532  70.502  1.00  0.00    -0.050 A  
HETATM   34  C   UNL     1      -7.828   1.649  69.439  1.00  0.00    -0.048 A  
HETATM   35  C   UNL     1      -9.855   3.558  69.301  1.00  0.00     0.124 A  
ENDBRANCH  23  30
ENDBRANCH  22  23
ENDBRANCH  19  22
ENDBRANCH  15  16
ENDBRANCH  14  15
ENDBRANCH  13  14
ENDBRANCH  11  13
ENDBRANCH   8  11
ENDBRANCH   2   5
TORSDOF 10
ENDMDL
MODEL      254
REMARK 921   NORMALIZED FREE ENERGY PREDICTED BY IDOCK:    5.72 KCAL/MOL
REMARK 922        TOTAL FREE ENERGY PREDICTED BY IDOCK:    6.13 KCAL/MOL
REMARK 923 INTER-LIGAND FREE ENERGY PREDICTED BY IDOCK:    4.28 KCAL/MOL
REMARK 924 INTRA-LIGAND FREE ENERGY PREDICTED BY IDOCK:    1.85 KCAL/MOL
REMARK 927      BINDING AFFINITY PREDICTED BY RF-SCORE:    0.00 PKD
ROOT
HETATM    1  C   UNL     1     -11.740   3.319  65.827  1.00  0.00     6.488 C  
HETATM    2  C   UNL     1     -10.743   4.021  64.880  1.00  0.00    -0.108 C  
HETATM    3  C   UNL     1     -11.508   5.153  64.160  1.00  0.00     2.823 C  
HETATM    4  C   UNL     1     -10.288   2.979  63.836  1.00  0.00    -0.174 C  
ENDROOT
BRANCH   2   5
HETATM    5  C   UNL     1      -9.528   4.607  65.612  1.00  0.00    -0.178 A  
HETATM    6  C   UNL     1      -8.213   4.192  65.355  1.00  0.00    -0.105 A  
HETATM    7  C   UNL     1      -7.125   4.730  66.057  1.00  0.00    -0.075 A  
HETATM    8  C   UNL     1      -7.331   5.697  67.043  1.00  0.00    -0.080 A  
HETATM    9  C   UNL     1      -9.713   5.592  66.601  1.00  0.00    -0.176 A  
HETATM   10  C   UNL     1      -8.634   6.129  67.305  1.00  0.00    -0.103 A  
BRANCH   8  11
HETATM   11  C   UNL     1      -6.153   6.229  67.786  1.00  0.00    -0.020 C  
HETATM   12  O   UNL     1      -5.128   6.518  67.172  1.00  0.00    -0.007 OA 
BRANCH  11  13
HETATM   13  C   UNL     1      -6.280   6.391  69.288  1.00  0.00    -0.034 C  
BRANCH  13  14
HETATM   14  C   UNL     1      -5.569   7.644  69.790  1.00  0.00    -0.023 C  
BRANCH  14  15
HETATM   15  C   UNL     1      -6.539   8.663  70.394  1.00  0.00    -0.037 C  
BRANCH  15  16
HETATM   16  N   UNL     1      -7.968   8.416  70.149  1.00  0.00    -0.099 NA 
HETATM   17  C   UNL     1      -8.891   9.440  70.662  1.00  0.00    -0.220 C  
HETATM   18  C   UNL     1      -8.961  10.736  69.844  1.00  0.00     0.619 C  
HETATM   19  C   UNL     1      -9.144  10.491  68.341  1.00  0.00    -0.148 C  
HETATM   20  C   UNL     1      -8.101   9.470  67.879  1.00  0.00    -0.106 C  
HETATM   21  C   UNL     1      -8.219   8.188  68.715  1.00  0.00    -0.125 C  
BRANCH  19  22
HETATM   22  O   UNL     1     -10.394   9.925  67.949  1.00  0.00    -0.184 OA 
BRANCH  22  23
HETATM   23  C   UNL     1     -11.490  10.776  67.604  1.00  0.00    -0.151 C  
BRANCH  23  24
HETATM   24  C   UNL     1     -11.137  11.433  66.268  1.00  0.00    -0.281 A  
HETATM   25  C   UNL     1     -11.601  12.721  65.935  1.00  0.00    -0.428 A  
HETATM   26  C   UNL     1     -11.259  13.317  64.719  1.00  0.00    -0.350 A  
HETATM   27  C   UNL     1     -10.335  10.757  65.337  1.00  0.00    -0.315 A  
HETATM   28  C   UNL     1     -10.449  12.634  63.815  1.00  0.00    -0.411 A  
HETATM   29  C   UNL     1      -9.992  11.355  64.122  1.00  0.00    -0.335 A  
ENDBRANCH  23  24
BRANCH  23  30
HETATM   30  C   UNL     1     -11.823  11.794  68.685  1.00  0.00    -0.369 A  
HETATM   31  C   UNL     1     -12.367  13.612  70.762  1.00  0.00    -0.446 A  
HETATM   32  C   UNL     1     -12.943  12.344  70.777  1.00  0.00     0.032 A  
HETATM   33  C   UNL     1     -11.291  13.093  68.660  1.00  0.00    -0.327 A  
HETATM   34  C   UNL     1     -11.553  13.992  69.697  1.00  0.00    -0.348 A  
HETATM   35  C   UNL     1     -12.676  11.441  69.745  1.00  0.00     0.085 A  
ENDBRANCH  23  30
ENDBRANCH  22  23
ENDBRANCH  19  22
ENDBRANCH  15  16
ENDBRANCH  14  15
ENDBRANCH  13  14
ENDBRANCH  11  13
ENDBRANCH   8  11
ENDBRANCH   2   5
TORSDOF 10
ENDMDL
MODEL      255
REMARK 921   NORMALIZED FREE ENERGY PREDICTED BY IDOCK:    7.67 KCAL/MOL
REMARK 922        TOTAL FREE ENERGY PREDICTED BY IDOCK:    9.23 KCAL/MOL
REMARK 923 INTER-LIGAND FREE ENERGY PREDICTED BY IDOCK:    7.21 KCAL/MOL
REMARK 924 INTRA-LIGAND FREE ENERGY PREDICTED BY IDOCK:    2.01 KCAL/MOL
REMARK 927      BINDING AFFINITY PREDICTED BY RF-SCORE:    0.00 PKD
ROOT
HETATM    1  C   UNL     1      -5.724   6.785  63.600  1.00  0.00    -0.031 C  
HETATM    2  C   UNL     1      -6.773   5.934  64.348  1.00  0.00    -0.045 C  
HETATM    3  C   UNL     1      -6.074   4.634  64.803  1.00  0.00    -0.029 C  
HETATM    4  C   UNL     1      -7.885   5.580  63.338  1.00  0.00    -0.096 C  
ENDROOT
BRANCH   2   5
HETATM    5  C   UNL     1      -7.370   6.650  65.568  1.00  0.00    -0.076 A  
HETATM    6  C   UNL     1      -7.147   8.008  65.836  1.00  0.00    -0.057 A  
HETATM    7  C   UNL     1      -7.688   8.628  66.972  1.00  0.00    -0.095 A  
HETATM    8  C   UNL     1      -8.462   7.896  67.874  1.00  0.00    -0.126 A  
HETATM    9  C   UNL     1      -8.163   5.931  66.483  1.00  0.00    -0.110 A  
HETATM   10  C   UNL     1      -8.701   6.542  67.617  1.00  0.00    -0.114 A  
BRANCH   8  11
HETATM   11  C   UNL     1      -9.000   8.582  69.083  1.00  0.00    -0.146 C  
HETATM   12  O   UNL     1      -9.429   7.911  70.020  1.00  0.00    -0.157 OA 
BRANCH  11  13
HETATM   13  C   UNL     1      -8.990  10.097  69.099  1.00  0.00    -0.181 C  
BRANCH  13  14
HETATM   14  C   UNL     1      -7.572  10.660  69.099  1.00  0.00    -0.131 C  
BRANCH  14  15
HETATM   15  C   UNL     1      -7.217  11.348  70.420  1.00  0.00     1.454 C  
BRANCH  15  16
HETATM   16  N   UNL     1      -7.025  12.805  70.355  1.00  0.00     0.880 NA 
HETATM   17  C   UNL     1      -6.086  13.280  69.326  1.00  0.00    -0.100 C  
HETATM   18  C   UNL     1      -6.622  13.274  67.889  1.00  0.00    -0.145 C  
HETATM   19  C   UNL     1      -8.005  13.925  67.758  1.00  0.00    -0.172 C  
HETATM   20  C   UNL     1      -8.933  13.322  68.815  1.00  0.00     0.140 C  
HETATM   21  C   UNL     1      -8.318  13.496  70.211  1.00  0.00     3.360 C  
BRANCH  19  22
HETATM   22  O   UNL     1      -8.057  15.331  67.997  1.00  0.00    -0.131 OA 
BRANCH  22  23
HETATM   23  C   UNL     1      -9.238  16.070  67.674  1.00  0.00    -0.205 C  
BRANCH  23  24
HETATM   24  C   UNL     1      -9.108  17.433  68.357  1.00  0.00    -0.274 A  
HETATM   25  C   UNL     1      -9.500  18.622  67.710  1.00  0.00    -0.326 A  
HETATM   26  C   UNL     1      -9.391  19.859  68.349  1.00  0.00    -0.338 A  
HETATM   27  C   UNL     1      -8.589  17.527  69.656  1.00  0.00     0.987 A  
HETATM   28  C   UNL     1      -8.887  19.928  69.646  1.00  0.00     0.588 A  
HETATM   29  C   UNL     1      -8.482  18.764  70.296  1.00  0.00     2.263 A  
ENDBRANCH  23  24
BRANCH  23  30
HETATM   30  C   UNL     1     -10.522  15.347  68.054  1.00  0.00    -0.257 A  
HETATM   31  C   UNL     1     -12.946  14.120  68.786  1.00  0.00     1.573 A  
HETATM   32  C   UNL     1     -12.100  14.631  69.766  1.00  0.00    -0.371 A  
HETATM   33  C   UNL     1     -11.363  14.782  67.082  1.00  0.00    -0.363 A  
HETATM   34  C   UNL     1     -12.571  14.182  67.444  1.00  0.00     0.306 A  
HETATM   35  C   UNL     1     -10.895  15.239  69.405  1.00  0.00    -0.263 A  
ENDBRANCH  23  30
ENDBRANCH  22  23
ENDBRANCH  19  22
ENDBRANCH  15  16
ENDBRANCH  14  15
ENDBRANCH  13  14
ENDBRANCH  11  13
ENDBRANCH   8  11
ENDBRANCH   2   5
TORSDOF 10
ENDMDL
MODEL      256
REMARK 921   NORMALIZED FREE ENERGY PREDICTED BY IDOCK:    7.85 KCAL/MOL
REMARK 922        TOTAL FREE ENERGY PREDICTED BY IDOCK:    9.51 KCAL/MOL
REMARK 923 INTER-LIGAND FREE ENERGY PREDICTED BY IDOCK:    2.96 KCAL/MOL
REMARK 924 INTRA-LIGAND FREE ENERGY PREDICTED BY IDOCK:    6.54 KCAL/MOL
REMARK 927      BINDING AFFINITY PREDICTED BY RF-SCORE:    0.00 PKD
ROOT
HETATM    1  C   UNL     1     -11.334   5.986  73.945  1.00  0.00     0.846 C  
HETATM    2  C   UNL     1     -11.969   6.147  72.547  1.00  0.00    -0.171 C  
HETATM    3  C   UNL     1     -12.341   7.636  72.377  1.00  0.00    -0.162 C  
HETATM    4  C   UNL     1     -13.260   5.301  72.527  1.00  0.00     1.344 C  
ENDROOT
BRANCH   2   5
HETATM    5  C   UNL     1     -11.034   5.717  71.408  1.00  0.00    -0.304 A  
HETATM    6  C   UNL     1     -11.488   5.043  70.266  1.00  0.00     2.256 A  
HETATM    7  C   UNL     1     -10.605   4.642  69.252  1.00  0.00     0.577 A  
HETATM    8  C   UNL     1      -9.239   4.903  69.364  1.00  0.00    -0.160 A  
HETATM    9  C   UNL     1      -9.654   5.982  71.497  1.00  0.00    -0.175 A  
HETATM   10  C   UNL     1      -8.770   5.582  70.493  1.00  0.00    -0.140 A  
BRANCH   8  11
HETATM   11  C   UNL     1      -8.327   4.441  68.279  1.00  0.00    -0.093 C  
HETATM   12  O   UNL     1      -7.399   3.681  68.550  1.00  0.00    -0.053 OA 
BRANCH  11  13
HETATM   13  C   UNL     1      -8.593   4.939  66.872  1.00  0.00    -0.104 C  
BRANCH  13  14
HETATM   14  C   UNL     1      -7.304   5.127  66.078  1.00  0.00    -0.081 C  
BRANCH  14  15
HETATM   15  C   UNL     1      -6.415   6.229  66.660  1.00  0.00    -0.046 C  
BRANCH  15  16
HETATM   16  N   UNL     1      -7.061   7.138  67.619  1.00  0.00    -0.086 NA 
HETATM   17  C   UNL     1      -6.153   7.884  68.505  1.00  0.00    -0.040 C  
HETATM   18  C   UNL     1      -5.422   9.067  67.856  1.00  0.00    -0.035 C  
HETATM   19  C   UNL     1      -6.356   9.994  67.068  1.00  0.00    -0.064 C  
HETATM   20  C   UNL     1      -7.211   9.144  66.125  1.00  0.00    -0.090 C  
HETATM   21  C   UNL     1      -7.965   8.073  66.926  1.00  0.00    -0.104 C  
BRANCH  19  22
HETATM   22  O   UNL     1      -7.304  10.729  67.843  1.00  0.00    -0.086 OA 
BRANCH  22  23
HETATM   23  C   UNL     1      -8.566  11.091  67.277  1.00  0.00    -0.130 C  
BRANCH  23  24
HETATM   24  C   UNL     1      -9.643  10.413  68.125  1.00  0.00    -0.155 A  
HETATM   25  C   UNL     1      -9.327   9.378  69.027  1.00  0.00    -0.153 A  
HETATM   26  C   UNL     1     -10.316   8.777  69.809  1.00  0.00    -0.214 A  
HETATM   27  C   UNL     1     -10.983  10.812  68.019  1.00  0.00    -0.336 A  
HETATM   28  C   UNL     1     -11.640   9.199  69.698  1.00  0.00     0.295 A  
HETATM   29  C   UNL     1     -11.973  10.211  68.801  1.00  0.00     0.417 A  
ENDBRANCH  23  24
BRANCH  23  30
HETATM   30  C   UNL     1      -8.683  10.745  65.799  1.00  0.00    -0.194 A  
HETATM   31  C   UNL     1      -8.817  10.013  63.085  1.00  0.00    -0.244 A  
HETATM   32  C   UNL     1      -7.692  10.671  63.575  1.00  0.00     0.110 A  
HETATM   33  C   UNL     1      -9.830  10.126  65.278  1.00  0.00    -0.388 A  
HETATM   34  C   UNL     1      -9.893   9.753  63.933  1.00  0.00     0.439 A  
HETATM   35  C   UNL     1      -7.625  11.037  64.922  1.00  0.00     0.486 A  
ENDBRANCH  23  30
ENDBRANCH  22  23
ENDBRANCH  19  22
ENDBRANCH  15  16
ENDBRANCH  14  15
ENDBRANCH  13  14
ENDBRANCH  11  13
ENDBRANCH   8  11
ENDBRANCH   2   5
TORSDOF 10
ENDMDL
MODEL      257
REMARK 921   NORMALIZED FREE ENERGY PREDICTED BY IDOCK:    7.98 KCAL/MOL
REMARK 922        TOTAL FREE ENERGY PREDICTED BY IDOCK:    9.72 KCAL/MOL
REMARK 923 INTER-LIGAND FREE ENERGY PREDICTED BY IDOCK:   -2.39 KCAL/MOL
REMARK 924 INTRA-LIGAND FREE ENERGY PREDICTED BY IDOCK:   12.11 KCAL/MOL
REMARK 927      BINDING AFFINITY PREDICTED BY RF-SCORE:    0.00 PKD
ROOT
HETATM    1  C   UNL     1      -5.686  11.630  68.310  1.00  0.00    -0.045 C  
HETATM    2  C   UNL     1      -7.024  11.538  67.544  1.00  0.00    -0.102 C  
HETATM    3  C   UNL     1      -8.010  10.749  68.433  1.00  0.00    -0.124 C  
HETATM    4  C   UNL     1      -6.761  10.738  66.251  1.00  0.00    -0.134 C  
ENDROOT
BRANCH   2   5
HETATM    5  C   UNL     1      -7.621  12.911  67.208  1.00  0.00    -0.104 A  
HETATM    6  C   UNL     1      -6.993  14.118  67.550  1.00  0.00    -0.173 A  
HETATM    7  C   UNL     1      -7.576  15.357  67.249  1.00  0.00    -0.246 A  
HETATM    8  C   UNL     1      -8.812  15.417  66.603  1.00  0.00    -0.330 A  
HETATM    9  C   UNL     1      -8.861  12.993  66.546  1.00  0.00    -0.009 A  
HETATM   10  C   UNL     1      -9.448  14.224  66.248  1.00  0.00    -0.277 A  
BRANCH   8  11
HETATM   11  C   UNL     1      -9.413  16.752  66.322  1.00  0.00    -0.286 C  
HETATM   12  O   UNL     1     -10.586  16.825  65.961  1.00  0.00    -0.307 OA 
BRANCH  11  13
HETATM   13  C   UNL     1      -8.534  17.975  66.497  1.00  0.00    -0.285 C  
BRANCH  13  14
HETATM   14  C   UNL     1      -8.916  18.781  67.735  1.00  0.00    -0.308 C  
BRANCH  14  15
HETATM   15  C   UNL     1     -10.127  18.194  68.464  1.00  0.00    -0.400 C  
BRANCH  15  16
HETATM   16  N   UNL     1      -9.829  17.236  69.540  1.00  0.00     0.046 NA 
HETATM   17  C   UNL     1     -10.923  16.981  70.490  1.00  0.00     0.581 C  
HETATM   18  C   UNL     1     -12.046  16.072  69.976  1.00  0.00    -0.140 C  
HETATM   19  C   UNL     1     -11.530  14.782  69.326  1.00  0.00    -0.296 C  
HETATM   20  C   UNL     1     -10.449  15.146  68.305  1.00  0.00    -0.241 C  
HETATM   21  C   UNL     1      -9.340  15.961  68.984  1.00  0.00    -0.243 C  
BRANCH  19  22
HETATM   22  O   UNL     1     -10.892  13.855  70.204  1.00  0.00     0.208 OA 
BRANCH  22  23
HETATM   23  C   UNL     1     -11.555  13.423  71.396  1.00  0.00     1.467 C  
BRANCH  23  24
HETATM   24  C   UNL     1     -12.289  12.127  71.049  1.00  0.00    -0.331 A  
HETATM   25  C   UNL     1     -13.073  11.446  72.001  1.00  0.00    -0.423 A  
HETATM   26  C   UNL     1     -13.752  10.272  71.668  1.00  0.00    -0.109 A  
HETATM   27  C   UNL     1     -12.194  11.582  69.760  1.00  0.00    -0.310 A  
HETATM   28  C   UNL     1     -13.656   9.756  70.378  1.00  0.00     0.452 A  
HETATM   29  C   UNL     1     -12.874  10.408  69.427  1.00  0.00     0.869 A  
ENDBRANCH  23  24
BRANCH  23  30
HETATM   30  C   UNL     1     -12.481  14.479  71.983  1.00  0.00    -0.391 A  
HETATM   31  C   UNL     1     -14.283  16.346  73.071  1.00  0.00     0.691 A  
HETATM   32  C   UNL     1     -14.397  15.963  71.737  1.00  0.00     0.131 A  
HETATM   33  C   UNL     1     -12.351  14.913  73.312  1.00  0.00    -0.485 A  
HETATM   34  C   UNL     1     -13.252  15.832  73.855  1.00  0.00    -0.235 A  
HETATM   35  C   UNL     1     -13.501  15.037  71.195  1.00  0.00    -0.503 A  
ENDBRANCH  23  30
ENDBRANCH  22  23
ENDBRANCH  19  22
ENDBRANCH  15  16
ENDBRANCH  14  15
ENDBRANCH  13  14
ENDBRANCH  11  13
ENDBRANCH   8  11
ENDBRANCH   2   5
TORSDOF 10
ENDMDL
MODEL      258
REMARK 921   NORMALIZED FREE ENERGY PREDICTED BY IDOCK:    8.39 KCAL/MOL
REMARK 922        TOTAL FREE ENERGY PREDICTED BY IDOCK:   10.36 KCAL/MOL
REMARK 923 INTER-LIGAND FREE ENERGY PREDICTED BY IDOCK:    8.08 KCAL/MOL
REMARK 924 INTRA-LIGAND FREE ENERGY PREDICTED BY IDOCK:    2.28 KCAL/MOL
REMARK 927      BINDING AFFINITY PREDICTED BY RF-SCORE:    0.00 PKD
ROOT
HETATM    1  C   UNL     1      -7.257  12.970  73.946  1.00  0.00     6.721 C  
HETATM    2  C   UNL     1      -5.896  12.495  73.391  1.00  0.00     1.932 C  
HETATM    3  C   UNL     1      -5.126  11.837  74.557  1.00  0.00     0.183 C  
HETATM    4  C   UNL     1      -5.126  13.749  72.925  1.00  0.00    -0.194 C  
ENDROOT
BRANCH   2   5
HETATM    5  C   UNL     1      -6.033  11.495  72.236  1.00  0.00     2.072 A  
HETATM    6  C   UNL     1      -6.591  10.219  72.397  1.00  0.00     2.098 A  
HETATM    7  C   UNL     1      -6.681   9.317  71.326  1.00  0.00    -0.047 A  
HETATM    8  C   UNL     1      -6.203   9.673  70.064  1.00  0.00    -0.055 A  
HETATM    9  C   UNL     1      -5.567  11.839  70.952  1.00  0.00    -0.067 A  
HETATM   10  C   UNL     1      -5.651  10.944  69.884  1.00  0.00    -0.060 A  
BRANCH   8  11
HETATM   11  C   UNL     1      -6.292   8.680  68.955  1.00  0.00    -0.045 C  
HETATM   12  O   UNL     1      -7.100   7.757  69.031  1.00  0.00    -0.070 OA 
BRANCH  11  13
HETATM   13  C   UNL     1      -5.367   8.863  67.768  1.00  0.00    -0.035 C  
BRANCH  13  14
HETATM   14  C   UNL     1      -5.940   8.245  66.496  1.00  0.00    -0.045 C  
BRANCH  14  15
HETATM   15  C   UNL     1      -7.461   8.082  66.560  1.00  0.00    -0.088 C  
BRANCH  15  16
HETATM   16  N   UNL     1      -8.214   9.250  67.040  1.00  0.00    -0.115 NA 
HETATM   17  C   UNL     1      -7.614  10.562  66.746  1.00  0.00    -0.115 C  
HETATM   18  C   UNL     1      -7.761  11.046  65.298  1.00  0.00     0.279 C  
HETATM   19  C   UNL     1      -9.195  10.931  64.765  1.00  0.00    -0.201 C  
HETATM   20  C   UNL     1      -9.712   9.518  65.049  1.00  0.00    -0.138 C  
HETATM   21  C   UNL     1      -9.603   9.213  66.549  1.00  0.00    -0.227 C  
BRANCH  19  22
HETATM   22  O   UNL     1     -10.157  11.792  65.375  1.00  0.00    -0.238 OA 
BRANCH  22  23
HETATM   23  C   UNL     1      -9.748  12.734  66.369  1.00  0.00    -0.261 C  
BRANCH  23  24
HETATM   24  C   UNL     1     -10.442  12.333  67.672  1.00  0.00    -0.230 A  
HETATM   25  C   UNL     1      -9.925  11.318  68.500  1.00  0.00    -0.206 A  
HETATM   26  C   UNL     1     -10.559  10.972  69.696  1.00  0.00    -0.132 A  
HETATM   27  C   UNL     1     -11.623  12.976  68.071  1.00  0.00    -0.383 A  
HETATM   28  C   UNL     1     -11.723  11.633  70.081  1.00  0.00    -0.381 A  
HETATM   29  C   UNL     1     -12.256  12.630  69.267  1.00  0.00    -0.089 A  
ENDBRANCH  23  24
BRANCH  23  30
HETATM   30  C   UNL     1     -10.029  14.179  65.979  1.00  0.00    -0.340 A  
HETATM   31  C   UNL     1     -10.433  16.856  65.212  1.00  0.00    -0.101 A  
HETATM   32  C   UNL     1      -9.633  16.559  66.312  1.00  0.00    -0.333 A  
HETATM   33  C   UNL     1     -10.872  14.498  64.903  1.00  0.00    -0.436 A  
HETATM   34  C   UNL     1     -11.065  15.827  64.516  1.00  0.00    -0.293 A  
HETATM   35  C   UNL     1      -9.433  15.230  66.695  1.00  0.00    -0.281 A  
ENDBRANCH  23  30
ENDBRANCH  22  23
ENDBRANCH  19  22
ENDBRANCH  15  16
ENDBRANCH  14  15
ENDBRANCH  13  14
ENDBRANCH  11  13
ENDBRANCH   8  11
ENDBRANCH   2   5
TORSDOF 10
ENDMDL
MODEL      259
REMARK 921   NORMALIZED FREE ENERGY PREDICTED BY IDOCK:    9.24 KCAL/MOL
REMARK 922        TOTAL FREE ENERGY PREDICTED BY IDOCK:   11.71 KCAL/MOL
REMARK 923 INTER-LIGAND FREE ENERGY PREDICTED BY IDOCK:    4.30 KCAL/MOL
REMARK 924 INTRA-LIGAND FREE ENERGY PREDICTED BY IDOCK:    7.41 KCAL/MOL
REMARK 927      BINDING AFFINITY PREDICTED BY RF-SCORE:    0.00 PKD
ROOT
HETATM    1  C   UNL     1      -6.590   9.295  70.766  1.00  0.00    -0.084 C  
HETATM    2  C   UNL     1      -8.015   9.113  70.200  1.00  0.00    -0.124 C  
HETATM    3  C   UNL     1      -8.809   8.259  71.213  1.00  0.00    -0.193 C  
HETATM    4  C   UNL     1      -7.888   8.332  68.875  1.00  0.00    -0.111 C  
ENDROOT
BRANCH   2   5
HETATM    5  C   UNL     1      -8.745  10.443  69.966  1.00  0.00     0.267 A  
HETATM    6  C   UNL     1      -8.087  11.681  69.963  1.00  0.00     2.027 A  
HETATM    7  C   UNL     1      -8.786  12.881  69.769  1.00  0.00     2.456 A  
HETATM    8  C   UNL     1     -10.169  12.869  69.581  1.00  0.00     1.039 A  
HETATM    9  C   UNL     1     -10.139  10.450  69.762  1.00  0.00    -0.201 A  
HETATM   10  C   UNL     1     -10.840  11.643  69.573  1.00  0.00    -0.087 A  
BRANCH   8  11
HETATM   11  C   UNL     1     -10.883  14.166  69.403  1.00  0.00    -0.136 C  
HETATM   12  O   UNL     1     -10.234  15.202  69.270  1.00  0.00    -0.232 OA 
BRANCH  11  13
HETATM   13  C   UNL     1     -12.398  14.143  69.393  1.00  0.00    -0.246 C  
BRANCH  13  14
HETATM   14  C   UNL     1     -12.972  14.817  68.151  1.00  0.00     1.956 C  
BRANCH  14  15
HETATM   15  C   UNL     1     -11.921  15.022  67.058  1.00  0.00     0.001 C  
BRANCH  15  16
HETATM   16  N   UNL     1     -11.347  16.373  66.963  1.00  0.00     0.208 NA 
HETATM   17  C   UNL     1     -10.992  17.009  68.242  1.00  0.00    -0.269 C  
HETATM   18  C   UNL     1      -9.706  16.495  68.901  1.00  0.00    -0.257 C  
HETATM   19  C   UNL     1      -8.516  16.432  67.935  1.00  0.00    -0.169 C  
HETATM   20  C   UNL     1      -8.952  15.695  66.666  1.00  0.00    -0.317 C  
HETATM   21  C   UNL     1     -10.183  16.383  66.059  1.00  0.00    -0.356 C  
BRANCH  19  22
HETATM   22  O   UNL     1      -8.027  17.689  67.466  1.00  0.00    -0.199 OA 
BRANCH  22  23
HETATM   23  C   UNL     1      -6.640  18.012  67.596  1.00  0.00    -0.185 C  
BRANCH  23  24
HETATM   24  C   UNL     1      -6.491  18.810  68.893  1.00  0.00    -0.282 A  
HETATM   25  C   UNL     1      -7.197  20.011  69.105  1.00  0.00    -0.184 A  
HETATM   26  C   UNL     1      -7.065  20.722  70.299  1.00  0.00     1.644 A  
HETATM   27  C   UNL     1      -5.637  18.357  69.909  1.00  0.00    -0.234 A  
HETATM   28  C   UNL     1      -6.223  20.247  71.302  1.00  0.00    -0.168 A  
HETATM   29  C   UNL     1      -5.507  19.069  71.104  1.00  0.00    -0.232 A  
ENDBRANCH  23  24
BRANCH  23  30
HETATM   30  C   UNL     1      -6.080  18.751  66.389  1.00  0.00    -0.187 A  
HETATM   31  C   UNL     1      -5.156  20.106  64.103  1.00  0.00    -0.199 A  
HETATM   32  C   UNL     1      -5.367  18.730  64.060  1.00  0.00    -0.204 A  
HETATM   33  C   UNL     1      -5.814  20.129  66.429  1.00  0.00    -0.189 A  
HETATM   34  C   UNL     1      -5.365  20.803  65.291  1.00  0.00    -0.231 A  
HETATM   35  C   UNL     1      -5.824  18.056  65.195  1.00  0.00    -0.022 A  
ENDBRANCH  23  30
ENDBRANCH  22  23
ENDBRANCH  19  22
ENDBRANCH  15  16
ENDBRANCH  14  15
ENDBRANCH  13  14
ENDBRANCH  11  13
ENDBRANCH   8  11
ENDBRANCH   2   5
TORSDOF 10
ENDMDL
MODEL      260
REMARK 921   NORMALIZED FREE ENERGY PREDICTED BY IDOCK:   11.10 KCAL/MOL
REMARK 922        TOTAL FREE ENERGY PREDICTED BY IDOCK:   14.67 KCAL/MOL
REMARK 923 INTER-LIGAND FREE ENERGY PREDICTED BY IDOCK:   14.12 KCAL/MOL
REMARK 924 INTRA-LIGAND FREE ENERGY PREDICTED BY IDOCK:    0.55 KCAL/MOL
REMARK 927      BINDING AFFINITY PREDICTED BY RF-SCORE:    0.00 PKD
ROOT
HETATM    1  C   UNL     1     -12.054   8.592  68.761  1.00  0.00     2.818 C  
HETATM    2  C   UNL     1     -11.819   8.114  70.211  1.00  0.00     0.195 C  
HETATM    3  C   UNL     1     -12.152   6.606  70.260  1.00  0.00    -0.188 C  
HETATM    4  C   UNL     1     -12.810   8.877  71.114  1.00  0.00    -0.182 C  
ENDROOT
BRANCH   2   5
HETATM    5  C   UNL     1     -10.379   8.338  70.693  1.00  0.00    -0.220 A  
HETATM    6  C   UNL     1     -10.073   8.826  71.971  1.00  0.00    -0.397 A  
HETATM    7  C   UNL     1      -8.747   9.043  72.374  1.00  0.00     0.428 A  
HETATM    8  C   UNL     1      -7.692   8.780  71.499  1.00  0.00    -0.139 A  
HETATM    9  C   UNL     1      -9.301   8.067  69.828  1.00  0.00    -0.159 A  
HETATM   10  C   UNL     1      -7.980   8.284  70.223  1.00  0.00    -0.102 A  
BRANCH   8  11
HETATM   11  C   UNL     1      -6.297   9.045  71.952  1.00  0.00    -0.027 C  
HETATM   12  O   UNL     1      -5.975   8.780  73.109  1.00  0.00    -0.099 OA 
BRANCH  11  13
HETATM   13  C   UNL     1      -5.328   9.636  70.948  1.00  0.00    -0.050 C  
BRANCH  13  14
HETATM   14  C   UNL     1      -5.465  11.152  70.845  1.00  0.00    -0.104 C  
BRANCH  14  15
HETATM   15  C   UNL     1      -6.847  11.581  70.346  1.00  0.00     0.846 C  
BRANCH  15  16
HETATM   16  N   UNL     1      -6.882  12.229  69.026  1.00  0.00    -0.101 NA 
HETATM   17  C   UNL     1      -5.599  12.282  68.306  1.00  0.00    -0.054 C  
HETATM   18  C   UNL     1      -5.148  10.965  67.662  1.00  0.00    -0.036 C  
HETATM   19  C   UNL     1      -6.249  10.288  66.836  1.00  0.00    -0.068 C  
HETATM   20  C   UNL     1      -7.521  10.211  67.684  1.00  0.00    -0.090 C  
HETATM   21  C   UNL     1      -7.912  11.614  68.169  1.00  0.00    -0.141 C  
BRANCH  19  22
HETATM   22  O   UNL     1      -6.651  10.976  65.652  1.00  0.00    -0.020 OA 
BRANCH  22  23
HETATM   23  C   UNL     1      -6.949  10.242  64.461  1.00  0.00    -0.067 C  
BRANCH  23  24
HETATM   24  C   UNL     1      -8.076  10.991  63.748  1.00  0.00     0.400 A  
HETATM   25  C   UNL     1      -9.393  10.491  63.725  1.00  0.00    -0.319 A  
HETATM   26  C   UNL     1     -10.417  11.192  63.085  1.00  0.00    -0.243 A  
HETATM   27  C   UNL     1      -7.817  12.204  63.095  1.00  0.00     3.194 A  
HETATM   28  C   UNL     1     -10.141  12.403  62.454  1.00  0.00     3.021 A  
HETATM   29  C   UNL     1      -8.842  12.905  62.455  1.00  0.00     6.594 A  
ENDBRANCH  23  24
BRANCH  23  30
HETATM   30  C   UNL     1      -7.294   8.783  64.727  1.00  0.00    -0.093 A  
HETATM   31  C   UNL     1      -7.811   6.060  65.213  1.00  0.00    -0.107 A  
HETATM   32  C   UNL     1      -7.427   6.481  63.942  1.00  0.00    -0.085 A  
HETATM   33  C   UNL     1      -7.730   8.349  65.989  1.00  0.00    -0.090 A  
HETATM   34  C   UNL     1      -7.977   6.996  66.233  1.00  0.00    -0.114 A  
HETATM   35  C   UNL     1      -7.172   7.833  63.699  1.00  0.00    -0.082 A  
ENDBRANCH  23  30
ENDBRANCH  22  23
ENDBRANCH  19  22
ENDBRANCH  15  16
ENDBRANCH  14  15
ENDBRANCH  13  14
ENDBRANCH  11  13
ENDBRANCH   8  11
ENDBRANCH   2   5
TORSDOF 10
ENDMDL
MODEL      261
REMARK 921   NORMALIZED FREE ENERGY PREDICTED BY IDOCK:   11.90 KCAL/MOL
REMARK 922        TOTAL FREE ENERGY PREDICTED BY IDOCK:   15.93 KCAL/MOL
REMARK 923 INTER-LIGAND FREE ENERGY PREDICTED BY IDOCK:    5.69 KCAL/MOL
REMARK 924 INTRA-LIGAND FREE ENERGY PREDICTED BY IDOCK:   10.24 KCAL/MOL
REMARK 927      BINDING AFFINITY PREDICTED BY RF-SCORE:    0.00 PKD
ROOT
HETATM    1  C   UNL     1      -9.286   3.987  67.945  1.00  0.00    -0.200 C  
HETATM    2  C   UNL     1     -10.371   4.914  67.356  1.00  0.00    -0.127 C  
HETATM    3  C   UNL     1     -11.461   5.094  68.436  1.00  0.00     2.663 C  
HETATM    4  C   UNL     1     -10.985   4.190  66.138  1.00  0.00     1.324 C  
ENDROOT
BRANCH   2   5
HETATM    5  C   UNL     1      -9.828   6.288  66.939  1.00  0.00    -0.196 A  
HETATM    6  C   UNL     1     -10.500   7.487  67.218  1.00  0.00    -0.391 A  
HETATM    7  C   UNL     1      -9.990   8.726  66.804  1.00  0.00    -0.338 A  
HETATM    8  C   UNL     1      -8.793   8.792  66.090  1.00  0.00    -0.201 A  
HETATM    9  C   UNL     1      -8.615   6.377  66.229  1.00  0.00    -0.140 A  
HETATM   10  C   UNL     1      -8.105   7.607  65.811  1.00  0.00    -0.126 A  
BRANCH   8  11
HETATM   11  C   UNL     1      -8.293  10.124  65.644  1.00  0.00    -0.152 C  
HETATM   12  O   UNL     1      -8.220  10.373  64.443  1.00  0.00    -0.165 OA 
BRANCH  11  13
HETATM   13  C   UNL     1      -7.893  11.122  66.713  1.00  0.00    -0.153 C  
BRANCH  13  14
HETATM   14  C   UNL     1      -8.275  12.550  66.333  1.00  0.00     0.338 C  
BRANCH  14  15
HETATM   15  C   UNL     1      -7.153  13.551  66.621  1.00  0.00     1.609 C  
BRANCH  15  16
HETATM   16  N   UNL     1      -6.312  13.256  67.791  1.00  0.00    -0.147 NA 
HETATM   17  C   UNL     1      -7.034  12.974  69.042  1.00  0.00    -0.056 C  
HETATM   18  C   UNL     1      -7.676  11.584  69.136  1.00  0.00     0.030 C  
HETATM   19  C   UNL     1      -6.717  10.450  68.752  1.00  0.00    -0.053 C  
HETATM   20  C   UNL     1      -6.066  10.791  67.409  1.00  0.00    -0.054 C  
HETATM   21  C   UNL     1      -5.374  12.158  67.497  1.00  0.00    -0.103 C  
BRANCH  19  22
HETATM   22  O   UNL     1      -5.617  10.236  69.636  1.00  0.00    -0.037 OA 
BRANCH  22  23
HETATM   23  C   UNL     1      -5.854   9.914  71.010  1.00  0.00    -0.082 C  
BRANCH  23  24
HETATM   24  C   UNL     1      -7.250   9.294  71.085  1.00  0.00    -0.055 A  
HETATM   25  C   UNL     1      -8.387   9.978  70.612  1.00  0.00     0.545 A  
HETATM   26  C   UNL     1      -9.655   9.395  70.671  1.00  0.00    -0.331 A  
HETATM   27  C   UNL     1      -7.428   8.016  71.635  1.00  0.00    -0.082 A  
HETATM   28  C   UNL     1      -9.807   8.118  71.208  1.00  0.00    -0.207 A  
HETATM   29  C   UNL     1      -8.696   7.433  71.694  1.00  0.00    -0.124 A  
ENDBRANCH  23  24
BRANCH  23  30
HETATM   30  C   UNL     1      -5.694  11.108  71.941  1.00  0.00     0.750 A  
HETATM   31  C   UNL     1      -5.277  13.293  73.664  1.00  0.00     0.056 A  
HETATM   32  C   UNL     1      -5.159  11.992  74.147  1.00  0.00     0.318 A  
HETATM   33  C   UNL     1      -5.858  12.424  71.484  1.00  0.00     0.750 A  
HETATM   34  C   UNL     1      -5.641  13.510  72.336  1.00  0.00     0.114 A  
HETATM   35  C   UNL     1      -5.368  10.906  73.293  1.00  0.00     0.708 A  
ENDBRANCH  23  30
ENDBRANCH  22  23
ENDBRANCH  19  22
ENDBRANCH  15  16
ENDBRANCH  14  15
ENDBRANCH  13  14
ENDBRANCH  11  13
ENDBRANCH   8  11
ENDBRANCH   2   5
TORSDOF 10
ENDMDL
MODEL      262
REMARK 921   NORMALIZED FREE ENERGY PREDICTED BY IDOCK:   13.07 KCAL/MOL
REMARK 922        TOTAL FREE ENERGY PREDICTED BY IDOCK:   17.78 KCAL/MOL
REMARK 923 INTER-LIGAND FREE ENERGY PREDICTED BY IDOCK:   15.91 KCAL/MOL
REMARK 924 INTRA-LIGAND FREE ENERGY PREDICTED BY IDOCK:    1.86 KCAL/MOL
REMARK 927      BINDING AFFINITY PREDICTED BY RF-SCORE:    0.00 PKD
ROOT
HETATM    1  C   UNL     1     -10.784  10.505  65.145  1.00  0.00     0.003 C  
HETATM    2  C   UNL     1     -10.242   9.213  64.496  1.00  0.00     2.359 C  
HETATM    3  C   UNL     1      -9.846   9.556  63.043  1.00  0.00     1.233 C  
HETATM    4  C   UNL     1     -11.398   8.189  64.473  1.00  0.00    13.676 C  
ENDROOT
BRANCH   2   5
HETATM    5  C   UNL     1      -9.030   8.630  65.235  1.00  0.00    -0.150 A  
HETATM    6  C   UNL     1      -7.918   8.098  64.569  1.00  0.00    -0.142 A  
HETATM    7  C   UNL     1      -6.835   7.551  65.272  1.00  0.00    -0.048 A  
HETATM    8  C   UNL     1      -6.846   7.517  66.668  1.00  0.00    -0.066 A  
HETATM    9  C   UNL     1      -9.017   8.598  66.643  1.00  0.00    -0.174 A  
HETATM   10  C   UNL     1      -7.944   8.051  67.348  1.00  0.00    -0.122 A  
BRANCH   8  11
HETATM   11  C   UNL     1      -5.689   6.905  67.382  1.00  0.00    -0.017 C  
HETATM   12  O   UNL     1      -5.190   5.867  66.952  1.00  0.00    -0.005 OA 
BRANCH  11  13
HETATM   13  C   UNL     1      -5.175   7.606  68.625  1.00  0.00    -0.026 C  
BRANCH  13  14
HETATM   14  C   UNL     1      -5.949   7.194  69.874  1.00  0.00    -0.024 C  
BRANCH  14  15
HETATM   15  C   UNL     1      -5.415   7.867  71.140  1.00  0.00    -0.034 C  
BRANCH  15  16
HETATM   16  N   UNL     1      -5.391   9.338  71.126  1.00  0.00    -0.038 NA 
HETATM   17  C   UNL     1      -5.129   9.961  69.819  1.00  0.00    -0.034 C  
HETATM   18  C   UNL     1      -6.308   9.957  68.837  1.00  0.00    -0.041 C  
HETATM   19  C   UNL     1      -7.617  10.453  69.464  1.00  0.00    -0.156 C  
HETATM   20  C   UNL     1      -7.846   9.705  70.780  1.00  0.00     0.000 C  
HETATM   21  C   UNL     1      -6.633   9.885  71.702  1.00  0.00     0.574 C  
BRANCH  19  22
HETATM   22  O   UNL     1      -7.650  11.833  69.830  1.00  0.00     0.421 OA 
BRANCH  22  23
HETATM   23  C   UNL     1      -8.037  12.820  68.870  1.00  0.00     0.216 C  
BRANCH  23  24
HETATM   24  C   UNL     1      -7.238  14.085  69.189  1.00  0.00    -0.059 A  
HETATM   25  C   UNL     1      -7.214  15.183  68.307  1.00  0.00    -0.112 A  
HETATM   26  C   UNL     1      -6.494  16.339  68.616  1.00  0.00    -0.126 A  
HETATM   27  C   UNL     1      -6.503  14.177  70.380  1.00  0.00    -0.038 A  
HETATM   28  C   UNL     1      -5.783  16.415  69.812  1.00  0.00    -0.179 A  
HETATM   29  C   UNL     1      -5.784  15.333  70.689  1.00  0.00    -0.080 A  
ENDBRANCH  23  24
BRANCH  23  30
HETATM   30  C   UNL     1      -9.538  13.070  68.839  1.00  0.00     0.215 A  
HETATM   31  C   UNL     1     -12.319  13.494  68.898  1.00  0.00    -0.020 A  
HETATM   32  C   UNL     1     -11.812  12.199  68.846  1.00  0.00    -0.358 A  
HETATM   33  C   UNL     1     -10.066  14.371  68.842  1.00  0.00    -0.202 A  
HETATM   34  C   UNL     1     -11.446  14.582  68.882  1.00  0.00    -0.327 A  
HETATM   35  C   UNL     1     -10.432  11.986  68.814  1.00  0.00    -0.207 A  
ENDBRANCH  23  30
ENDBRANCH  22  23
ENDBRANCH  19  22
ENDBRANCH  15  16
ENDBRANCH  14  15
ENDBRANCH  13  14
ENDBRANCH  11  13
ENDBRANCH   8  11
ENDBRANCH   2   5
TORSDOF 10
ENDMDL
MODEL      263
REMARK 921   NORMALIZED FREE ENERGY PREDICTED BY IDOCK:   13.66 KCAL/MOL
REMARK 922        TOTAL FREE ENERGY PREDICTED BY IDOCK:   18.72 KCAL/MOL
REMARK 923 INTER-LIGAND FREE ENERGY PREDICTED BY IDOCK:    8.47 KCAL/MOL
REMARK 924 INTRA-LIGAND FREE ENERGY PREDICTED BY IDOCK:   10.25 KCAL/MOL
REMARK 927      BINDING AFFINITY PREDICTED BY RF-SCORE:    0.00 PKD
ROOT
HETATM    1  C   UNL     1      -6.811   8.912  70.455  1.00  0.00    -0.054 C  
HETATM    2  C   UNL     1      -7.591   7.917  69.569  1.00  0.00    -0.099 C  
HETATM    3  C   UNL     1      -8.821   7.446  70.377  1.00  0.00    -0.149 C  
HETATM    4  C   UNL     1      -6.667   6.707  69.310  1.00  0.00    -0.056 C  
ENDROOT
BRANCH   2   5
HETATM    5  C   UNL     1      -8.053   8.528  68.239  1.00  0.00    -0.119 A  
HETATM    6  C   UNL     1      -9.405   8.675  67.900  1.00  0.00    -0.155 A  
HETATM    7  C   UNL     1      -9.796   9.216  66.666  1.00  0.00    -0.307 A  
HETATM    8  C   UNL     1      -8.836   9.616  65.736  1.00  0.00    -0.186 A  
HETATM    9  C   UNL     1      -7.099   8.949  67.293  1.00  0.00    -0.083 A  
HETATM   10  C   UNL     1      -7.482   9.484  66.062  1.00  0.00    -0.100 A  
BRANCH   8  11
HETATM   11  C   UNL     1      -9.287  10.164  64.425  1.00  0.00    -0.293 C  
HETATM   12  O   UNL     1      -9.009  11.323  64.124  1.00  0.00    -0.047 OA 
BRANCH  11  13
HETATM   13  C   UNL     1     -10.079   9.249  63.512  1.00  0.00     2.703 C  
BRANCH  13  14
HETATM   14  C   UNL     1     -11.433   9.846  63.141  1.00  0.00     6.006 C  
BRANCH  14  15
HETATM   15  C   UNL     1     -11.417  11.376  63.139  1.00  0.00     0.188 C  
BRANCH  15  16
HETATM   16  N   UNL     1     -10.273  12.008  63.813  1.00  0.00    -0.390 NA 
HETATM   17  C   UNL     1      -9.866  13.321  63.286  1.00  0.00     3.100 C  
HETATM   18  C   UNL     1     -10.765  14.499  63.680  1.00  0.00     2.272 C  
HETATM   19  C   UNL     1     -11.073  14.547  65.182  1.00  0.00    -0.370 C  
HETATM   20  C   UNL     1     -11.556  13.165  65.629  1.00  0.00    -0.371 C  
HETATM   21  C   UNL     1     -10.508  12.103  65.265  1.00  0.00    -0.276 C  
BRANCH  19  22
HETATM   22  O   UNL     1      -9.965  14.831  66.036  1.00  0.00    -0.279 OA 
BRANCH  22  23
HETATM   23  C   UNL     1      -9.719  14.017  67.186  1.00  0.00    -0.242 C  
BRANCH  23  24
HETATM   24  C   UNL     1     -10.719  14.451  68.259  1.00  0.00    -0.246 A  
HETATM   25  C   UNL     1     -11.318  15.726  68.235  1.00  0.00    -0.354 A  
HETATM   26  C   UNL     1     -12.243  16.105  69.211  1.00  0.00     0.191 A  
HETATM   27  C   UNL     1     -11.062  13.578  69.302  1.00  0.00    -0.230 A  
HETATM   28  C   UNL     1     -12.580  15.217  70.230  1.00  0.00    -0.370 A  
HETATM   29  C   UNL     1     -11.987  13.958  70.277  1.00  0.00    -0.401 A  
ENDBRANCH  23  24
BRANCH  23  30
HETATM   30  C   UNL     1      -8.277  14.084  67.671  1.00  0.00    -0.185 A  
HETATM   31  C   UNL     1      -5.652  14.272  68.665  1.00  0.00    -0.089 A  
HETATM   32  C   UNL     1      -6.266  15.387  68.102  1.00  0.00    -0.135 A  
HETATM   33  C   UNL     1      -7.626  12.957  68.196  1.00  0.00    -0.135 A  
HETATM   34  C   UNL     1      -6.326  13.052  68.699  1.00  0.00    -0.083 A  
HETATM   35  C   UNL     1      -7.568  15.295  67.605  1.00  0.00    -0.193 A  
ENDBRANCH  23  30
ENDBRANCH  22  23
ENDBRANCH  19  22
ENDBRANCH  15  16
ENDBRANCH  14  15
ENDBRANCH  13  14
ENDBRANCH  11  13
ENDBRANCH   8  11
ENDBRANCH   2   5
TORSDOF 10
ENDMDL
MODEL      264
REMARK 921   NORMALIZED FREE ENERGY PREDICTED BY IDOCK:   19.37 KCAL/MOL
REMARK 922        TOTAL FREE ENERGY PREDICTED BY IDOCK:   27.76 KCAL/MOL
REMARK 923 INTER-LIGAND FREE ENERGY PREDICTED BY IDOCK:   10.53 KCAL/MOL
REMARK 924 INTRA-LIGAND FREE ENERGY PREDICTED BY IDOCK:   17.23 KCAL/MOL
REMARK 927      BINDING AFFINITY PREDICTED BY RF-SCORE:    0.00 PKD
ROOT
HETATM    1  C   UNL     1      -9.597   3.895  68.152  1.00  0.00    -0.182 C  
HETATM    2  C   UNL     1     -10.789   4.816  67.812  1.00  0.00     0.763 C  
HETATM    3  C   UNL     1     -11.664   4.926  69.081  1.00  0.00     5.386 C  
HETATM    4  C   UNL     1     -11.604   4.124  66.699  1.00  0.00     5.405 C  
ENDROOT
BRANCH   2   5
HETATM    5  C   UNL     1     -10.358   6.219  67.363  1.00  0.00    -0.262 A  
HETATM    6  C   UNL     1     -11.083   7.375  67.684  1.00  0.00    -0.008 A  
HETATM    7  C   UNL     1     -10.675   8.641  67.238  1.00  0.00    -0.209 A  
HETATM    8  C   UNL     1      -9.531   8.777  66.450  1.00  0.00    -0.291 A  
HETATM    9  C   UNL     1      -9.200   6.378  66.578  1.00  0.00    -0.174 A  
HETATM   10  C   UNL     1      -8.793   7.635  66.128  1.00  0.00    -0.192 A  
BRANCH   8  11
HETATM   11  C   UNL     1      -9.142  10.136  65.974  1.00  0.00    -0.154 C  
HETATM   12  O   UNL     1      -8.763  10.285  64.814  1.00  0.00    -0.168 OA 
BRANCH  11  13
HETATM   13  C   UNL     1      -9.236  11.284  66.959  1.00  0.00    -0.173 C  
BRANCH  13  14
HETATM   14  C   UNL     1      -9.123  12.640  66.270  1.00  0.00    -0.053 C  
BRANCH  14  15
HETATM   15  C   UNL     1      -8.162  13.586  66.994  1.00  0.00    -0.033 C  
BRANCH  15  16
HETATM   16  N   UNL     1      -7.699  13.142  68.318  1.00  0.00    -0.133 NA 
HETATM   17  C   UNL     1      -8.708  12.477  69.159  1.00  0.00     0.703 C  
HETATM   18  C   UNL     1      -9.036  11.028  68.774  1.00  0.00    -0.161 C  
HETATM   19  C   UNL     1      -7.788  10.161  68.568  1.00  0.00    -0.095 C  
HETATM   20  C   UNL     1      -6.828  10.896  67.629  1.00  0.00    -0.081 C  
HETATM   21  C   UNL     1      -6.506  12.286  68.195  1.00  0.00    -0.062 C  
BRANCH  19  22
HETATM   22  O   UNL     1      -7.012   9.899  69.737  1.00  0.00    -0.068 OA 
BRANCH  22  23
HETATM   23  C   UNL     1      -7.660   9.608  70.978  1.00  0.00     0.226 C  
BRANCH  23  24
HETATM   24  C   UNL     1      -6.956   8.385  71.569  1.00  0.00    -0.075 A  
HETATM   25  C   UNL     1      -6.065   7.606  70.804  1.00  0.00    -0.034 A  
HETATM   26  C   UNL     1      -5.416   6.501  71.360  1.00  0.00    -0.027 A  
HETATM   27  C   UNL     1      -7.188   8.009  72.900  1.00  0.00    -0.127 A  
HETATM   28  C   UNL     1      -5.650   6.154  72.689  1.00  0.00    -0.036 A  
HETATM   29  C   UNL     1      -6.538   6.904  73.456  1.00  0.00    -0.067 A  
ENDBRANCH  23  24
BRANCH  23  30
HETATM   30  C   UNL     1      -9.162   9.406  70.838  1.00  0.00    -0.242 A  
HETATM   31  C   UNL     1     -11.951   9.154  70.566  1.00  0.00    -0.081 A  
HETATM   32  C   UNL     1     -11.409   9.667  71.741  1.00  0.00    -0.200 A  
HETATM   33  C   UNL     1      -9.723   8.844  69.680  1.00  0.00    -0.175 A  
HETATM   34  C   UNL     1     -11.108   8.729  69.540  1.00  0.00     0.006 A  
HETATM   35  C   UNL     1     -10.024   9.791  71.879  1.00  0.00     1.604 A  
ENDBRANCH  23  30
ENDBRANCH  22  23
ENDBRANCH  19  22
ENDBRANCH  15  16
ENDBRANCH  14  15
ENDBRANCH  13  14
ENDBRANCH  11  13
ENDBRANCH   8  11
ENDBRANCH   2   5
TORSDOF 10
ENDMDL
MODEL      265
REMARK 921   NORMALIZED FREE ENERGY PREDICTED BY IDOCK:   20.54 KCAL/MOL
REMARK 922        TOTAL FREE ENERGY PREDICTED BY IDOCK:   29.62 KCAL/MOL
REMARK 923 INTER-LIGAND FREE ENERGY PREDICTED BY IDOCK:    7.67 KCAL/MOL
REMARK 924 INTRA-LIGAND FREE ENERGY PREDICTED BY IDOCK:   21.95 KCAL/MOL
REMARK 927      BINDING AFFINITY PREDICTED BY RF-SCORE:    0.00 PKD
ROOT
HETATM    1  C   UNL     1     -11.548   5.902  74.000  1.00  0.00     1.856 C  
HETATM    2  C   UNL     1     -12.315   5.978  72.662  1.00  0.00     0.133 C  
HETATM    3  C   UNL     1     -12.999   7.361  72.600  1.00  0.00     0.533 C  
HETATM    4  C   UNL     1     -13.401   4.881  72.690  1.00  0.00     1.871 C  
ENDROOT
BRANCH   2   5
HETATM    5  C   UNL     1     -11.408   5.798  71.437  1.00  0.00    -0.175 A  
HETATM    6  C   UNL     1     -11.808   5.094  70.293  1.00  0.00     3.457 A  
HETATM    7  C   UNL     1     -10.948   4.926  69.198  1.00  0.00     1.187 A  
HETATM    8  C   UNL     1      -9.658   5.457  69.228  1.00  0.00    -0.198 A  
HETATM    9  C   UNL     1     -10.107   6.336  71.443  1.00  0.00    -0.222 A  
HETATM   10  C   UNL     1      -9.246   6.169  70.358  1.00  0.00    -0.162 A  
BRANCH   8  11
HETATM   11  C   UNL     1      -8.762   5.238  68.056  1.00  0.00    -0.102 C  
HETATM   12  O   UNL     1      -7.741   4.566  68.190  1.00  0.00    -0.079 OA 
BRANCH  11  13
HETATM   13  C   UNL     1      -9.161   5.866  66.735  1.00  0.00    -0.130 C  
BRANCH  13  14
HETATM   14  C   UNL     1      -8.033   6.698  66.133  1.00  0.00    -0.110 C  
BRANCH  14  15
HETATM   15  C   UNL     1      -7.658   7.895  67.010  1.00  0.00    -0.100 C  
BRANCH  15  16
HETATM   16  N   UNL     1      -7.445   7.606  68.437  1.00  0.00    -0.102 NA 
HETATM   17  C   UNL     1      -6.053   7.336  68.833  1.00  0.00    -0.026 C  
HETATM   18  C   UNL     1      -5.145   8.568  68.933  1.00  0.00    -0.032 C  
HETATM   19  C   UNL     1      -5.767   9.713  69.743  1.00  0.00    -0.032 C  
HETATM   20  C   UNL     1      -7.181   9.972  69.219  1.00  0.00    -0.078 C  
HETATM   21  C   UNL     1      -8.006   8.679  69.277  1.00  0.00    -0.103 C  
BRANCH  19  22
HETATM   22  O   UNL     1      -5.943   9.466  71.137  1.00  0.00    -0.061 OA 
BRANCH  22  23
HETATM   23  C   UNL     1      -7.232   9.627  71.737  1.00  0.00     0.887 C  
BRANCH  23  24
HETATM   24  C   UNL     1      -7.556   8.313  72.450  1.00  0.00    -0.160 A  
HETATM   25  C   UNL     1      -6.808   7.142  72.214  1.00  0.00    -0.060 A  
HETATM   26  C   UNL     1      -7.103   5.952  72.883  1.00  0.00    -0.085 A  
HETATM   27  C   UNL     1      -8.618   8.247  73.364  1.00  0.00    -0.277 A  
HETATM   28  C   UNL     1      -8.153   5.913  73.798  1.00  0.00    -0.106 A  
HETATM   29  C   UNL     1      -8.912   7.057  74.034  1.00  0.00    -0.228 A  
ENDBRANCH  23  24
BRANCH  23  30
HETATM   30  C   UNL     1      -8.310  10.032  70.742  1.00  0.00     0.766 A  
HETATM   31  C   UNL     1     -10.240  10.722  68.814  1.00  0.00    -0.207 A  
HETATM   32  C   UNL     1      -9.001  11.357  68.819  1.00  0.00    -0.086 A  
HETATM   33  C   UNL     1      -9.582   9.437  70.754  1.00  0.00    -0.322 A  
HETATM   34  C   UNL     1     -10.537   9.772  69.791  1.00  0.00    -0.285 A  
HETATM   35  C   UNL     1      -8.043  11.017  69.777  1.00  0.00     0.508 A  
ENDBRANCH  23  30
ENDBRANCH  22  23
ENDBRANCH  19  22
ENDBRANCH  15  16
ENDBRANCH  14  15
ENDBRANCH  13  14
ENDBRANCH  11  13
ENDBRANCH   8  11
ENDBRANCH   2   5
TORSDOF 10
ENDMDL
MODEL      266
REMARK 921   NORMALIZED FREE ENERGY PREDICTED BY IDOCK:   21.24 KCAL/MOL
REMARK 922        TOTAL FREE ENERGY PREDICTED BY IDOCK:   30.72 KCAL/MOL
REMARK 923 INTER-LIGAND FREE ENERGY PREDICTED BY IDOCK:   16.06 KCAL/MOL
REMARK 924 INTRA-LIGAND FREE ENERGY PREDICTED BY IDOCK:   14.66 KCAL/MOL
REMARK 927      BINDING AFFINITY PREDICTED BY RF-SCORE:    0.00 PKD
ROOT
HETATM    1  C   UNL     1      -7.395  12.971  73.931  1.00  0.00     7.534 C  
HETATM    2  C   UNL     1      -6.152  12.512  73.139  1.00  0.00     2.970 C  
HETATM    3  C   UNL     1      -5.180  11.855  74.144  1.00  0.00     0.491 C  
HETATM    4  C   UNL     1      -5.487  13.775  72.550  1.00  0.00    -0.105 C  
ENDROOT
BRANCH   2   5
HETATM    5  C   UNL     1      -6.484  11.515  72.020  1.00  0.00     3.753 A  
HETATM    6  C   UNL     1      -7.085  10.272  72.264  1.00  0.00     3.175 A  
HETATM    7  C   UNL     1      -7.356   9.373  71.222  1.00  0.00     0.085 A  
HETATM    8  C   UNL     1      -7.022   9.697  69.906  1.00  0.00    -0.081 A  
HETATM    9  C   UNL     1      -6.166  11.829  70.685  1.00  0.00     0.300 A  
HETATM   10  C   UNL     1      -6.430  10.936  69.645  1.00  0.00    -0.114 A  
BRANCH   8  11
HETATM   11  C   UNL     1      -7.301   8.707  68.827  1.00  0.00    -0.083 C  
HETATM   12  O   UNL     1      -8.095   7.791  69.036  1.00  0.00    -0.121 OA 
BRANCH  11  13
HETATM   13  C   UNL     1      -6.582   8.881  67.504  1.00  0.00    -0.062 C  
BRANCH  13  14
HETATM   14  C   UNL     1      -7.310   8.182  66.361  1.00  0.00    -0.080 C  
BRANCH  14  15
HETATM   15  C   UNL     1      -8.808   8.021  66.634  1.00  0.00    -0.145 C  
BRANCH  15  16
HETATM   16  N   UNL     1      -9.510   9.227  67.099  1.00  0.00    -0.144 NA 
HETATM   17  C   UNL     1      -8.746  10.103  68.001  1.00  0.00    -0.122 C  
HETATM   18  C   UNL     1      -7.674  10.971  67.329  1.00  0.00    -0.118 C  
HETATM   19  C   UNL     1      -8.190  11.719  66.094  1.00  0.00     0.159 C  
HETATM   20  C   UNL     1      -8.907  10.722  65.179  1.00  0.00    -0.199 C  
HETATM   21  C   UNL     1     -10.021  10.007  65.957  1.00  0.00    -0.267 C  
BRANCH  19  22
HETATM   22  O   UNL     1      -9.161  12.736  66.341  1.00  0.00    -0.221 OA 
BRANCH  22  23
HETATM   23  C   UNL     1     -10.502  12.379  66.687  1.00  0.00    -0.229 C  
BRANCH  23  24
HETATM   24  C   UNL     1     -11.349  12.565  65.427  1.00  0.00    -0.363 A  
HETATM   25  C   UNL     1     -11.606  13.843  64.894  1.00  0.00    -0.365 A  
HETATM   26  C   UNL     1     -12.367  13.999  63.733  1.00  0.00    -0.195 A  
HETATM   27  C   UNL     1     -11.893  11.452  64.769  1.00  0.00     0.221 A  
HETATM   28  C   UNL     1     -12.886  12.879  63.087  1.00  0.00     0.299 A  
HETATM   29  C   UNL     1     -12.654  11.609  63.608  1.00  0.00    -0.309 A  
ENDBRANCH  23  24
BRANCH  23  30
HETATM   30  C   UNL     1     -11.045  13.161  67.875  1.00  0.00    -0.288 A  
HETATM   31  C   UNL     1     -12.014  14.711  70.013  1.00  0.00    -0.376 A  
HETATM   32  C   UNL     1     -10.643  14.569  69.821  1.00  0.00    -0.013 A  
HETATM   33  C   UNL     1     -12.423  13.274  68.112  1.00  0.00     0.365 A  
HETATM   34  C   UNL     1     -12.906  14.052  69.168  1.00  0.00     0.849 A  
HETATM   35  C   UNL     1     -10.160  13.798  68.761  1.00  0.00    -0.141 A  
ENDBRANCH  23  30
ENDBRANCH  22  23
ENDBRANCH  19  22
ENDBRANCH  15  16
ENDBRANCH  14  15
ENDBRANCH  13  14
ENDBRANCH  11  13
ENDBRANCH   8  11
ENDBRANCH   2   5
TORSDOF 10
ENDMDL
MODEL      267
REMARK 921   NORMALIZED FREE ENERGY PREDICTED BY IDOCK:   27.73 KCAL/MOL
REMARK 922        TOTAL FREE ENERGY PREDICTED BY IDOCK:   41.02 KCAL/MOL
REMARK 923 INTER-LIGAND FREE ENERGY PREDICTED BY IDOCK:   34.95 KCAL/MOL
REMARK 924 INTRA-LIGAND FREE ENERGY PREDICTED BY IDOCK:    6.06 KCAL/MOL
REMARK 927      BINDING AFFINITY PREDICTED BY RF-SCORE:    0.00 PKD
ROOT
HETATM    1  C   UNL     1      -7.641   8.412  68.419  1.00  0.00    -0.097 C  
HETATM    2  C   UNL     1      -8.218   7.394  69.426  1.00  0.00    -0.131 C  
HETATM    3  C   UNL     1      -7.080   7.006  70.395  1.00  0.00    -0.067 C  
HETATM    4  C   UNL     1      -8.643   6.144  68.625  1.00  0.00    -0.113 C  
ENDROOT
BRANCH   2   5
HETATM    5  C   UNL     1      -9.408   7.944  70.224  1.00  0.00    -0.159 A  
HETATM    6  C   UNL     1     -10.738   7.605  69.936  1.00  0.00    -0.253 A  
HETATM    7  C   UNL     1     -11.805   8.143  70.670  1.00  0.00    -0.093 A  
HETATM    8  C   UNL     1     -11.564   9.044  71.708  1.00  0.00    -0.444 A  
HETATM    9  C   UNL     1      -9.184   8.845  71.283  1.00  0.00    -0.328 A  
HETATM   10  C   UNL     1     -10.244   9.386  72.013  1.00  0.00     0.389 A  
BRANCH   8  11
HETATM   11  C   UNL     1     -12.725   9.615  72.450  1.00  0.00    -0.191 C  
HETATM   12  O   UNL     1     -13.237   8.970  73.364  1.00  0.00     0.231 OA 
BRANCH  11  13
HETATM   13  C   UNL     1     -13.224  10.985  72.036  1.00  0.00    -0.447 C  
BRANCH  13  14
HETATM   14  C   UNL     1     -12.594  11.450  70.726  1.00  0.00    -0.409 C  
BRANCH  14  15
HETATM   15  C   UNL     1     -13.221  12.745  70.204  1.00  0.00     1.124 C  
BRANCH  15  16
HETATM   16  N   UNL     1     -12.278  13.805  69.815  1.00  0.00    -0.327 NA 
HETATM   17  C   UNL     1     -11.004  13.830  70.553  1.00  0.00     0.953 C  
HETATM   18  C   UNL     1      -9.986  12.757  70.149  1.00  0.00     3.049 C  
HETATM   19  C   UNL     1      -9.776  12.664  68.632  1.00  0.00    -0.042 C  
HETATM   20  C   UNL     1     -11.143  12.570  67.952  1.00  0.00    -0.286 C  
HETATM   21  C   UNL     1     -12.016  13.764  68.365  1.00  0.00    -0.360 C  
BRANCH  19  22
HETATM   22  O   UNL     1      -9.150  13.792  68.020  1.00  0.00    -0.177 OA 
BRANCH  22  23
HETATM   23  C   UNL     1      -7.869  14.236  68.475  1.00  0.00    -0.143 C  
BRANCH  23  24
HETATM   24  C   UNL     1      -7.682  13.676  69.886  1.00  0.00     1.156 A  
HETATM   25  C   UNL     1      -8.596  13.961  70.919  1.00  0.00     5.267 A  
HETATM   26  C   UNL     1      -8.423  13.430  72.200  1.00  0.00    14.041 A  
HETATM   27  C   UNL     1      -6.581  12.858  70.183  1.00  0.00     0.311 A  
HETATM   28  C   UNL     1      -7.331  12.608  72.469  1.00  0.00    10.906 A  
HETATM   29  C   UNL     1      -6.409  12.327  71.463  1.00  0.00     2.405 A  
ENDBRANCH  23  24
BRANCH  23  30
HETATM   30  C   UNL     1      -7.705  15.748  68.421  1.00  0.00    -0.128 A  
HETATM   31  C   UNL     1      -7.355  18.540  68.437  1.00  0.00    -0.301 A  
HETATM   32  C   UNL     1      -8.381  17.962  69.180  1.00  0.00     0.111 A  
HETATM   33  C   UNL     1      -6.707  16.352  67.639  1.00  0.00    -0.161 A  
HETATM   34  C   UNL     1      -6.527  17.737  67.654  1.00  0.00    -0.187 A  
HETATM   35  C   UNL     1      -8.557  16.576  69.171  1.00  0.00    -0.147 A  
ENDBRANCH  23  30
ENDBRANCH  22  23
ENDBRANCH  19  22
ENDBRANCH  15  16
ENDBRANCH  14  15
ENDBRANCH  13  14
ENDBRANCH  11  13
ENDBRANCH   8  11
ENDBRANCH   2   5
TORSDOF 10
ENDMDL
MODEL      268
REMARK 921   NORMALIZED FREE ENERGY PREDICTED BY IDOCK:   28.82 KCAL/MOL
REMARK 922        TOTAL FREE ENERGY PREDICTED BY IDOCK:   42.74 KCAL/MOL
REMARK 923 INTER-LIGAND FREE ENERGY PREDICTED BY IDOCK:   10.27 KCAL/MOL
REMARK 924 INTRA-LIGAND FREE ENERGY PREDICTED BY IDOCK:   32.47 KCAL/MOL
REMARK 927      BINDING AFFINITY PREDICTED BY RF-SCORE:    0.00 PKD
ROOT
HETATM    1  C   UNL     1      -5.624   6.655  63.407  1.00  0.00    -0.030 C  
HETATM    2  C   UNL     1      -6.503   6.120  64.559  1.00  0.00    -0.034 C  
HETATM    3  C   UNL     1      -5.717   4.984  65.251  1.00  0.00    -0.014 C  
HETATM    4  C   UNL     1      -7.783   5.532  63.927  1.00  0.00    -0.089 C  
ENDROOT
BRANCH   2   5
HETATM    5  C   UNL     1      -6.866   7.197  65.591  1.00  0.00    -0.052 A  
HETATM    6  C   UNL     1      -6.871   8.566  65.290  1.00  0.00    -0.067 A  
HETATM    7  C   UNL     1      -7.184   9.528  66.262  1.00  0.00    -0.093 A  
HETATM    8  C   UNL     1      -7.493   9.138  67.566  1.00  0.00    -0.088 A  
HETATM    9  C   UNL     1      -7.193   6.822  66.908  1.00  0.00    -0.081 A  
HETATM   10  C   UNL     1      -7.501   7.776  67.880  1.00  0.00    -0.104 A  
BRANCH   8  11
HETATM   11  C   UNL     1      -7.797  10.189  68.579  1.00  0.00    -0.095 C  
HETATM   12  O   UNL     1      -7.569   9.970  69.767  1.00  0.00    -0.129 OA 
BRANCH  11  13
HETATM   13  C   UNL     1      -8.381  11.498  68.085  1.00  0.00    -0.152 C  
BRANCH  13  14
HETATM   14  C   UNL     1      -7.592  12.070  66.911  1.00  0.00    -0.060 C  
BRANCH  14  15
HETATM   15  C   UNL     1      -6.692  13.236  67.325  1.00  0.00     0.078 C  
BRANCH  15  16
HETATM   16  N   UNL     1      -7.293  14.576  67.234  1.00  0.00    -0.149 NA 
HETATM   17  C   UNL     1      -7.868  14.931  65.926  1.00  0.00     2.896 C  
HETATM   18  C   UNL     1      -9.223  14.287  65.604  1.00  0.00     0.345 C  
HETATM   19  C   UNL     1     -10.242  14.423  66.742  1.00  0.00    -0.270 C  
HETATM   20  C   UNL     1      -9.584  13.968  68.047  1.00  0.00    -0.217 C  
HETATM   21  C   UNL     1      -8.299  14.771  68.293  1.00  0.00    -0.148 C  
BRANCH  19  22
HETATM   22  O   UNL     1     -10.697  15.748  67.016  1.00  0.00    -0.315 OA 
BRANCH  22  23
HETATM   23  C   UNL     1      -9.802  16.712  67.576  1.00  0.00    -0.253 C  
BRANCH  23  24
HETATM   24  C   UNL     1     -10.394  18.092  67.280  1.00  0.00    -0.387 A  
HETATM   25  C   UNL     1     -10.427  19.105  68.259  1.00  0.00    -0.377 A  
HETATM   26  C   UNL     1     -10.956  20.365  67.972  1.00  0.00     0.476 A  
HETATM   27  C   UNL     1     -10.923  18.377  66.013  1.00  0.00     0.186 A  
HETATM   28  C   UNL     1     -11.463  20.633  66.702  1.00  0.00     2.641 A  
HETATM   29  C   UNL     1     -11.451  19.639  65.726  1.00  0.00     0.936 A  
ENDBRANCH  23  24
BRANCH  23  30
HETATM   30  C   UNL     1      -8.373  16.570  67.070  1.00  0.00    -0.220 A  
HETATM   31  C   UNL     1      -5.732  16.429  66.108  1.00  0.00     1.455 A  
HETATM   32  C   UNL     1      -6.793  16.567  65.217  1.00  0.00     4.148 A  
HETATM   33  C   UNL     1      -7.297  16.381  67.952  1.00  0.00    -0.146 A  
HETATM   34  C   UNL     1      -5.985  16.321  67.475  1.00  0.00    -0.188 A  
HETATM   35  C   UNL     1      -8.105  16.635  65.693  1.00  0.00     0.868 A  
ENDBRANCH  23  30
ENDBRANCH  22  23
ENDBRANCH  19  22
ENDBRANCH  15  16
ENDBRANCH  14  15
ENDBRANCH  13  14
ENDBRANCH  11  13
ENDBRANCH   8  11
ENDBRANCH   2   5
TORSDOF 10
ENDMDL
MODEL      269
REMARK 921   NORMALIZED FREE ENERGY PREDICTED BY IDOCK:   31.74 KCAL/MOL
REMARK 922        TOTAL FREE ENERGY PREDICTED BY IDOCK:   47.37 KCAL/MOL
REMARK 923 INTER-LIGAND FREE ENERGY PREDICTED BY IDOCK:   30.28 KCAL/MOL
REMARK 924 INTRA-LIGAND FREE ENERGY PREDICTED BY IDOCK:   17.09 KCAL/MOL
REMARK 927      BINDING AFFINITY PREDICTED BY RF-SCORE:    0.00 PKD
ROOT
HETATM    1  C   UNL     1      -6.165  10.009  70.193  1.00  0.00    -0.077 C  
HETATM    2  C   UNL     1      -7.632   9.611  69.923  1.00  0.00    -0.138 C  
HETATM    3  C   UNL     1      -8.007   8.510  70.940  1.00  0.00    -0.120 C  
HETATM    4  C   UNL     1      -7.694   9.020  68.498  1.00  0.00    -0.097 C  
ENDROOT
BRANCH   2   5
HETATM    5  C   UNL     1      -8.611  10.786  70.054  1.00  0.00     0.829 A  
HETATM    6  C   UNL     1      -8.189  12.121  70.122  1.00  0.00     3.372 A  
HETATM    7  C   UNL     1      -9.106  13.173  70.266  1.00  0.00     4.526 A  
HETATM    8  C   UNL     1     -10.474  12.908  70.353  1.00  0.00     2.774 A  
HETATM    9  C   UNL     1      -9.995  10.540  70.131  1.00  0.00     0.243 A  
HETATM   10  C   UNL     1     -10.912  11.582  70.278  1.00  0.00     0.530 A  
BRANCH   8  11
HETATM   11  C   UNL     1     -11.418  14.048  70.530  1.00  0.00     0.004 C  
HETATM   12  O   UNL     1     -11.003  15.201  70.428  1.00  0.00    -0.264 OA 
BRANCH  11  13
HETATM   13  C   UNL     1     -12.868  13.724  70.831  1.00  0.00    -0.341 C  
BRANCH  13  14
HETATM   14  C   UNL     1     -13.823  14.437  69.878  1.00  0.00     2.286 C  
BRANCH  14  15
HETATM   15  C   UNL     1     -13.126  14.918  68.603  1.00  0.00     2.008 C  
BRANCH  15  16
HETATM   16  N   UNL     1     -12.529  16.261  68.664  1.00  0.00     0.730 NA 
HETATM   17  C   UNL     1     -11.889  16.620  69.940  1.00  0.00     0.744 C  
HETATM   18  C   UNL     1     -10.516  15.985  70.191  1.00  0.00    -0.198 C  
HETATM   19  C   UNL     1      -9.558  16.126  69.002  1.00  0.00    -0.251 C  
HETATM   20  C   UNL     1     -10.279  15.666  67.733  1.00  0.00    -0.252 C  
HETATM   21  C   UNL     1     -11.580  16.462  67.554  1.00  0.00     0.361 C  
BRANCH  19  22
HETATM   22  O   UNL     1      -9.126  17.454  68.705  1.00  0.00    -0.270 OA 
BRANCH  22  23
HETATM   23  C   UNL     1      -7.730  17.755  68.633  1.00  0.00    -0.283 C  
BRANCH  23  24
HETATM   24  C   UNL     1      -7.063  16.589  67.900  1.00  0.00    -0.150 A  
HETATM   25  C   UNL     1      -7.527  15.267  68.042  1.00  0.00    -0.129 A  
HETATM   26  C   UNL     1      -6.920  14.213  67.355  1.00  0.00    -0.070 A  
HETATM   27  C   UNL     1      -5.961  16.818  67.063  1.00  0.00    -0.213 A  
HETATM   28  C   UNL     1      -5.836  14.464  66.516  1.00  0.00     3.427 A  
HETATM   29  C   UNL     1      -5.355  15.764  66.375  1.00  0.00     1.992 A  
ENDBRANCH  23  24
BRANCH  23  30
HETATM   30  C   UNL     1      -7.103  18.023  69.994  1.00  0.00     0.873 A  
HETATM   31  C   UNL     1      -5.842  18.463  72.471  1.00  0.00     2.032 A  
HETATM   32  C   UNL     1      -6.274  17.185  72.125  1.00  0.00     3.284 A  
HETATM   33  C   UNL     1      -6.707  19.313  70.379  1.00  0.00     0.293 A  
HETATM   34  C   UNL     1      -6.071  19.530  71.604  1.00  0.00     0.092 A  
HETATM   35  C   UNL     1      -6.902  16.965  70.897  1.00  0.00     2.730 A  
ENDBRANCH  23  30
ENDBRANCH  22  23
ENDBRANCH  19  22
ENDBRANCH  15  16
ENDBRANCH  14  15
ENDBRANCH  13  14
ENDBRANCH  11  13
ENDBRANCH   8  11
ENDBRANCH   2   5
TORSDOF 10
ENDMDL
MODEL      270
REMARK 921   NORMALIZED FREE ENERGY PREDICTED BY IDOCK:   37.27 KCAL/MOL
REMARK 922        TOTAL FREE ENERGY PREDICTED BY IDOCK:   56.12 KCAL/MOL
REMARK 923 INTER-LIGAND FREE ENERGY PREDICTED BY IDOCK:    8.45 KCAL/MOL
REMARK 924 INTRA-LIGAND FREE ENERGY PREDICTED BY IDOCK:   47.67 KCAL/MOL
REMARK 927      BINDING AFFINITY PREDICTED BY RF-SCORE:    0.00 PKD
ROOT
HETATM    1  C   UNL     1      -9.325   6.015  68.050  1.00  0.00    -0.114 C  
HETATM    2  C   UNL     1     -10.727   6.658  67.983  1.00  0.00    -0.330 C  
HETATM    3  C   UNL     1     -11.452   6.324  69.306  1.00  0.00    -0.288 C  
HETATM    4  C   UNL     1     -11.484   5.992  66.814  1.00  0.00     0.458 C  
ENDROOT
BRANCH   2   5
HETATM    5  C   UNL     1     -10.684   8.180  67.791  1.00  0.00    -0.166 A  
HETATM    6  C   UNL     1     -11.200   9.079  68.735  1.00  0.00     0.277 A  
HETATM    7  C   UNL     1     -11.167  10.465  68.520  1.00  0.00    -0.308 A  
HETATM    8  C   UNL     1     -10.620  10.983  67.345  1.00  0.00    -0.276 A  
HETATM    9  C   UNL     1     -10.125   8.722  66.618  1.00  0.00    -0.358 A  
HETATM   10  C   UNL     1     -10.093  10.100  66.398  1.00  0.00    -0.300 A  
BRANCH   8  11
HETATM   11  C   UNL     1     -10.624  12.460  67.139  1.00  0.00    -0.224 C  
HETATM   12  O   UNL     1      -9.761  12.975  66.431  1.00  0.00    -0.260 OA 
BRANCH  11  13
HETATM   13  C   UNL     1     -11.709  13.266  67.825  1.00  0.00    -0.398 C  
BRANCH  13  14
HETATM   14  C   UNL     1     -11.132  14.387  68.684  1.00  0.00    -0.269 C  
BRANCH  14  15
HETATM   15  C   UNL     1      -9.659  14.159  69.030  1.00  0.00     0.037 C  
BRANCH  15  16
HETATM   16  N   UNL     1      -8.683  14.861  68.181  1.00  0.00    -0.159 NA 
HETATM   17  C   UNL     1      -9.041  14.979  66.759  1.00  0.00    -0.262 C  
HETATM   18  C   UNL     1     -10.105  16.035  66.431  1.00  0.00    -0.314 C  
HETATM   19  C   UNL     1      -9.820  17.399  67.074  1.00  0.00    -0.286 C  
HETATM   20  C   UNL     1      -9.529  17.189  68.562  1.00  0.00    -0.282 C  
HETATM   21  C   UNL     1      -8.374  16.192  68.733  1.00  0.00    -0.231 C  
BRANCH  19  22
HETATM   22  O   UNL     1      -8.674  18.092  66.580  1.00  0.00    -0.251 OA 
BRANCH  22  23
HETATM   23  C   UNL     1      -7.361  17.610  66.877  1.00  0.00    -0.201 C  
BRANCH  23  24
HETATM   24  C   UNL     1      -7.356  16.114  66.556  1.00  0.00    -0.042 A  
HETATM   25  C   UNL     1      -8.460  15.488  65.946  1.00  0.00     0.574 A  
HETATM   26  C   UNL     1      -8.437  14.124  65.643  1.00  0.00     2.240 A  
HETATM   27  C   UNL     1      -6.237  15.328  66.867  1.00  0.00     0.900 A  
HETATM   28  C   UNL     1      -7.310  13.364  65.947  1.00  0.00     4.338 A  
HETATM   29  C   UNL     1      -6.214  13.965  66.563  1.00  0.00     3.222 A  
ENDBRANCH  23  24
BRANCH  23  30
HETATM   30  C   UNL     1      -6.923  17.902  68.306  1.00  0.00    -0.222 A  
HETATM   31  C   UNL     1      -6.214  18.512  70.959  1.00  0.00     0.887 A  
HETATM   32  C   UNL     1      -6.069  19.472  69.960  1.00  0.00    -0.315 A  
HETATM   33  C   UNL     1      -7.016  16.931  69.315  1.00  0.00    -0.211 A  
HETATM   34  C   UNL     1      -6.674  17.237  70.635  1.00  0.00     1.870 A  
HETATM   35  C   UNL     1      -6.419  19.169  68.642  1.00  0.00    -0.284 A  
ENDBRANCH  23  30
ENDBRANCH  22  23
ENDBRANCH  19  22
ENDBRANCH  15  16
ENDBRANCH  14  15
ENDBRANCH  13  14
ENDBRANCH  11  13
ENDBRANCH   8  11
ENDBRANCH   2   5
TORSDOF 10
ENDMDL
MODEL      271
REMARK 921   NORMALIZED FREE ENERGY PREDICTED BY IDOCK:   44.27 KCAL/MOL
REMARK 922        TOTAL FREE ENERGY PREDICTED BY IDOCK:   67.23 KCAL/MOL
REMARK 923 INTER-LIGAND FREE ENERGY PREDICTED BY IDOCK:   42.89 KCAL/MOL
REMARK 924 INTRA-LIGAND FREE ENERGY PREDICTED BY IDOCK:   24.34 KCAL/MOL
REMARK 927      BINDING AFFINITY PREDICTED BY RF-SCORE:    0.00 PKD
ROOT
HETATM    1  C   UNL     1     -10.178   7.585  63.640  1.00  0.00     8.010 C  
HETATM    2  C   UNL     1     -11.044   7.249  64.874  1.00  0.00     9.241 C  
HETATM    3  C   UNL     1     -10.976   5.720  65.083  1.00  0.00     2.420 C  
HETATM    4  C   UNL     1     -12.498   7.645  64.538  1.00  0.00    20.650 C  
ENDROOT
BRANCH   2   5
HETATM    5  C   UNL     1     -10.580   7.964  66.150  1.00  0.00     1.091 A  
HETATM    6  C   UNL     1     -10.623   7.363  67.416  1.00  0.00    -0.371 A  
HETATM    7  C   UNL     1     -10.213   8.051  68.567  1.00  0.00    -0.231 A  
HETATM    8  C   UNL     1      -9.755   9.366  68.477  1.00  0.00    -0.160 A  
HETATM    9  C   UNL     1     -10.103   9.287  66.078  1.00  0.00    -0.262 A  
HETATM   10  C   UNL     1      -9.697   9.977  67.221  1.00  0.00    -0.206 A  
BRANCH   8  11
HETATM   11  C   UNL     1      -9.351  10.075  69.725  1.00  0.00    -0.202 C  
HETATM   12  O   UNL     1      -8.460   9.603  70.429  1.00  0.00    -0.191 OA 
BRANCH  11  13
HETATM   13  C   UNL     1     -10.069  11.365  70.069  1.00  0.00     1.193 C  
BRANCH  13  14
HETATM   14  C   UNL     1     -11.320  11.567  69.220  1.00  0.00    -0.353 C  
BRANCH  14  15
HETATM   15  C   UNL     1     -11.072  11.282  67.737  1.00  0.00    -0.271 C  
BRANCH  15  16
HETATM   16  N   UNL     1     -10.048  12.113  67.085  1.00  0.00    -0.206 NA 
HETATM   17  C   UNL     1     -10.529  13.371  66.490  1.00  0.00    -0.283 C  
HETATM   18  C   UNL     1     -10.829  14.499  67.485  1.00  0.00    -0.289 C  
HETATM   19  C   UNL     1      -9.699  14.730  68.496  1.00  0.00    -0.218 C  
HETATM   20  C   UNL     1      -9.312  13.385  69.115  1.00  0.00     0.534 C  
HETATM   21  C   UNL     1      -8.934  12.390  68.009  1.00  0.00    -0.194 C  
BRANCH  19  22
HETATM   22  O   UNL     1      -8.478  15.240  67.960  1.00  0.00    -0.143 OA 
BRANCH  22  23
HETATM   23  C   UNL     1      -8.505  16.268  66.966  1.00  0.00    -0.202 C  
BRANCH  23  24
HETATM   24  C   UNL     1      -8.815  17.578  67.692  1.00  0.00    -0.228 A  
HETATM   25  C   UNL     1     -10.138  18.027  67.869  1.00  0.00    -0.360 A  
HETATM   26  C   UNL     1     -10.410  19.218  68.548  1.00  0.00    -0.385 A  
HETATM   27  C   UNL     1      -7.774  18.368  68.202  1.00  0.00    -0.304 A  
HETATM   28  C   UNL     1      -9.361  19.980  69.059  1.00  0.00    -0.003 A  
HETATM   29  C   UNL     1      -8.046  19.558  68.881  1.00  0.00    -0.317 A  
ENDBRANCH  23  24
BRANCH  23  30
HETATM   30  C   UNL     1      -9.483  15.983  65.834  1.00  0.00    -0.351 A  
HETATM   31  C   UNL     1     -11.196  15.468  63.663  1.00  0.00     1.548 A  
HETATM   32  C   UNL     1     -10.731  16.760  63.892  1.00  0.00     3.244 A  
HETATM   33  C   UNL     1     -10.001  14.696  65.618  1.00  0.00    -0.381 A  
HETATM   34  C   UNL     1     -10.844  14.438  64.533  1.00  0.00    -0.271 A  
HETATM   35  C   UNL     1      -9.882  17.018  64.972  1.00  0.00     1.342 A  
ENDBRANCH  23  30
ENDBRANCH  22  23
ENDBRANCH  19  22
ENDBRANCH  15  16
ENDBRANCH  14  15
ENDBRANCH  13  14
ENDBRANCH  11  13
ENDBRANCH   8  11
ENDBRANCH   2   5
TORSDOF 10
ENDMDL
MODEL      272
REMARK 921   NORMALIZED FREE ENERGY PREDICTED BY IDOCK:   55.69 KCAL/MOL
REMARK 922        TOTAL FREE ENERGY PREDICTED BY IDOCK:   85.33 KCAL/MOL
REMARK 923 INTER-LIGAND FREE ENERGY PREDICTED BY IDOCK:   78.62 KCAL/MOL
REMARK 924 INTRA-LIGAND FREE ENERGY PREDICTED BY IDOCK:    6.71 KCAL/MOL
REMARK 927      BINDING AFFINITY PREDICTED BY RF-SCORE:    0.00 PKD
ROOT
HETATM    1  C   UNL     1     -13.157   4.132  66.019  1.00  0.00    14.709 C  
HETATM    2  C   UNL     1     -13.240   5.623  65.626  1.00  0.00     8.664 C  
HETATM    3  C   UNL     1     -14.009   6.355  66.748  1.00  0.00    19.581 C  
HETATM    4  C   UNL     1     -14.058   5.710  64.319  1.00  0.00    11.276 C  
ENDROOT
BRANCH   2   5
HETATM    5  C   UNL     1     -11.864   6.275  65.436  1.00  0.00     5.345 A  
HETATM    6  C   UNL     1     -11.516   6.996  64.285  1.00  0.00    15.178 A  
HETATM    7  C   UNL     1     -10.241   7.560  64.132  1.00  0.00     7.002 A  
HETATM    8  C   UNL     1      -9.278   7.407  65.130  1.00  0.00     0.676 A  
HETATM    9  C   UNL     1     -10.882   6.142  66.437  1.00  0.00    -0.016 A  
HETATM   10  C   UNL     1      -9.611   6.698  66.288  1.00  0.00    -0.092 A  
BRANCH   8  11
HETATM   11  C   UNL     1      -7.925   7.999  64.922  1.00  0.00    -0.138 C  
HETATM   12  O   UNL     1      -7.824   9.119  64.426  1.00  0.00    -0.114 OA 
BRANCH  11  13
HETATM   13  C   UNL     1      -6.722   7.176  65.339  1.00  0.00    -0.051 C  
BRANCH  13  14
HETATM   14  C   UNL     1      -5.705   8.005  66.117  1.00  0.00    -0.037 C  
BRANCH  14  15
HETATM   15  C   UNL     1      -5.132   7.250  67.319  1.00  0.00    -0.017 C  
BRANCH  15  16
HETATM   16  N   UNL     1      -5.890   6.068  67.757  1.00  0.00    -0.016 NA 
HETATM   17  C   UNL     1      -5.922   5.831  69.209  1.00  0.00    -0.020 C  
HETATM   18  C   UNL     1      -6.860   6.744  70.007  1.00  0.00    -0.057 C  
HETATM   19  C   UNL     1      -8.267   6.839  69.404  1.00  0.00    -0.128 C  
HETATM   20  C   UNL     1      -8.142   7.158  67.912  1.00  0.00    -0.119 C  
HETATM   21  C   UNL     1      -7.264   6.102  67.225  1.00  0.00    -0.075 C  
BRANCH  19  22
HETATM   22  O   UNL     1      -9.046   5.644  69.449  1.00  0.00    -0.116 OA 
BRANCH  22  23
HETATM   23  C   UNL     1      -9.841   5.349  70.601  1.00  0.00    -0.191 C  
BRANCH  23  24
HETATM   24  C   UNL     1     -10.539   6.650  71.003  1.00  0.00    -0.263 A  
HETATM   25  C   UNL     1     -11.943   6.743  71.069  1.00  0.00    -0.431 A  
HETATM   26  C   UNL     1     -12.568   7.931  71.453  1.00  0.00    -0.319 A  
HETATM   27  C   UNL     1      -9.784   7.789  71.317  1.00  0.00    -0.179 A  
HETATM   28  C   UNL     1     -11.799   9.048  71.775  1.00  0.00    -0.442 A  
HETATM   29  C   UNL     1     -10.410   8.978  71.702  1.00  0.00    -0.420 A  
ENDBRANCH  23  24
BRANCH  23  30
HETATM   30  C   UNL     1      -9.040   4.739  71.743  1.00  0.00    -0.166 A  
HETATM   31  C   UNL     1      -7.467   3.693  73.829  1.00  0.00    -0.062 A  
HETATM   32  C   UNL     1      -7.137   3.423  72.503  1.00  0.00    -0.043 A  
HETATM   33  C   UNL     1      -9.388   4.961  73.085  1.00  0.00    -0.131 A  
HETATM   34  C   UNL     1      -8.601   4.450  74.120  1.00  0.00    -0.100 A  
HETATM   35  C   UNL     1      -7.918   3.940  71.466  1.00  0.00    -0.065 A  
ENDBRANCH  23  30
ENDBRANCH  22  23
ENDBRANCH  19  22
ENDBRANCH  15  16
ENDBRANCH  14  15
ENDBRANCH  13  14
ENDBRANCH  11  13
ENDBRANCH   8  11
ENDBRANCH   2   5
TORSDOF 10
ENDMDL
