MODEL        1
REMARK 921   NORMALIZED FREE ENERGY PREDICTED BY IDOCK:   -8.19 KCAL/MOL
REMARK 922        TOTAL FREE ENERGY PREDICTED BY IDOCK:  -10.60 KCAL/MOL
REMARK 923 INTER-LIGAND FREE ENERGY PREDICTED BY IDOCK:  -10.11 KCAL/MOL
REMARK 924 INTRA-LIGAND FREE ENERGY PREDICTED BY IDOCK:   -0.49 KCAL/MOL
REMARK 927      BINDING AFFINITY PREDICTED BY RF-SCORE:    0.00 PKD
ROOT
HETATM    1  C   UNL     1     -10.651   5.391  72.724  1.00  0.00    -0.273 C  
HETATM    2  C   UNL     1     -10.034   6.569  71.933  1.00  0.00    -0.192 C  
HETATM    3  C   UNL     1      -9.057   7.268  72.902  1.00  0.00    -0.176 C  
HETATM    4  C   UNL     1      -9.389   6.135  70.590  1.00  0.00    -0.177 C  
HETATM    5  C   UNL     1     -10.615   5.629  69.778  1.00  0.00    -0.400 C  
HETATM    6  C   UNL     1     -11.786   6.544  70.252  1.00  0.00    -0.430 C  
HETATM    7  C   UNL     1     -11.085   7.513  71.236  1.00  0.00    -0.267 C  
HETATM    8  C   UNL     1      -7.840   7.866  69.420  1.00  0.00    -0.114 C  
HETATM    9  C   UNL     1     -10.190   8.312  70.296  1.00  0.00    -0.196 C  
HETATM   10  O   UNL     1     -10.499   9.348  69.732  1.00  0.00    -0.203 OA 
HETATM   11  C   UNL     1      -8.985   7.472  69.995  1.00  0.00    -0.144 C  
ENDROOT
BRANCH   7  12
HETATM   12  C   UNL     1     -11.917   8.349  72.190  1.00  0.00    -0.374 C  
HETATM   13  S   UNL     1     -13.652   8.574  71.817  1.00  0.00    -0.391 S  
HETATM   14  O   UNL     1     -14.244   9.295  72.926  1.00  0.00    -0.465 OA 
HETATM   15  O   UNL     1     -14.208   7.336  71.331  1.00  0.00    -0.422 OA 
HETATM   16  O   UNL     1     -13.554   9.605  70.581  1.00  0.00    -0.098 OA 
ENDBRANCH   7  12
BRANCH   8  17
HETATM   17  C   UNL     1      -7.635   9.226  68.907  1.00  0.00    -0.075 A  
HETATM   18  C   UNL     1      -7.235  10.270  69.750  1.00  0.00    -0.147 A  
HETATM   19  C   UNL     1      -7.186  11.585  69.268  1.00  0.00    -0.048 A  
HETATM   20  C   UNL     1      -7.538  11.870  67.946  1.00  0.00    -0.128 A  
HETATM   21  C   UNL     1      -7.943   9.506  67.569  1.00  0.00    -0.106 A  
HETATM   22  C   UNL     1      -7.892  10.820  67.091  1.00  0.00    -0.124 A  
BRANCH  20  23
HETATM   23  C   UNL     1      -7.576  13.252  67.471  1.00  0.00    -0.169 C  
HETATM   24  C   UNL     1      -8.710  13.916  67.247  1.00  0.00    -0.225 C  
HETATM   25  C   UNL     1     -10.163  13.526  67.371  1.00  0.00    -0.237 C  
HETATM   26  C   UNL     1     -10.689  14.284  68.608  1.00  0.00    -0.256 C  
HETATM   27  C   UNL     1     -10.750  15.761  68.132  1.00  0.00    -0.285 C  
HETATM   28  C   UNL     1     -10.273  15.690  66.656  1.00  0.00    -0.283 C  
HETATM   29  C   UNL     1     -10.818  14.291  66.187  1.00  0.00    -0.310 C  
HETATM   30  C   UNL     1     -12.354  14.157  66.161  1.00  0.00    -0.463 C  
HETATM   31  C   UNL     1      -8.791  15.336  66.749  1.00  0.00    -0.271 C  
HETATM   32  O   UNL     1      -7.838  16.031  66.461  1.00  0.00    -0.256 OA 
HETATM   33  C   UNL     1     -10.321  13.849  64.789  1.00  0.00    -0.419 C  
BRANCH  28  34
HETATM   34  C   UNL     1     -10.634  16.851  65.750  1.00  0.00    -0.230 C  
HETATM   35  S   UNL     1     -10.177  18.475  66.337  1.00  0.00    -0.430 S  
HETATM   36  O   UNL     1     -10.900  18.780  67.552  1.00  0.00    -0.435 OA 
HETATM   37  O   UNL     1     -10.944  19.314  65.184  1.00  0.00    -0.448 OA 
HETATM   38  O   UNL     1      -8.773  18.751  66.176  1.00  0.00    -0.439 OA 
ENDBRANCH  28  34
ENDBRANCH  20  23
ENDBRANCH   8  17
TORSDOF 4
ENDMDL
MODEL        2
REMARK 921   NORMALIZED FREE ENERGY PREDICTED BY IDOCK:   -7.99 KCAL/MOL
REMARK 922        TOTAL FREE ENERGY PREDICTED BY IDOCK:  -10.35 KCAL/MOL
REMARK 923 INTER-LIGAND FREE ENERGY PREDICTED BY IDOCK:   -9.76 KCAL/MOL
REMARK 924 INTRA-LIGAND FREE ENERGY PREDICTED BY IDOCK:   -0.59 KCAL/MOL
REMARK 927      BINDING AFFINITY PREDICTED BY RF-SCORE:    0.00 PKD
ROOT
HETATM    1  C   UNL     1     -10.865   5.482  71.474  1.00  0.00    -0.263 C  
HETATM    2  C   UNL     1     -10.885   6.870  70.792  1.00  0.00    -0.279 C  
HETATM    3  C   UNL     1     -11.275   6.615  69.320  1.00  0.00    -0.326 C  
HETATM    4  C   UNL     1     -11.796   7.896  71.517  1.00  0.00    -0.322 C  
HETATM    5  C   UNL     1     -11.079   8.069  72.886  1.00  0.00    -0.399 C  
HETATM    6  C   UNL     1      -9.565   7.910  72.543  1.00  0.00    -0.278 C  
HETATM    7  C   UNL     1      -9.581   7.727  71.006  1.00  0.00    -0.170 C  
HETATM    8  C   UNL     1     -12.380  10.070  70.214  1.00  0.00    -0.141 C  
HETATM    9  C   UNL     1     -10.046   9.100  70.537  1.00  0.00    -0.235 C  
HETATM   10  O   UNL     1      -9.320  10.040  70.265  1.00  0.00    -0.162 OA 
HETATM   11  C   UNL     1     -11.534   9.160  70.717  1.00  0.00    -0.337 C  
ENDROOT
BRANCH   7  12
HETATM   12  C   UNL     1      -8.349   7.193  70.299  1.00  0.00    -0.136 C  
HETATM   13  S   UNL     1      -7.032   6.515  71.301  1.00  0.00    -0.077 S  
HETATM   14  O   UNL     1      -6.038   5.970  70.399  1.00  0.00    -0.028 OA 
HETATM   15  O   UNL     1      -7.593   5.736  72.376  1.00  0.00    -0.098 OA 
HETATM   16  O   UNL     1      -6.413   7.867  71.925  1.00  0.00    -0.042 OA 
ENDBRANCH   7  12
BRANCH   8  17
HETATM   17  C   UNL     1     -11.927  11.238  69.449  1.00  0.00    -0.410 A  
HETATM   18  C   UNL     1     -11.903  12.517  70.019  1.00  0.00    -0.363 A  
HETATM   19  C   UNL     1     -11.606  13.635  69.227  1.00  0.00    -0.363 A  
HETATM   20  C   UNL     1     -11.334  13.487  67.864  1.00  0.00    -0.320 A  
HETATM   21  C   UNL     1     -11.608  11.087  68.093  1.00  0.00    -0.345 A  
HETATM   22  C   UNL     1     -11.311  12.205  67.306  1.00  0.00    -0.398 A  
BRANCH  20  23
HETATM   23  C   UNL     1     -11.115  14.662  67.021  1.00  0.00    -0.333 C  
HETATM   24  C   UNL     1     -10.086  15.495  67.184  1.00  0.00    -0.254 C  
HETATM   25  C   UNL     1      -8.945  15.527  68.171  1.00  0.00    -0.179 C  
HETATM   26  C   UNL     1      -7.691  15.125  67.365  1.00  0.00    -0.225 C  
HETATM   27  C   UNL     1      -7.426  16.361  66.463  1.00  0.00    -0.223 C  
HETATM   28  C   UNL     1      -8.546  17.357  66.867  1.00  0.00    -0.270 C  
HETATM   29  C   UNL     1      -8.740  17.052  68.398  1.00  0.00    -0.247 C  
HETATM   30  C   UNL     1      -7.525  17.369  69.293  1.00  0.00    -0.026 C  
HETATM   31  C   UNL     1      -9.831  16.720  66.345  1.00  0.00    -0.297 C  
HETATM   32  O   UNL     1     -10.547  17.113  65.446  1.00  0.00    -0.618 OA 
HETATM   33  C   UNL     1      -9.952  17.768  69.043  1.00  0.00    -0.264 C  
BRANCH  28  34
HETATM   34  C   UNL     1      -8.333  18.820  66.532  1.00  0.00    -0.297 C  
HETATM   35  S   UNL     1      -6.689  19.270  65.997  1.00  0.00    -0.246 S  
HETATM   36  O   UNL     1      -5.744  19.046  67.069  1.00  0.00    -0.157 OA 
HETATM   37  O   UNL     1      -6.926  20.872  65.989  1.00  0.00    -0.133 OA 
HETATM   38  O   UNL     1      -6.424  18.891  64.634  1.00  0.00    -0.500 OA 
ENDBRANCH  28  34
ENDBRANCH  20  23
ENDBRANCH   8  17
TORSDOF 4
ENDMDL
MODEL        3
REMARK 921   NORMALIZED FREE ENERGY PREDICTED BY IDOCK:   -7.85 KCAL/MOL
REMARK 922        TOTAL FREE ENERGY PREDICTED BY IDOCK:  -10.17 KCAL/MOL
REMARK 923 INTER-LIGAND FREE ENERGY PREDICTED BY IDOCK:   -9.91 KCAL/MOL
REMARK 924 INTRA-LIGAND FREE ENERGY PREDICTED BY IDOCK:   -0.26 KCAL/MOL
REMARK 927      BINDING AFFINITY PREDICTED BY RF-SCORE:    0.00 PKD
ROOT
HETATM    1  C   UNL     1      -8.238   4.673  69.976  1.00  0.00    -0.068 C  
HETATM    2  C   UNL     1      -8.550   6.019  69.279  1.00  0.00    -0.118 C  
HETATM    3  C   UNL     1      -7.461   6.203  68.201  1.00  0.00    -0.090 C  
HETATM    4  C   UNL     1     -10.000   6.103  68.732  1.00  0.00    -0.175 C  
HETATM    5  C   UNL     1     -10.851   6.053  70.033  1.00  0.00    -0.429 C  
HETATM    6  C   UNL     1      -9.972   6.791  71.089  1.00  0.00    -0.194 C  
HETATM    7  C   UNL     1      -8.743   7.237  70.258  1.00  0.00    -0.147 C  
HETATM    8  C   UNL     1     -10.513   8.035  67.067  1.00  0.00    -0.410 C  
HETATM    9  C   UNL     1      -9.360   8.273  69.327  1.00  0.00    -0.155 C  
HETATM   10  O   UNL     1      -9.450   9.467  69.554  1.00  0.00    -0.164 OA 
HETATM   11  C   UNL     1     -10.054   7.533  68.222  1.00  0.00    -0.209 C  
ENDROOT
BRANCH   7  12
HETATM   12  C   UNL     1      -7.479   7.687  70.967  1.00  0.00    -0.075 C  
HETATM   13  S   UNL     1      -7.419   7.550  72.749  1.00  0.00    -0.085 S  
HETATM   14  O   UNL     1      -6.084   7.922  73.168  1.00  0.00    -0.059 OA 
HETATM   15  O   UNL     1      -8.027   6.309  73.160  1.00  0.00    -0.106 OA 
HETATM   16  O   UNL     1      -8.402   8.757  73.169  1.00  0.00    -0.402 OA 
ENDBRANCH   7  12
BRANCH   8  17
HETATM   17  C   UNL     1     -10.469   9.468  66.751  1.00  0.00    -0.263 A  
HETATM   18  C   UNL     1     -11.267  10.390  67.439  1.00  0.00    -0.205 A  
HETATM   19  C   UNL     1     -11.315  11.728  67.024  1.00  0.00    -0.387 A  
HETATM   20  C   UNL     1     -10.572  12.155  65.919  1.00  0.00    -0.293 A  
HETATM   21  C   UNL     1      -9.689   9.908  65.673  1.00  0.00    -0.346 A  
HETATM   22  C   UNL     1      -9.739  11.244  65.261  1.00  0.00    -0.280 A  
BRANCH  20  23
HETATM   23  C   UNL     1     -10.694  13.528  65.431  1.00  0.00    -0.308 C  
HETATM   24  C   UNL     1     -10.243  14.585  66.107  1.00  0.00    -0.317 C  
HETATM   25  C   UNL     1      -9.553  14.725  67.442  1.00  0.00    -0.210 C  
HETATM   26  C   UNL     1      -8.089  15.089  67.113  1.00  0.00    -0.245 C  
HETATM   27  C   UNL     1      -8.183  16.551  66.599  1.00  0.00    -0.306 C  
HETATM   28  C   UNL     1      -9.696  16.882  66.712  1.00  0.00    -0.274 C  
HETATM   29  C   UNL     1     -10.133  16.063  67.982  1.00  0.00    -0.240 C  
HETATM   30  C   UNL     1      -9.485  16.508  69.308  1.00  0.00    -0.152 C  
HETATM   31  C   UNL     1     -10.358  16.015  65.644  1.00  0.00    -0.392 C  
HETATM   32  O   UNL     1     -10.905  16.376  64.622  1.00  0.00    -0.717 OA 
HETATM   33  C   UNL     1     -11.660  16.039  68.232  1.00  0.00    -0.232 C  
BRANCH  28  34
HETATM   34  C   UNL     1     -10.090  18.346  66.732  1.00  0.00    -0.373 C  
HETATM   35  S   UNL     1      -8.752  19.516  66.902  1.00  0.00    -0.328 S  
HETATM   36  O   UNL     1      -8.105  19.341  68.184  1.00  0.00    -0.291 OA 
HETATM   37  O   UNL     1      -9.676  20.833  67.087  1.00  0.00    -0.462 OA 
HETATM   38  O   UNL     1      -8.016  19.703  65.678  1.00  0.00    -0.405 OA 
ENDBRANCH  28  34
ENDBRANCH  20  23
ENDBRANCH   8  17
TORSDOF 4
ENDMDL
MODEL        4
REMARK 921   NORMALIZED FREE ENERGY PREDICTED BY IDOCK:   -7.63 KCAL/MOL
REMARK 922        TOTAL FREE ENERGY PREDICTED BY IDOCK:   -9.91 KCAL/MOL
REMARK 923 INTER-LIGAND FREE ENERGY PREDICTED BY IDOCK:  -10.09 KCAL/MOL
REMARK 924 INTRA-LIGAND FREE ENERGY PREDICTED BY IDOCK:    0.19 KCAL/MOL
REMARK 927      BINDING AFFINITY PREDICTED BY RF-SCORE:    0.00 PKD
ROOT
HETATM    1  C   UNL     1      -9.789   4.223  71.753  1.00  0.00    -0.250 C  
HETATM    2  C   UNL     1     -10.228   5.670  71.427  1.00  0.00    -0.270 C  
HETATM    3  C   UNL     1     -10.499   5.702  69.908  1.00  0.00    -0.378 C  
HETATM    4  C   UNL     1     -11.422   6.158  72.290  1.00  0.00    -0.360 C  
HETATM    5  C   UNL     1     -10.813   6.174  73.722  1.00  0.00    -0.083 C  
HETATM    6  C   UNL     1      -9.321   6.564  73.494  1.00  0.00    -0.153 C  
HETATM    7  C   UNL     1      -9.257   6.788  71.963  1.00  0.00    -0.143 C  
HETATM    8  C   UNL     1     -12.631   8.322  71.504  1.00  0.00    -0.333 C  
HETATM    9  C   UNL     1     -10.117   8.035  71.798  1.00  0.00    -0.191 C  
HETATM   10  O   UNL     1      -9.713   9.185  71.831  1.00  0.00    -0.282 OA 
HETATM   11  C   UNL     1     -11.553   7.605  71.848  1.00  0.00    -0.321 C  
ENDROOT
BRANCH   7  12
HETATM   12  C   UNL     1      -7.910   6.844  71.267  1.00  0.00    -0.097 C  
HETATM   13  S   UNL     1      -6.458   7.152  72.265  1.00  0.00    -0.052 S  
HETATM   14  O   UNL     1      -5.303   7.037  71.399  1.00  0.00    -0.027 OA 
HETATM   15  O   UNL     1      -6.557   6.418  73.502  1.00  0.00    -0.072 OA 
HETATM   16  O   UNL     1      -6.653   8.719  72.590  1.00  0.00    -0.225 OA 
ENDBRANCH   7  12
BRANCH   8  17
HETATM   17  C   UNL     1     -12.551   9.728  71.089  1.00  0.00    -0.438 A  
HETATM   18  C   UNL     1     -11.978  10.093  69.864  1.00  0.00    -0.156 A  
HETATM   19  C   UNL     1     -11.782  11.446  69.554  1.00  0.00    -0.417 A  
HETATM   20  C   UNL     1     -12.152  12.443  70.462  1.00  0.00    -0.363 A  
HETATM   21  C   UNL     1     -12.963  10.729  71.977  1.00  0.00    -0.444 A  
HETATM   22  C   UNL     1     -12.767  12.079  71.665  1.00  0.00    -0.326 A  
BRANCH  20  23
HETATM   23  C   UNL     1     -11.863  13.848  70.178  1.00  0.00    -0.368 C  
HETATM   24  C   UNL     1     -11.295  14.260  69.044  1.00  0.00    -0.303 C  
HETATM   25  C   UNL     1     -10.800  13.524  67.823  1.00  0.00    -0.267 C  
HETATM   26  C   UNL     1     -11.815  13.849  66.706  1.00  0.00    -0.452 C  
HETATM   27  C   UNL     1     -11.526  15.338  66.373  1.00  0.00    -0.087 C  
HETATM   28  C   UNL     1     -10.353  15.705  67.322  1.00  0.00    -0.277 C  
HETATM   29  C   UNL     1      -9.551  14.355  67.413  1.00  0.00    -0.216 C  
HETATM   30  C   UNL     1      -8.916  13.874  66.093  1.00  0.00     0.200 C  
HETATM   31  C   UNL     1     -10.971  15.695  68.717  1.00  0.00    -0.281 C  
HETATM   32  O   UNL     1     -11.157  16.640  69.458  1.00  0.00    -0.287 OA 
HETATM   33  C   UNL     1      -8.415  14.357  68.465  1.00  0.00    -0.170 C  
BRANCH  28  34
HETATM   34  C   UNL     1      -9.518  16.918  66.962  1.00  0.00    -0.244 C  
HETATM   35  S   UNL     1     -10.406  18.302  66.266  1.00  0.00    -0.366 S  
HETATM   36  O   UNL     1     -10.989  17.925  64.996  1.00  0.00    -0.776 OA 
HETATM   37  O   UNL     1      -9.105  19.182  65.874  1.00  0.00    -0.436 OA 
HETATM   38  O   UNL     1     -11.126  19.058  67.258  1.00  0.00    -0.382 OA 
ENDBRANCH  28  34
ENDBRANCH  20  23
ENDBRANCH   8  17
TORSDOF 4
ENDMDL
MODEL        5
REMARK 921   NORMALIZED FREE ENERGY PREDICTED BY IDOCK:   -7.60 KCAL/MOL
REMARK 922        TOTAL FREE ENERGY PREDICTED BY IDOCK:   -9.86 KCAL/MOL
REMARK 923 INTER-LIGAND FREE ENERGY PREDICTED BY IDOCK:   -9.30 KCAL/MOL
REMARK 924 INTRA-LIGAND FREE ENERGY PREDICTED BY IDOCK:   -0.56 KCAL/MOL
REMARK 927      BINDING AFFINITY PREDICTED BY RF-SCORE:    0.00 PKD
ROOT
HETATM    1  C   UNL     1      -9.240  18.690  67.329  1.00  0.00    -0.297 C  
HETATM    2  C   UNL     1      -9.678  17.308  67.870  1.00  0.00    -0.273 C  
HETATM    3  C   UNL     1     -10.495  17.591  69.149  1.00  0.00    -0.190 C  
HETATM    4  C   UNL     1     -10.429  16.449  66.819  1.00  0.00    -0.273 C  
HETATM    5  C   UNL     1      -9.330  16.194  65.749  1.00  0.00    -0.221 C  
HETATM    6  C   UNL     1      -8.009  16.112  66.575  1.00  0.00    -0.294 C  
HETATM    7  C   UNL     1      -8.509  16.265  68.033  1.00  0.00    -0.174 C  
HETATM    8  C   UNL     1     -11.708  14.364  67.707  1.00  0.00    -0.407 C  
HETATM    9  C   UNL     1      -9.289  14.971  68.229  1.00  0.00    -0.192 C  
HETATM   10  O   UNL     1      -8.831  13.925  68.656  1.00  0.00    -0.161 OA 
HETATM   11  C   UNL     1     -10.626  15.143  67.571  1.00  0.00    -0.269 C  
ENDROOT
BRANCH   7  12
HETATM   12  C   UNL     1      -7.520  16.589  69.137  1.00  0.00    -0.218 C  
HETATM   13  S   UNL     1      -5.850  17.027  68.669  1.00  0.00    -0.146 S  
HETATM   14  O   UNL     1      -5.146  17.405  69.877  1.00  0.00    -0.165 OA 
HETATM   15  O   UNL     1      -5.881  17.881  67.508  1.00  0.00    -0.144 OA 
HETATM   16  O   UNL     1      -5.284  15.585  68.222  1.00  0.00    -0.094 OA 
ENDBRANCH   7  12
BRANCH   8  17
HETATM   17  C   UNL     1     -11.701  13.126  68.496  1.00  0.00    -0.387 A  
HETATM   18  C   UNL     1     -11.478  11.881  67.893  1.00  0.00    -0.385 A  
HETATM   19  C   UNL     1     -11.620  10.703  68.639  1.00  0.00    -0.297 A  
HETATM   20  C   UNL     1     -11.986  10.756  69.987  1.00  0.00    -0.427 A  
HETATM   21  C   UNL     1     -12.022  13.179  69.858  1.00  0.00    -0.387 A  
HETATM   22  C   UNL     1     -12.162  12.002  70.600  1.00  0.00    -0.409 A  
BRANCH  20  23
HETATM   23  C   UNL     1     -12.222   9.525  70.739  1.00  0.00    -0.269 C  
HETATM   24  C   UNL     1     -11.301   8.572  70.888  1.00  0.00    -0.304 C  
HETATM   25  C   UNL     1      -9.883   8.436  70.388  1.00  0.00    -0.194 C  
HETATM   26  C   UNL     1      -8.988   8.632  71.630  1.00  0.00    -0.305 C  
HETATM   27  C   UNL     1      -9.210   7.331  72.448  1.00  0.00    -0.160 C  
HETATM   28  C   UNL     1     -10.195   6.511  71.572  1.00  0.00    -0.215 C  
HETATM   29  C   UNL     1      -9.769   6.910  70.112  1.00  0.00    -0.175 C  
HETATM   30  C   UNL     1      -8.348   6.479  69.698  1.00  0.00    -0.131 C  
HETATM   31  C   UNL     1     -11.508   7.286  71.645  1.00  0.00    -0.265 C  
HETATM   32  O   UNL     1     -12.546   6.949  72.178  1.00  0.00    -0.243 OA 
HETATM   33  C   UNL     1     -10.719   6.391  69.005  1.00  0.00    -0.339 C  
BRANCH  28  34
HETATM   34  C   UNL     1     -10.278   5.019  71.825  1.00  0.00    -0.207 C  
HETATM   35  S   UNL     1      -9.830   4.476  73.467  1.00  0.00    -0.141 S  
HETATM   36  O   UNL     1      -8.435   4.767  73.718  1.00  0.00    -0.104 OA 
HETATM   37  O   UNL     1      -9.866   2.888  73.157  1.00  0.00    -0.099 OA 
HETATM   38  O   UNL     1     -10.864   4.725  74.438  1.00  0.00    -0.344 OA 
ENDBRANCH  28  34
ENDBRANCH  20  23
ENDBRANCH   8  17
TORSDOF 4
ENDMDL
MODEL        6
REMARK 921   NORMALIZED FREE ENERGY PREDICTED BY IDOCK:   -7.52 KCAL/MOL
REMARK 922        TOTAL FREE ENERGY PREDICTED BY IDOCK:   -9.77 KCAL/MOL
REMARK 923 INTER-LIGAND FREE ENERGY PREDICTED BY IDOCK:   -9.59 KCAL/MOL
REMARK 924 INTRA-LIGAND FREE ENERGY PREDICTED BY IDOCK:   -0.18 KCAL/MOL
REMARK 927      BINDING AFFINITY PREDICTED BY RF-SCORE:    0.00 PKD
ROOT
HETATM    1  C   UNL     1      -8.058   5.015  70.331  1.00  0.00    -0.085 C  
HETATM    2  C   UNL     1      -8.386   6.336  69.596  1.00  0.00    -0.125 C  
HETATM    3  C   UNL     1      -7.172   7.262  69.823  1.00  0.00    -0.082 C  
HETATM    4  C   UNL     1      -8.753   6.132  68.102  1.00  0.00    -0.114 C  
HETATM    5  C   UNL     1     -10.075   5.316  68.192  1.00  0.00    -0.211 C  
HETATM    6  C   UNL     1     -10.762   5.852  69.486  1.00  0.00    -0.414 C  
HETATM    7  C   UNL     1      -9.787   6.958  69.957  1.00  0.00    -0.180 C  
HETATM    8  C   UNL     1      -8.783   8.256  66.602  1.00  0.00    -0.150 C  
HETATM    9  C   UNL     1      -9.944   7.998  68.855  1.00  0.00    -0.195 C  
HETATM   10  O   UNL     1     -10.746   8.916  68.854  1.00  0.00    -0.197 OA 
HETATM   11  C   UNL     1      -9.130   7.541  67.681  1.00  0.00    -0.127 C  
ENDROOT
BRANCH   7  12
HETATM   12  C   UNL     1      -9.893   7.503  71.369  1.00  0.00    -0.177 C  
HETATM   13  S   UNL     1     -11.296   7.004  72.360  1.00  0.00    -0.262 S  
HETATM   14  O   UNL     1     -11.106   7.551  73.688  1.00  0.00    -0.280 OA 
HETATM   15  O   UNL     1     -11.566   5.604  72.146  1.00  0.00    -0.240 OA 
HETATM   16  O   UNL     1     -12.469   7.859  71.659  1.00  0.00    -0.301 OA 
ENDBRANCH   7  12
BRANCH   8  17
HETATM   17  C   UNL     1      -9.251   9.629  66.374  1.00  0.00    -0.205 A  
HETATM   18  C   UNL     1     -10.350   9.895  65.549  1.00  0.00    -0.060 A  
HETATM   19  C   UNL     1     -10.688  11.218  65.232  1.00  0.00    -0.302 A  
HETATM   20  C   UNL     1      -9.932  12.283  65.731  1.00  0.00    -0.273 A  
HETATM   21  C   UNL     1      -8.523  10.698  66.911  1.00  0.00    -0.127 A  
HETATM   22  C   UNL     1      -8.863  12.018  66.593  1.00  0.00    -0.191 A  
BRANCH  20  23
HETATM   23  C   UNL     1     -10.229  13.656  65.326  1.00  0.00    -0.341 C  
HETATM   24  C   UNL     1      -9.873  14.722  66.044  1.00  0.00    -0.350 C  
HETATM   25  C   UNL     1      -9.149  14.871  67.359  1.00  0.00    -0.196 C  
HETATM   26  C   UNL     1      -7.751  15.418  67.001  1.00  0.00    -0.220 C  
HETATM   27  C   UNL     1      -8.032  16.884  66.573  1.00  0.00    -0.329 C  
HETATM   28  C   UNL     1      -9.566  17.032  66.757  1.00  0.00    -0.274 C  
HETATM   29  C   UNL     1      -9.855  16.104  67.993  1.00  0.00    -0.231 C  
HETATM   30  C   UNL     1      -9.207  16.551  69.319  1.00  0.00    -0.122 C  
HETATM   31  C   UNL     1     -10.169  16.150  65.666  1.00  0.00    -0.364 C  
HETATM   32  O   UNL     1     -10.794  16.499  64.685  1.00  0.00    -0.741 OA 
HETATM   33  C   UNL     1     -11.358  15.891  68.295  1.00  0.00    -0.342 C  
BRANCH  28  34
HETATM   34  C   UNL     1     -10.123  18.437  66.872  1.00  0.00    -0.367 C  
HETATM   35  S   UNL     1      -8.921  19.742  67.079  1.00  0.00    -0.347 S  
HETATM   36  O   UNL     1      -8.219  19.571  68.333  1.00  0.00    -0.333 OA 
HETATM   37  O   UNL     1      -9.981  20.932  67.363  1.00  0.00    -0.397 OA 
HETATM   38  O   UNL     1      -8.249  20.080  65.851  1.00  0.00    -0.334 OA 
ENDBRANCH  28  34
ENDBRANCH  20  23
ENDBRANCH   8  17
TORSDOF 4
ENDMDL
MODEL        7
REMARK 921   NORMALIZED FREE ENERGY PREDICTED BY IDOCK:   -7.34 KCAL/MOL
REMARK 922        TOTAL FREE ENERGY PREDICTED BY IDOCK:   -9.55 KCAL/MOL
REMARK 923 INTER-LIGAND FREE ENERGY PREDICTED BY IDOCK:   -9.39 KCAL/MOL
REMARK 924 INTRA-LIGAND FREE ENERGY PREDICTED BY IDOCK:   -0.16 KCAL/MOL
REMARK 927      BINDING AFFINITY PREDICTED BY RF-SCORE:    0.00 PKD
ROOT
HETATM    1  C   UNL     1      -7.709   4.175  70.347  1.00  0.00    -0.045 C  
HETATM    2  C   UNL     1      -8.086   5.616  69.928  1.00  0.00    -0.095 C  
HETATM    3  C   UNL     1      -6.808   6.462  70.112  1.00  0.00    -0.057 C  
HETATM    4  C   UNL     1      -8.697   5.700  68.504  1.00  0.00    -0.110 C  
HETATM    5  C   UNL     1     -10.026   4.907  68.665  1.00  0.00    -0.195 C  
HETATM    6  C   UNL     1     -10.469   5.205  70.130  1.00  0.00    -0.305 C  
HETATM    7  C   UNL     1      -9.378   6.186  70.624  1.00  0.00    -0.177 C  
HETATM    8  C   UNL     1      -8.865   8.067  67.439  1.00  0.00    -0.134 C  
HETATM    9  C   UNL     1      -9.660   7.415  69.770  1.00  0.00    -0.163 C  
HETATM   10  O   UNL     1     -10.406   8.332  70.069  1.00  0.00    -0.202 OA 
HETATM   11  C   UNL     1      -9.068   7.170  68.414  1.00  0.00    -0.127 C  
ENDROOT
BRANCH   7  12
HETATM   12  C   UNL     1      -9.230   6.460  72.109  1.00  0.00    -0.140 C  
HETATM   13  S   UNL     1     -10.659   6.218  73.156  1.00  0.00    -0.263 S  
HETATM   14  O   UNL     1     -10.234   6.423  74.526  1.00  0.00    -0.342 OA 
HETATM   15  O   UNL     1     -11.362   5.028  72.749  1.00  0.00    -0.247 OA 
HETATM   16  O   UNL     1     -11.547   7.498  72.740  1.00  0.00    -0.314 OA 
ENDBRANCH   7  12
BRANCH   8  17
HETATM   17  C   UNL     1      -9.295   9.467  67.544  1.00  0.00    -0.147 A  
HETATM   18  C   UNL     1      -8.527  10.414  68.232  1.00  0.00    -0.123 A  
HETATM   19  C   UNL     1      -9.027  11.707  68.443  1.00  0.00    -0.176 A  
HETATM   20  C   UNL     1     -10.294  12.063  67.973  1.00  0.00    -0.206 A  
HETATM   21  C   UNL     1     -10.545   9.839  67.033  1.00  0.00    -0.269 A  
HETATM   22  C   UNL     1     -11.041  11.131  67.244  1.00  0.00    -0.366 A  
BRANCH  20  23
HETATM   23  C   UNL     1     -10.851  13.381  68.273  1.00  0.00    -0.275 C  
HETATM   24  C   UNL     1     -10.356  14.513  67.772  1.00  0.00    -0.237 C  
HETATM   25  C   UNL     1      -9.193  14.802  66.855  1.00  0.00    -0.263 C  
HETATM   26  C   UNL     1      -9.823  15.207  65.505  1.00  0.00    -0.356 C  
HETATM   27  C   UNL     1     -10.417  16.614  65.789  1.00  0.00    -0.324 C  
HETATM   28  C   UNL     1     -10.042  16.878  67.272  1.00  0.00    -0.286 C  
HETATM   29  C   UNL     1      -8.654  16.151  67.409  1.00  0.00    -0.196 C  
HETATM   30  C   UNL     1      -7.514  16.740  66.555  1.00  0.00    -0.322 C  
HETATM   31  C   UNL     1     -10.894  15.890  68.065  1.00  0.00    -0.317 C  
HETATM   32  O   UNL     1     -11.817  16.135  68.815  1.00  0.00    -0.339 OA 
HETATM   33  C   UNL     1      -8.115  16.073  68.858  1.00  0.00    -0.218 C  
BRANCH  28  34
HETATM   34  C   UNL     1     -10.057  18.317  67.750  1.00  0.00    -0.356 C  
HETATM   35  S   UNL     1      -9.808  19.562  66.494  1.00  0.00    -0.439 S  
HETATM   36  O   UNL     1      -8.486  19.428  65.922  1.00  0.00    -0.433 OA 
HETATM   37  O   UNL     1      -9.692  20.824  67.501  1.00  0.00    -0.439 OA 
HETATM   38  O   UNL     1     -10.984  19.788  65.693  1.00  0.00    -0.382 OA 
ENDBRANCH  28  34
ENDBRANCH  20  23
ENDBRANCH   8  17
TORSDOF 4
ENDMDL
MODEL        8
REMARK 921   NORMALIZED FREE ENERGY PREDICTED BY IDOCK:   -7.24 KCAL/MOL
REMARK 922        TOTAL FREE ENERGY PREDICTED BY IDOCK:   -9.42 KCAL/MOL
REMARK 923 INTER-LIGAND FREE ENERGY PREDICTED BY IDOCK:   -9.61 KCAL/MOL
REMARK 924 INTRA-LIGAND FREE ENERGY PREDICTED BY IDOCK:    0.19 KCAL/MOL
REMARK 927      BINDING AFFINITY PREDICTED BY RF-SCORE:    0.00 PKD
ROOT
HETATM    1  C   UNL     1      -9.646   3.681  71.572  1.00  0.00    -0.234 C  
HETATM    2  C   UNL     1     -10.047   5.163  71.380  1.00  0.00    -0.265 C  
HETATM    3  C   UNL     1      -9.932   5.443  69.866  1.00  0.00    -0.294 C  
HETATM    4  C   UNL     1     -11.437   5.504  71.980  1.00  0.00    -0.128 C  
HETATM    5  C   UNL     1     -11.205   5.285  73.503  1.00  0.00    -0.243 C  
HETATM    6  C   UNL     1      -9.719   5.705  73.723  1.00  0.00    -0.157 C  
HETATM    7  C   UNL     1      -9.285   6.177  72.314  1.00  0.00    -0.143 C  
HETATM    8  C   UNL     1     -12.498   7.769  71.268  1.00  0.00    -0.301 C  
HETATM    9  C   UNL     1     -10.127   7.435  72.138  1.00  0.00    -0.190 C  
HETATM   10  O   UNL     1      -9.791   8.563  72.453  1.00  0.00    -0.292 OA 
HETATM   11  C   UNL     1     -11.512   7.004  71.755  1.00  0.00    -0.301 C  
ENDROOT
BRANCH   7  12
HETATM   12  C   UNL     1      -7.811   6.345  71.997  1.00  0.00    -0.100 C  
HETATM   13  S   UNL     1      -6.637   6.162  73.334  1.00  0.00    -0.075 S  
HETATM   14  O   UNL     1      -5.310   6.245  72.761  1.00  0.00    -0.034 OA 
HETATM   15  O   UNL     1      -7.033   5.064  74.180  1.00  0.00    -0.074 OA 
HETATM   16  O   UNL     1      -6.893   7.537  74.138  1.00  0.00    -0.086 OA 
ENDBRANCH   7  12
BRANCH   8  17
HETATM   17  C   UNL     1     -12.374   9.224  71.115  1.00  0.00    -0.363 A  
HETATM   18  C   UNL     1     -12.942  10.104  72.045  1.00  0.00    -0.508 A  
HETATM   19  C   UNL     1     -12.935  11.485  71.802  1.00  0.00    -0.500 A  
HETATM   20  C   UNL     1     -12.364  11.997  70.633  1.00  0.00    -0.394 A  
HETATM   21  C   UNL     1     -11.762   9.742  69.967  1.00  0.00    -0.131 A  
HETATM   22  C   UNL     1     -11.755  11.121  69.728  1.00  0.00    -0.419 A  
BRANCH  20  23
HETATM   23  C   UNL     1     -12.439  13.427  70.338  1.00  0.00    -0.322 C  
HETATM   24  C   UNL     1     -11.678  14.023  69.420  1.00  0.00    -0.365 C  
HETATM   25  C   UNL     1     -10.602  13.509  68.495  1.00  0.00    -0.257 C  
HETATM   26  C   UNL     1     -11.231  13.522  67.085  1.00  0.00    -0.324 C  
HETATM   27  C   UNL     1     -11.315  15.033  66.737  1.00  0.00    -0.293 C  
HETATM   28  C   UNL     1     -10.700  15.730  67.981  1.00  0.00    -0.296 C  
HETATM   29  C   UNL     1      -9.605  14.701  68.444  1.00  0.00    -0.217 C  
HETATM   30  C   UNL     1      -8.449  14.475  67.449  1.00  0.00    -0.220 C  
HETATM   31  C   UNL     1     -11.718  15.494  69.094  1.00  0.00    -0.365 C  
HETATM   32  O   UNL     1     -12.420  16.315  69.650  1.00  0.00     0.023 OA 
HETATM   33  C   UNL     1      -8.946  15.038  69.804  1.00  0.00     0.115 C  
BRANCH  28  34
HETATM   34  C   UNL     1     -10.205  17.153  67.809  1.00  0.00    -0.324 C  
HETATM   35  S   UNL     1      -9.756  17.631  66.148  1.00  0.00    -0.159 S  
HETATM   36  O   UNL     1      -8.630  16.843  65.696  1.00  0.00    -0.443 OA 
HETATM   37  O   UNL     1      -9.120  19.070  66.532  1.00  0.00    -0.315 OA 
HETATM   38  O   UNL     1     -10.901  17.901  65.317  1.00  0.00    -0.614 OA 
ENDBRANCH  28  34
ENDBRANCH  20  23
ENDBRANCH   8  17
TORSDOF 4
ENDMDL
MODEL        9
REMARK 921   NORMALIZED FREE ENERGY PREDICTED BY IDOCK:   -7.21 KCAL/MOL
REMARK 922        TOTAL FREE ENERGY PREDICTED BY IDOCK:   -9.38 KCAL/MOL
REMARK 923 INTER-LIGAND FREE ENERGY PREDICTED BY IDOCK:   -9.04 KCAL/MOL
REMARK 924 INTRA-LIGAND FREE ENERGY PREDICTED BY IDOCK:   -0.34 KCAL/MOL
REMARK 927      BINDING AFFINITY PREDICTED BY RF-SCORE:    0.00 PKD
ROOT
HETATM    1  C   UNL     1     -10.659  18.144  67.681  1.00  0.00    -0.424 C  
HETATM    2  C   UNL     1     -10.616  16.609  67.866  1.00  0.00    -0.342 C  
HETATM    3  C   UNL     1     -11.200  16.333  69.268  1.00  0.00    -0.312 C  
HETATM    4  C   UNL     1     -11.325  15.834  66.724  1.00  0.00     0.080 C  
HETATM    5  C   UNL     1     -10.438  16.173  65.491  1.00  0.00    -0.407 C  
HETATM    6  C   UNL     1      -9.000  16.295  66.082  1.00  0.00    -0.374 C  
HETATM    7  C   UNL     1      -9.215  15.951  67.576  1.00  0.00    -0.210 C  
HETATM    8  C   UNL     1     -11.831  13.319  67.151  1.00  0.00    -0.424 C  
HETATM    9  C   UNL     1      -9.588  14.476  67.502  1.00  0.00    -0.210 C  
HETATM   10  O   UNL     1      -8.806  13.542  67.556  1.00  0.00    -0.186 OA 
HETATM   11  C   UNL     1     -11.030  14.392  67.099  1.00  0.00    -0.305 C  
ENDROOT
BRANCH   7  12
HETATM   12  C   UNL     1      -8.136  16.287  68.588  1.00  0.00    -0.213 C  
HETATM   13  S   UNL     1      -6.722  17.229  68.029  1.00  0.00    -0.177 S  
HETATM   14  O   UNL     1      -5.908  17.522  69.191  1.00  0.00    -0.184 OA 
HETATM   15  O   UNL     1      -7.157  18.265  67.125  1.00  0.00    -0.192 OA 
HETATM   16  O   UNL     1      -5.942  16.107  67.174  1.00  0.00    -0.273 OA 
ENDBRANCH   7  12
BRANCH   8  17
HETATM   17  C   UNL     1     -11.353  11.990  67.554  1.00  0.00    -0.387 A  
HETATM   18  C   UNL     1     -11.262  11.629  68.903  1.00  0.00    -0.306 A  
HETATM   19  C   UNL     1     -10.668  10.412  69.267  1.00  0.00    -0.270 A  
HETATM   20  C   UNL     1     -10.161   9.550  68.291  1.00  0.00    -0.225 A  
HETATM   21  C   UNL     1     -10.887  11.105  66.574  1.00  0.00    -0.302 A  
HETATM   22  C   UNL     1     -10.296   9.890  66.941  1.00  0.00    -0.300 A  
BRANCH  20  23
HETATM   23  C   UNL     1      -9.461   8.325  68.676  1.00  0.00    -0.147 C  
HETATM   24  C   UNL     1      -9.733   7.650  69.793  1.00  0.00    -0.171 C  
HETATM   25  C   UNL     1     -10.715   7.886  70.915  1.00  0.00    -0.234 C  
HETATM   26  C   UNL     1     -11.810   6.811  70.736  1.00  0.00    -0.446 C  
HETATM   27  C   UNL     1     -11.098   5.494  71.149  1.00  0.00    -0.125 C  
HETATM   28  C   UNL     1      -9.670   5.958  71.546  1.00  0.00    -0.189 C  
HETATM   29  C   UNL     1      -9.931   7.382  72.160  1.00  0.00    -0.203 C  
HETATM   30  C   UNL     1     -10.775   7.401  73.450  1.00  0.00    -0.407 C  
HETATM   31  C   UNL     1      -9.029   6.392  70.230  1.00  0.00    -0.154 C  
HETATM   32  O   UNL     1      -8.110   5.863  69.638  1.00  0.00    -0.102 OA 
HETATM   33  C   UNL     1      -8.646   8.188  72.471  1.00  0.00    -0.255 C  
BRANCH  28  34
HETATM   34  C   UNL     1      -8.853   5.028  72.421  1.00  0.00    -0.127 C  
HETATM   35  S   UNL     1      -9.678   3.543  72.972  1.00  0.00    -0.129 S  
HETATM   36  O   UNL     1     -10.794   3.887  73.825  1.00  0.00    -0.209 OA 
HETATM   37  O   UNL     1      -8.520   3.051  73.991  1.00  0.00    -0.072 OA 
HETATM   38  O   UNL     1      -9.766   2.540  71.942  1.00  0.00    -0.130 OA 
ENDBRANCH  28  34
ENDBRANCH  20  23
ENDBRANCH   8  17
TORSDOF 4
ENDMDL
MODEL       10
REMARK 921   NORMALIZED FREE ENERGY PREDICTED BY IDOCK:   -6.97 KCAL/MOL
REMARK 922        TOTAL FREE ENERGY PREDICTED BY IDOCK:   -9.09 KCAL/MOL
REMARK 923 INTER-LIGAND FREE ENERGY PREDICTED BY IDOCK:   -8.47 KCAL/MOL
REMARK 924 INTRA-LIGAND FREE ENERGY PREDICTED BY IDOCK:   -0.63 KCAL/MOL
REMARK 927      BINDING AFFINITY PREDICTED BY RF-SCORE:    0.00 PKD
ROOT
HETATM    1  C   UNL     1      -8.014   4.257  70.303  1.00  0.00    -0.055 C  
HETATM    2  C   UNL     1      -8.244   5.645  69.659  1.00  0.00    -0.107 C  
HETATM    3  C   UNL     1      -6.868   6.346  69.655  1.00  0.00    -0.065 C  
HETATM    4  C   UNL     1      -8.916   5.568  68.263  1.00  0.00    -0.109 C  
HETATM    5  C   UNL     1     -10.317   4.981  68.600  1.00  0.00    -0.098 C  
HETATM    6  C   UNL     1     -10.645   5.568  70.007  1.00  0.00    -0.384 C  
HETATM    7  C   UNL     1      -9.423   6.476  70.291  1.00  0.00    -0.169 C  
HETATM    8  C   UNL     1      -8.866   7.731  66.818  1.00  0.00    -0.154 C  
HETATM    9  C   UNL     1      -9.606   7.573  69.251  1.00  0.00    -0.158 C  
HETATM   10  O   UNL     1     -10.224   8.611  69.415  1.00  0.00    -0.200 OA 
HETATM   11  C   UNL     1      -9.119   7.038  67.937  1.00  0.00    -0.127 C  
ENDROOT
BRANCH   7  12
HETATM   12  C   UNL     1      -9.164   6.970  71.703  1.00  0.00    -0.142 C  
HETATM   13  S   UNL     1     -10.448   6.732  72.925  1.00  0.00    -0.254 S  
HETATM   14  O   UNL     1      -9.919   7.170  74.201  1.00  0.00    -0.301 OA 
HETATM   15  O   UNL     1     -11.043   5.430  72.756  1.00  0.00    -0.258 OA 
HETATM   16  O   UNL     1     -11.515   7.842  72.449  1.00  0.00    -0.324 OA 
ENDBRANCH   7  12
BRANCH   8  17
HETATM   17  C   UNL     1      -9.126   9.171  66.699  1.00  0.00    -0.182 A  
HETATM   18  C   UNL     1     -10.341   9.651  66.196  1.00  0.00    -0.202 A  
HETATM   19  C   UNL     1     -10.511  11.022  65.957  1.00  0.00    -0.304 A  
HETATM   20  C   UNL     1      -9.472  11.921  66.214  1.00  0.00    -0.238 A  
HETATM   21  C   UNL     1      -8.102  10.078  66.999  1.00  0.00    -0.117 A  
HETATM   22  C   UNL     1      -8.275  11.446  66.760  1.00  0.00    -0.160 A  
BRANCH  20  23
HETATM   23  C   UNL     1      -9.618  13.337  65.877  1.00  0.00    -0.122 C  
HETATM   24  C   UNL     1      -9.669  14.303  66.795  1.00  0.00    -0.282 C  
HETATM   25  C   UNL     1      -9.616  14.283  68.303  1.00  0.00    -0.221 C  
HETATM   26  C   UNL     1      -8.231  14.854  68.675  1.00  0.00    -0.157 C  
HETATM   27  C   UNL     1      -8.357  16.364  68.338  1.00  0.00    -0.191 C  
HETATM   28  C   UNL     1      -9.817  16.506  67.828  1.00  0.00    -0.240 C  
HETATM   29  C   UNL     1     -10.585  15.436  68.689  1.00  0.00    -0.239 C  
HETATM   30  C   UNL     1     -10.619  15.711  70.205  1.00  0.00    -0.329 C  
HETATM   31  C   UNL     1      -9.828  15.770  66.490  1.00  0.00    -0.269 C  
HETATM   32  O   UNL     1      -9.965  16.243  65.380  1.00  0.00    -0.514 OA 
HETATM   33  C   UNL     1     -12.054  15.205  68.257  1.00  0.00    -0.059 C  
BRANCH  28  34
HETATM   34  C   UNL     1     -10.429  17.892  67.841  1.00  0.00    -0.396 C  
HETATM   35  S   UNL     1      -9.290  19.254  67.647  1.00  0.00    -0.315 S  
HETATM   36  O   UNL     1      -8.377  19.296  68.768  1.00  0.00    -0.361 OA 
HETATM   37  O   UNL     1     -10.357  20.435  67.943  1.00  0.00    -0.316 OA 
HETATM   38  O   UNL     1      -8.858  19.428  66.284  1.00  0.00    -0.348 OA 
ENDBRANCH  28  34
ENDBRANCH  20  23
ENDBRANCH   8  17
TORSDOF 4
ENDMDL
MODEL       11
REMARK 921   NORMALIZED FREE ENERGY PREDICTED BY IDOCK:   -6.94 KCAL/MOL
REMARK 922        TOTAL FREE ENERGY PREDICTED BY IDOCK:   -9.05 KCAL/MOL
REMARK 923 INTER-LIGAND FREE ENERGY PREDICTED BY IDOCK:   -9.09 KCAL/MOL
REMARK 924 INTRA-LIGAND FREE ENERGY PREDICTED BY IDOCK:    0.04 KCAL/MOL
REMARK 927      BINDING AFFINITY PREDICTED BY RF-SCORE:    0.00 PKD
ROOT
HETATM    1  C   UNL     1      -9.115   3.289  73.782  1.00  0.00    -0.093 C  
HETATM    2  C   UNL     1      -9.571   4.550  73.010  1.00  0.00    -0.153 C  
HETATM    3  C   UNL     1     -11.094   4.661  73.236  1.00  0.00    -0.403 C  
HETATM    4  C   UNL     1      -8.781   5.827  73.401  1.00  0.00    -0.120 C  
HETATM    5  C   UNL     1      -7.341   5.489  72.918  1.00  0.00    -0.092 C  
HETATM    6  C   UNL     1      -7.564   4.615  71.645  1.00  0.00    -0.082 C  
HETATM    7  C   UNL     1      -9.106   4.603  71.506  1.00  0.00    -0.175 C  
HETATM    8  C   UNL     1      -9.774   8.103  72.627  1.00  0.00    -0.360 C  
HETATM    9  C   UNL     1      -9.395   6.057  71.156  1.00  0.00    -0.160 C  
HETATM   10  O   UNL     1      -9.448   6.519  70.029  1.00  0.00    -0.156 OA 
HETATM   11  C   UNL     1      -9.345   6.849  72.429  1.00  0.00    -0.149 C  
ENDROOT
BRANCH   7  12
HETATM   12  C   UNL     1      -9.772   3.583  70.601  1.00  0.00    -0.125 C  
HETATM   13  S   UNL     1      -8.725   2.563  69.570  1.00  0.00    -0.086 S  
HETATM   14  O   UNL     1      -9.578   1.602  68.902  1.00  0.00    -0.143 OA 
HETATM   15  O   UNL     1      -7.560   2.157  70.316  1.00  0.00    -0.042 OA 
HETATM   16  O   UNL     1      -8.266   3.640  68.462  1.00  0.00    -0.072 OA 
ENDBRANCH   7  12
BRANCH   8  17
HETATM   17  C   UNL     1     -10.303   8.942  71.544  1.00  0.00    -0.394 A  
HETATM   18  C   UNL     1      -9.468   9.437  70.535  1.00  0.00    -0.327 A  
HETATM   19  C   UNL     1      -9.966  10.351  69.596  1.00  0.00    -0.209 A  
HETATM   20  C   UNL     1     -11.295  10.780  69.658  1.00  0.00    -0.362 A  
HETATM   21  C   UNL     1     -11.646   9.337  71.578  1.00  0.00    -0.452 A  
HETATM   22  C   UNL     1     -12.140  10.249  70.639  1.00  0.00    -0.433 A  
BRANCH  20  23
HETATM   23  C   UNL     1     -11.787  11.803  68.736  1.00  0.00    -0.380 C  
HETATM   24  C   UNL     1     -11.115  12.922  68.462  1.00  0.00    -0.299 C  
HETATM   25  C   UNL     1      -9.795  13.466  68.951  1.00  0.00     0.074 C  
HETATM   26  C   UNL     1      -8.825  13.327  67.759  1.00  0.00    -0.197 C  
HETATM   27  C   UNL     1      -9.316  14.411  66.761  1.00  0.00    -0.285 C  
HETATM   28  C   UNL     1     -10.508  15.077  67.501  1.00  0.00    -0.256 C  
HETATM   29  C   UNL     1     -10.063  14.997  69.007  1.00  0.00    -0.241 C  
HETATM   30  C   UNL     1      -8.807  15.814  69.369  1.00  0.00    -0.237 C  
HETATM   31  C   UNL     1     -11.591  14.003  67.527  1.00  0.00    -0.367 C  
HETATM   32  O   UNL     1     -12.655  14.001  66.940  1.00  0.00    -0.262 OA 
HETATM   33  C   UNL     1     -11.158  15.414  70.019  1.00  0.00    -0.317 C  
BRANCH  28  34
HETATM   34  C   UNL     1     -10.934  16.455  67.036  1.00  0.00    -0.048 C  
HETATM   35  S   UNL     1     -10.237  17.012  65.488  1.00  0.00     0.012 S  
HETATM   36  O   UNL     1      -8.802  17.146  65.615  1.00  0.00    -0.482 OA 
HETATM   37  O   UNL     1     -10.798  18.528  65.564  1.00  0.00    -0.488 OA 
HETATM   38  O   UNL     1     -10.864  16.402  64.344  1.00  0.00    -0.732 OA 
ENDBRANCH  28  34
ENDBRANCH  20  23
ENDBRANCH   8  17
TORSDOF 4
ENDMDL
MODEL       12
REMARK 921   NORMALIZED FREE ENERGY PREDICTED BY IDOCK:   -6.89 KCAL/MOL
REMARK 922        TOTAL FREE ENERGY PREDICTED BY IDOCK:   -8.99 KCAL/MOL
REMARK 923 INTER-LIGAND FREE ENERGY PREDICTED BY IDOCK:   -8.90 KCAL/MOL
REMARK 924 INTRA-LIGAND FREE ENERGY PREDICTED BY IDOCK:   -0.09 KCAL/MOL
REMARK 927      BINDING AFFINITY PREDICTED BY RF-SCORE:    0.00 PKD
ROOT
HETATM    1  C   UNL     1      -8.296  20.450  66.437  1.00  0.00    -0.136 C  
HETATM    2  C   UNL     1      -8.768  19.068  66.946  1.00  0.00    -0.316 C  
HETATM    3  C   UNL     1     -10.229  19.260  67.407  1.00  0.00    -0.514 C  
HETATM    4  C   UNL     1      -8.580  17.934  65.903  1.00  0.00     0.118 C  
HETATM    5  C   UNL     1      -7.032  17.866  65.761  1.00  0.00    -0.234 C  
HETATM    6  C   UNL     1      -6.505  18.223  67.185  1.00  0.00    -0.191 C  
HETATM    7  C   UNL     1      -7.811  18.393  67.999  1.00  0.00    -0.286 C  
HETATM    8  C   UNL     1      -9.815  15.693  66.372  1.00  0.00    -0.295 C  
HETATM    9  C   UNL     1      -8.349  16.968  68.021  1.00  0.00    -0.211 C  
HETATM   10  O   UNL     1      -8.105  16.131  68.873  1.00  0.00    -0.202 OA 
HETATM   11  C   UNL     1      -9.005  16.711  66.697  1.00  0.00    -0.285 C  
ENDROOT
BRANCH   7  12
HETATM   12  C   UNL     1      -7.770  19.082  69.351  1.00  0.00     0.038 C  
HETATM   13  S   UNL     1      -6.216  19.781  69.892  1.00  0.00    -0.342 S  
HETATM   14  O   UNL     1      -6.464  20.479  71.137  1.00  0.00    -0.544 OA 
HETATM   15  O   UNL     1      -5.559  20.421  68.779  1.00  0.00    -0.243 OA 
HETATM   16  O   UNL     1      -5.401  18.438  70.255  1.00  0.00    -0.214 OA 
ENDBRANCH   7  12
BRANCH   8  17
HETATM   17  C   UNL     1     -10.115  14.591  67.295  1.00  0.00    -0.247 A  
HETATM   18  C   UNL     1      -9.359  13.413  67.291  1.00  0.00    -0.233 A  
HETATM   19  C   UNL     1      -9.753  12.321  68.077  1.00  0.00    -0.205 A  
HETATM   20  C   UNL     1     -10.902  12.396  68.870  1.00  0.00    -0.239 A  
HETATM   21  C   UNL     1     -11.240  14.681  68.125  1.00  0.00    -0.304 A  
HETATM   22  C   UNL     1     -11.630  13.590  68.910  1.00  0.00    -0.364 A  
BRANCH  20  23
HETATM   23  C   UNL     1     -11.362  11.227  69.618  1.00  0.00    -0.359 C  
HETATM   24  C   UNL     1     -10.643  10.111  69.742  1.00  0.00    -0.298 C  
HETATM   25  C   UNL     1      -9.289   9.705  69.214  1.00  0.00    -0.184 C  
HETATM   26  C   UNL     1      -8.350   9.709  70.440  1.00  0.00    -0.188 C  
HETATM   27  C   UNL     1      -8.809   8.468  71.254  1.00  0.00    -0.240 C  
HETATM   28  C   UNL     1      -9.951   7.866  70.392  1.00  0.00    -0.192 C  
HETATM   29  C   UNL     1      -9.481   8.189  68.926  1.00  0.00    -0.151 C  
HETATM   30  C   UNL     1      -8.179   7.492  68.482  1.00  0.00    -0.125 C  
HETATM   31  C   UNL     1     -11.085   8.882  70.495  1.00  0.00    -0.251 C  
HETATM   32  O   UNL     1     -12.159   8.749  71.046  1.00  0.00    -0.289 OA 
HETATM   33  C   UNL     1     -10.533   7.878  67.834  1.00  0.00    -0.261 C  
BRANCH  28  34
HETATM   34  C   UNL     1     -10.320   6.416  70.636  1.00  0.00    -0.198 C  
HETATM   35  S   UNL     1     -10.027   5.801  72.287  1.00  0.00    -0.173 S  
HETATM   36  O   UNL     1      -8.610   5.825  72.578  1.00  0.00    -0.121 OA 
HETATM   37  O   UNL     1     -10.354   4.247  71.970  1.00  0.00    -0.174 OA 
HETATM   38  O   UNL     1     -11.022   6.241  73.230  1.00  0.00    -0.254 OA 
ENDBRANCH  28  34
ENDBRANCH  20  23
ENDBRANCH   8  17
TORSDOF 4
ENDMDL
MODEL       13
REMARK 921   NORMALIZED FREE ENERGY PREDICTED BY IDOCK:   -6.86 KCAL/MOL
REMARK 922        TOTAL FREE ENERGY PREDICTED BY IDOCK:   -8.96 KCAL/MOL
REMARK 923 INTER-LIGAND FREE ENERGY PREDICTED BY IDOCK:   -8.19 KCAL/MOL
REMARK 924 INTRA-LIGAND FREE ENERGY PREDICTED BY IDOCK:   -0.77 KCAL/MOL
REMARK 927      BINDING AFFINITY PREDICTED BY RF-SCORE:    0.00 PKD
ROOT
HETATM    1  C   UNL     1      -9.854   3.906  73.152  1.00  0.00    -0.176 C  
HETATM    2  C   UNL     1      -9.813   5.162  72.250  1.00  0.00    -0.216 C  
HETATM    3  C   UNL     1     -11.274   5.642  72.121  1.00  0.00    -0.288 C  
HETATM    4  C   UNL     1      -8.833   6.251  72.762  1.00  0.00    -0.125 C  
HETATM    5  C   UNL     1      -7.453   5.546  72.631  1.00  0.00    -0.097 C  
HETATM    6  C   UNL     1      -7.610   4.636  71.375  1.00  0.00    -0.078 C  
HETATM    7  C   UNL     1      -9.043   4.968  70.890  1.00  0.00    -0.181 C  
HETATM    8  C   UNL     1      -9.050   8.615  71.698  1.00  0.00    -0.318 C  
HETATM    9  C   UNL     1      -8.884   6.412  70.429  1.00  0.00    -0.151 C  
HETATM   10  O   UNL     1      -8.583   6.768  69.303  1.00  0.00    -0.128 OA 
HETATM   11  C   UNL     1      -8.911   7.283  71.650  1.00  0.00    -0.123 C  
ENDROOT
BRANCH   7  12
HETATM   12  C   UNL     1      -9.732   4.052  69.896  1.00  0.00    -0.193 C  
HETATM   13  S   UNL     1      -8.802   2.676  69.235  1.00  0.00    -0.108 S  
HETATM   14  O   UNL     1      -9.706   1.894  68.416  1.00  0.00    -0.170 OA 
HETATM   15  O   UNL     1      -8.013   2.077  70.282  1.00  0.00    -0.042 OA 
HETATM   16  O   UNL     1      -7.805   3.450  68.231  1.00  0.00    -0.063 OA 
ENDBRANCH   7  12
BRANCH   8  17
HETATM   17  C   UNL     1      -9.115   9.451  70.493  1.00  0.00    -0.308 A  
HETATM   18  C   UNL     1      -7.956   9.979  69.910  1.00  0.00    -0.184 A  
HETATM   19  C   UNL     1      -8.054  10.890  68.849  1.00  0.00    -0.144 A  
HETATM   20  C   UNL     1      -9.305  11.283  68.364  1.00  0.00    -0.181 A  
HETATM   21  C   UNL     1     -10.366   9.810  69.975  1.00  0.00    -0.307 A  
HETATM   22  C   UNL     1     -10.460  10.719  68.915  1.00  0.00    -0.228 A  
BRANCH  20  23
HETATM   23  C   UNL     1      -9.407  12.301  67.320  1.00  0.00    -0.185 C  
HETATM   24  C   UNL     1      -9.525  13.604  67.581  1.00  0.00    -0.221 C  
HETATM   25  C   UNL     1      -9.601  14.384  68.871  1.00  0.00    -0.123 C  
HETATM   26  C   UNL     1      -8.246  15.115  68.991  1.00  0.00    -0.193 C  
HETATM   27  C   UNL     1      -8.327  16.214  67.897  1.00  0.00    -0.165 C  
HETATM   28  C   UNL     1      -9.737  16.013  67.278  1.00  0.00    -0.232 C  
HETATM   29  C   UNL     1     -10.587  15.532  68.511  1.00  0.00    -0.246 C  
HETATM   30  C   UNL     1     -10.746  16.564  69.645  1.00  0.00    -0.323 C  
HETATM   31  C   UNL     1      -9.643  14.682  66.536  1.00  0.00    -0.289 C  
HETATM   32  O   UNL     1      -9.679  14.493  65.337  1.00  0.00    -0.285 OA 
HETATM   33  C   UNL     1     -12.016  15.055  68.155  1.00  0.00    -0.195 C  
BRANCH  28  34
HETATM   34  C   UNL     1     -10.333  17.175  66.509  1.00  0.00    -0.306 C  
HETATM   35  S   UNL     1      -9.439  18.718  66.601  1.00  0.00    -0.340 S  
HETATM   36  O   UNL     1      -9.435  19.204  67.964  1.00  0.00    -0.307 OA 
HETATM   37  O   UNL     1     -10.549  19.624  65.847  1.00  0.00    -0.502 OA 
HETATM   38  O   UNL     1      -8.266  18.732  65.767  1.00  0.00    -0.465 OA 
ENDBRANCH  28  34
ENDBRANCH  20  23
ENDBRANCH   8  17
TORSDOF 4
ENDMDL
MODEL       14
REMARK 921   NORMALIZED FREE ENERGY PREDICTED BY IDOCK:   -6.85 KCAL/MOL
REMARK 922        TOTAL FREE ENERGY PREDICTED BY IDOCK:   -8.94 KCAL/MOL
REMARK 923 INTER-LIGAND FREE ENERGY PREDICTED BY IDOCK:   -8.42 KCAL/MOL
REMARK 924 INTRA-LIGAND FREE ENERGY PREDICTED BY IDOCK:   -0.52 KCAL/MOL
REMARK 927      BINDING AFFINITY PREDICTED BY RF-SCORE:    0.00 PKD
ROOT
HETATM    1  C   UNL     1      -9.249   3.661  69.094  1.00  0.00    -0.226 C  
HETATM    2  C   UNL     1      -9.388   5.114  68.581  1.00  0.00    -0.164 C  
HETATM    3  C   UNL     1     -10.782   5.595  69.035  1.00  0.00    -0.307 C  
HETATM    4  C   UNL     1      -8.225   6.037  69.031  1.00  0.00    -0.108 C  
HETATM    5  C   UNL     1      -7.001   5.409  68.305  1.00  0.00    -0.061 C  
HETATM    6  C   UNL     1      -7.591   4.868  66.967  1.00  0.00    -0.087 C  
HETATM    7  C   UNL     1      -9.075   5.302  67.049  1.00  0.00    -0.112 C  
HETATM    8  C   UNL     1      -8.578   8.597  68.737  1.00  0.00    -0.130 C  
HETATM    9  C   UNL     1      -8.958   6.818  66.952  1.00  0.00    -0.128 C  
HETATM   10  O   UNL     1      -8.982   7.468  65.921  1.00  0.00    -0.159 OA 
HETATM   11  C   UNL     1      -8.556   7.328  68.304  1.00  0.00    -0.123 C  
ENDROOT
BRANCH   7  12
HETATM   12  C   UNL     1     -10.094   4.679  66.113  1.00  0.00    -0.266 C  
HETATM   13  S   UNL     1      -9.492   3.823  64.663  1.00  0.00    -0.176 S  
HETATM   14  O   UNL     1     -10.635   3.221  64.008  1.00  0.00    -0.214 OA 
HETATM   15  O   UNL     1      -8.321   3.055  65.005  1.00  0.00    -0.093 OA 
HETATM   16  O   UNL     1      -9.030   5.073  63.755  1.00  0.00    -0.090 OA 
ENDBRANCH   7  12
BRANCH   8  17
HETATM   17  C   UNL     1      -8.939   9.725  67.870  1.00  0.00    -0.119 A  
HETATM   18  C   UNL     1      -7.964  10.444  67.167  1.00  0.00    -0.115 A  
HETATM   19  C   UNL     1      -8.316  11.604  66.463  1.00  0.00    -0.122 A  
HETATM   20  C   UNL     1      -9.639  12.056  66.456  1.00  0.00    -0.234 A  
HETATM   21  C   UNL     1     -10.272  10.154  67.825  1.00  0.00    -0.232 A  
HETATM   22  C   UNL     1     -10.620  11.312  67.120  1.00  0.00    -0.274 A  
BRANCH  20  23
HETATM   23  C   UNL     1      -9.987  13.315  65.799  1.00  0.00    -0.261 C  
HETATM   24  C   UNL     1      -9.690  14.511  66.309  1.00  0.00    -0.330 C  
HETATM   25  C   UNL     1      -8.999  14.935  67.581  1.00  0.00    -0.181 C  
HETATM   26  C   UNL     1      -7.618  15.469  67.142  1.00  0.00    -0.253 C  
HETATM   27  C   UNL     1      -7.954  16.816  66.445  1.00  0.00    -0.356 C  
HETATM   28  C   UNL     1      -9.497  16.925  66.581  1.00  0.00    -0.282 C  
HETATM   29  C   UNL     1      -9.768  16.230  67.966  1.00  0.00    -0.230 C  
HETATM   30  C   UNL     1      -9.166  16.946  69.192  1.00  0.00    -0.105 C  
HETATM   31  C   UNL     1     -10.040  15.829  65.668  1.00  0.00    -0.371 C  
HETATM   32  O   UNL     1     -10.661  15.960  64.632  1.00  0.00    -0.525 OA 
HETATM   33  C   UNL     1     -11.267  16.009  68.286  1.00  0.00    -0.350 C  
BRANCH  28  34
HETATM   34  C   UNL     1     -10.115  18.300  66.427  1.00  0.00    -0.396 C  
HETATM   35  S   UNL     1      -9.013  19.686  66.660  1.00  0.00    -0.379 S  
HETATM   36  O   UNL     1      -8.527  19.704  68.023  1.00  0.00    -0.304 OA 
HETATM   37  O   UNL     1     -10.148  20.839  66.616  1.00  0.00    -0.216 OA 
HETATM   38  O   UNL     1      -8.157  19.914  65.525  1.00  0.00    -0.337 OA 
ENDBRANCH  28  34
ENDBRANCH  20  23
ENDBRANCH   8  17
TORSDOF 4
ENDMDL
MODEL       15
REMARK 921   NORMALIZED FREE ENERGY PREDICTED BY IDOCK:   -6.76 KCAL/MOL
REMARK 922        TOTAL FREE ENERGY PREDICTED BY IDOCK:   -8.83 KCAL/MOL
REMARK 923 INTER-LIGAND FREE ENERGY PREDICTED BY IDOCK:   -8.11 KCAL/MOL
REMARK 924 INTRA-LIGAND FREE ENERGY PREDICTED BY IDOCK:   -0.72 KCAL/MOL
REMARK 927      BINDING AFFINITY PREDICTED BY RF-SCORE:    0.00 PKD
ROOT
HETATM    1  C   UNL     1     -10.588  17.826  67.554  1.00  0.00    -0.365 C  
HETATM    2  C   UNL     1     -10.596  16.313  67.878  1.00  0.00    -0.318 C  
HETATM    3  C   UNL     1     -11.388  16.163  69.195  1.00  0.00    -0.323 C  
HETATM    4  C   UNL     1     -11.137  15.440  66.714  1.00  0.00    -0.244 C  
HETATM    5  C   UNL     1     -10.070  15.666  65.605  1.00  0.00    -0.395 C  
HETATM    6  C   UNL     1      -8.735  15.839  66.393  1.00  0.00    -0.372 C  
HETATM    7  C   UNL     1      -9.177  15.630  67.862  1.00  0.00    -0.190 C  
HETATM    8  C   UNL     1     -11.738  12.974  67.280  1.00  0.00    -0.429 C  
HETATM    9  C   UNL     1      -9.556  14.155  67.863  1.00  0.00    -0.223 C  
HETATM   10  O   UNL     1      -8.805  13.229  68.116  1.00  0.00    -0.178 OA 
HETATM   11  C   UNL     1     -10.923  14.037  67.255  1.00  0.00    -0.303 C  
ENDROOT
BRANCH   7  12
HETATM   12  C   UNL     1      -8.257  16.054  68.992  1.00  0.00    -0.235 C  
HETATM   13  S   UNL     1      -6.785  16.979  68.576  1.00  0.00    -0.180 S  
HETATM   14  O   UNL     1      -6.149  17.365  69.819  1.00  0.00    -0.246 OA 
HETATM   15  O   UNL     1      -7.092  17.942  67.548  1.00  0.00    -0.190 OA 
HETATM   16  O   UNL     1      -5.881  15.814  67.924  1.00  0.00    -0.119 OA 
ENDBRANCH   7  12
BRANCH   8  17
HETATM   17  C   UNL     1     -11.345  11.686  67.866  1.00  0.00    -0.369 A  
HETATM   18  C   UNL     1     -10.729  10.694  67.094  1.00  0.00    -0.327 A  
HETATM   19  C   UNL     1     -10.495   9.423  67.637  1.00  0.00    -0.328 A  
HETATM   20  C   UNL     1     -10.876   9.131  68.950  1.00  0.00    -0.099 A  
HETATM   21  C   UNL     1     -11.684  11.406  69.196  1.00  0.00    -0.410 A  
HETATM   22  C   UNL     1     -11.449  10.137  69.735  1.00  0.00    -0.288 A  
BRANCH  20  23
HETATM   23  C   UNL     1     -10.716   7.779  69.484  1.00  0.00    -0.200 C  
HETATM   24  C   UNL     1      -9.673   7.408  70.227  1.00  0.00    -0.172 C  
HETATM   25  C   UNL     1      -8.445   8.144  70.704  1.00  0.00    -0.128 C  
HETATM   26  C   UNL     1      -8.657   8.361  72.217  1.00  0.00    -0.263 C  
HETATM   27  C   UNL     1      -8.483   6.939  72.818  1.00  0.00    -0.126 C  
HETATM   28  C   UNL     1      -8.163   6.056  71.581  1.00  0.00    -0.119 C  
HETATM   29  C   UNL     1      -7.352   7.038  70.659  1.00  0.00    -0.076 C  
HETATM   30  C   UNL     1      -5.998   7.509  71.226  1.00  0.00    -0.035 C  
HETATM   31  C   UNL     1      -9.467   6.024  70.787  1.00  0.00    -0.168 C  
HETATM   32  O   UNL     1     -10.204   5.077  70.601  1.00  0.00    -0.238 OA 
HETATM   33  C   UNL     1      -7.061   6.489  69.241  1.00  0.00    -0.084 C  
BRANCH  28  34
HETATM   34  C   UNL     1      -7.493   4.720  71.833  1.00  0.00    -0.087 C  
HETATM   35  S   UNL     1      -8.061   3.816  73.265  1.00  0.00    -0.088 S  
HETATM   36  O   UNL     1      -7.756   4.559  74.469  1.00  0.00    -0.080 OA 
HETATM   37  O   UNL     1      -6.938   2.651  73.209  1.00  0.00    -0.029 OA 
HETATM   38  O   UNL     1      -9.329   3.169  73.049  1.00  0.00    -0.089 OA 
ENDBRANCH  28  34
ENDBRANCH  20  23
ENDBRANCH   8  17
TORSDOF 4
ENDMDL
MODEL       16
REMARK 921   NORMALIZED FREE ENERGY PREDICTED BY IDOCK:   -6.72 KCAL/MOL
REMARK 922        TOTAL FREE ENERGY PREDICTED BY IDOCK:   -8.78 KCAL/MOL
REMARK 923 INTER-LIGAND FREE ENERGY PREDICTED BY IDOCK:   -8.13 KCAL/MOL
REMARK 924 INTRA-LIGAND FREE ENERGY PREDICTED BY IDOCK:   -0.65 KCAL/MOL
REMARK 927      BINDING AFFINITY PREDICTED BY RF-SCORE:    0.00 PKD
ROOT
HETATM    1  C   UNL     1      -9.682  18.599  68.425  1.00  0.00    -0.405 C  
HETATM    2  C   UNL     1      -9.978  17.082  68.363  1.00  0.00    -0.289 C  
HETATM    3  C   UNL     1     -10.816  16.759  69.618  1.00  0.00    -0.205 C  
HETATM    4  C   UNL     1     -10.641  16.641  67.031  1.00  0.00    -0.247 C  
HETATM    5  C   UNL     1      -9.523  16.935  65.989  1.00  0.00    -0.227 C  
HETATM    6  C   UNL     1      -8.200  16.656  66.766  1.00  0.00    -0.274 C  
HETATM    7  C   UNL     1      -8.709  16.174  68.146  1.00  0.00    -0.175 C  
HETATM    8  C   UNL     1     -11.701  14.267  66.979  1.00  0.00    -0.427 C  
HETATM    9  C   UNL     1      -9.354  14.841  67.788  1.00  0.00    -0.199 C  
HETATM   10  O   UNL     1      -8.793  13.759  67.786  1.00  0.00    -0.168 OA 
HETATM   11  C   UNL     1     -10.703  15.133  67.201  1.00  0.00    -0.310 C  
ENDROOT
BRANCH   7  12
HETATM   12  C   UNL     1      -7.755  16.126  69.325  1.00  0.00    -0.210 C  
HETATM   13  S   UNL     1      -6.152  16.897  69.142  1.00  0.00    -0.196 S  
HETATM   14  O   UNL     1      -5.486  16.824  70.426  1.00  0.00    -0.207 OA 
HETATM   15  O   UNL     1      -6.291  18.140  68.426  1.00  0.00    -0.189 OA 
HETATM   16  O   UNL     1      -5.425  15.834  68.171  1.00  0.00    -0.101 OA 
ENDBRANCH   7  12
BRANCH   8  17
HETATM   17  C   UNL     1     -11.568  12.824  67.217  1.00  0.00    -0.420 A  
HETATM   18  C   UNL     1     -11.898  12.257  68.454  1.00  0.00    -0.358 A  
HETATM   19  C   UNL     1     -11.627  10.905  68.703  1.00  0.00    -0.373 A  
HETATM   20  C   UNL     1     -11.023  10.110  67.724  1.00  0.00    -0.338 A  
HETATM   21  C   UNL     1     -11.006  12.015  66.221  1.00  0.00    -0.340 A  
HETATM   22  C   UNL     1     -10.737  10.665  66.473  1.00  0.00    -0.218 A  
BRANCH  20  23
HETATM   23  C   UNL     1     -10.657   8.725  68.018  1.00  0.00    -0.218 C  
HETATM   24  C   UNL     1      -9.885   8.377  69.048  1.00  0.00    -0.184 C  
HETATM   25  C   UNL     1      -9.194   9.180  70.122  1.00  0.00    -0.231 C  
HETATM   26  C   UNL     1      -9.983   8.899  71.419  1.00  0.00    -0.378 C  
HETATM   27  C   UNL     1      -9.607   7.432  71.764  1.00  0.00    -0.168 C  
HETATM   28  C   UNL     1      -8.617   7.032  70.637  1.00  0.00    -0.147 C  
HETATM   29  C   UNL     1      -7.874   8.386  70.338  1.00  0.00    -0.090 C  
HETATM   30  C   UNL     1      -7.022   8.941  71.497  1.00  0.00    -0.080 C  
HETATM   31  C   UNL     1      -9.478   6.964  69.378  1.00  0.00    -0.148 C  
HETATM   32  O   UNL     1      -9.774   5.981  68.729  1.00  0.00    -0.126 OA 
HETATM   33  C   UNL     1      -6.947   8.345  69.099  1.00  0.00    -0.059 C  
BRANCH  28  34
HETATM   34  C   UNL     1      -7.705   5.850  70.896  1.00  0.00    -0.098 C  
HETATM   35  S   UNL     1      -7.827   5.107  72.516  1.00  0.00    -0.102 S  
HETATM   36  O   UNL     1      -7.415   6.057  73.526  1.00  0.00    -0.092 OA 
HETATM   37  O   UNL     1      -6.566   4.104  72.358  1.00  0.00    -0.020 OA 
HETATM   38  O   UNL     1      -8.993   4.274  72.661  1.00  0.00    -0.109 OA 
ENDBRANCH  28  34
ENDBRANCH  20  23
ENDBRANCH   8  17
TORSDOF 4
ENDMDL
MODEL       17
REMARK 921   NORMALIZED FREE ENERGY PREDICTED BY IDOCK:   -6.59 KCAL/MOL
REMARK 922        TOTAL FREE ENERGY PREDICTED BY IDOCK:   -8.62 KCAL/MOL
REMARK 923 INTER-LIGAND FREE ENERGY PREDICTED BY IDOCK:   -8.43 KCAL/MOL
REMARK 924 INTRA-LIGAND FREE ENERGY PREDICTED BY IDOCK:   -0.19 KCAL/MOL
REMARK 927      BINDING AFFINITY PREDICTED BY RF-SCORE:    0.00 PKD
ROOT
HETATM    1  C   UNL     1      -8.552   4.667  69.032  1.00  0.00    -0.099 C  
HETATM    2  C   UNL     1      -8.850   6.185  69.042  1.00  0.00    -0.123 C  
HETATM    3  C   UNL     1      -7.652   6.860  68.341  1.00  0.00    -0.111 C  
HETATM    4  C   UNL     1     -10.227   6.543  68.422  1.00  0.00    -0.192 C  
HETATM    5  C   UNL     1     -11.223   5.873  69.412  1.00  0.00    -0.277 C  
HETATM    6  C   UNL     1     -10.516   5.992  70.797  1.00  0.00    -0.298 C  
HETATM    7  C   UNL     1      -9.223   6.772  70.455  1.00  0.00    -0.156 C  
HETATM    8  C   UNL     1     -10.641   9.048  67.855  1.00  0.00    -0.256 C  
HETATM    9  C   UNL     1      -9.780   8.138  70.073  1.00  0.00    -0.172 C  
HETATM   10  O   UNL     1      -9.960   9.070  70.838  1.00  0.00    -0.215 OA 
HETATM   11  C   UNL     1     -10.297   8.040  68.669  1.00  0.00    -0.224 C  
ENDROOT
BRANCH   7  12
HETATM   12  C   UNL     1      -8.078   6.805  71.450  1.00  0.00    -0.110 C  
HETATM   13  S   UNL     1      -8.274   5.911  72.987  1.00  0.00    -0.117 S  
HETATM   14  O   UNL     1      -7.015   5.993  73.700  1.00  0.00    -0.079 OA 
HETATM   15  O   UNL     1      -8.923   4.649  72.734  1.00  0.00    -0.118 OA 
HETATM   16  O   UNL     1      -9.317   6.871  73.754  1.00  0.00    -0.161 OA 
ENDBRANCH   7  12
BRANCH   8  17
HETATM   17  C   UNL     1     -10.637  10.452  68.282  1.00  0.00    -0.245 A  
HETATM   18  C   UNL     1     -11.775  11.046  68.840  1.00  0.00    -0.400 A  
HETATM   19  C   UNL     1     -11.792  12.422  69.106  1.00  0.00    -0.352 A  
HETATM   20  C   UNL     1     -10.678  13.215  68.817  1.00  0.00    -0.253 A  
HETATM   21  C   UNL     1      -9.504  11.239  68.036  1.00  0.00    -0.173 A  
HETATM   22  C   UNL     1      -9.524  12.612  68.304  1.00  0.00    -0.203 A  
BRANCH  20  23
HETATM   23  C   UNL     1     -10.730  14.663  69.009  1.00  0.00    -0.253 C  
HETATM   24  C   UNL     1      -9.876  15.507  68.428  1.00  0.00    -0.210 C  
HETATM   25  C   UNL     1      -8.702  15.297  67.504  1.00  0.00    -0.189 C  
HETATM   26  C   UNL     1      -9.172  15.796  66.120  1.00  0.00    -0.385 C  
HETATM   27  C   UNL     1      -9.228  17.338  66.289  1.00  0.00    -0.243 C  
HETATM   28  C   UNL     1      -8.758  17.565  67.751  1.00  0.00    -0.230 C  
HETATM   29  C   UNL     1      -7.713  16.408  67.958  1.00  0.00    -0.159 C  
HETATM   30  C   UNL     1      -6.454  16.491  67.073  1.00  0.00    -0.221 C  
HETATM   31  C   UNL     1      -9.890  17.003  68.608  1.00  0.00    -0.290 C  
HETATM   32  O   UNL     1     -10.655  17.614  69.328  1.00  0.00    -0.220 OA 
HETATM   33  C   UNL     1      -7.210  16.255  69.415  1.00  0.00    -0.192 C  
BRANCH  28  34
HETATM   34  C   UNL     1      -8.258  18.948  68.117  1.00  0.00    -0.311 C  
HETATM   35  S   UNL     1      -8.256  20.155  66.800  1.00  0.00    -0.281 S  
HETATM   36  O   UNL     1      -7.338  19.746  65.759  1.00  0.00    -0.304 OA 
HETATM   37  O   UNL     1      -7.467  21.314  67.608  1.00  0.00    -0.350 OA 
HETATM   38  O   UNL     1      -9.569  20.675  66.520  1.00  0.00    -0.256 OA 
ENDBRANCH  28  34
ENDBRANCH  20  23
ENDBRANCH   8  17
TORSDOF 4
ENDMDL
MODEL       18
REMARK 921   NORMALIZED FREE ENERGY PREDICTED BY IDOCK:   -6.59 KCAL/MOL
REMARK 922        TOTAL FREE ENERGY PREDICTED BY IDOCK:   -8.61 KCAL/MOL
REMARK 923 INTER-LIGAND FREE ENERGY PREDICTED BY IDOCK:   -8.47 KCAL/MOL
REMARK 924 INTRA-LIGAND FREE ENERGY PREDICTED BY IDOCK:   -0.14 KCAL/MOL
REMARK 927      BINDING AFFINITY PREDICTED BY RF-SCORE:    0.00 PKD
ROOT
HETATM    1  C   UNL     1      -8.851   5.131  67.946  1.00  0.00    -0.104 C  
HETATM    2  C   UNL     1      -8.990   6.667  67.831  1.00  0.00    -0.112 C  
HETATM    3  C   UNL     1      -7.589   7.195  67.456  1.00  0.00    -0.110 C  
HETATM    4  C   UNL     1     -10.113   7.110  66.857  1.00  0.00    -0.308 C  
HETATM    5  C   UNL     1     -11.395   6.585  67.565  1.00  0.00    -0.103 C  
HETATM    6  C   UNL     1     -11.069   6.717  69.084  1.00  0.00    -0.332 C  
HETATM    7  C   UNL     1      -9.661   7.361  69.076  1.00  0.00    -0.148 C  
HETATM    8  C   UNL     1     -10.114   9.607  66.127  1.00  0.00    -0.328 C  
HETATM    9  C   UNL     1      -9.959   8.747  68.520  1.00  0.00    -0.182 C  
HETATM   10  O   UNL     1     -10.240   9.732  69.182  1.00  0.00    -0.180 OA 
HETATM   11  C   UNL     1     -10.097   8.619  67.032  1.00  0.00    -0.342 C  
ENDROOT
BRANCH   7  12
HETATM   12  C   UNL     1      -8.820   7.346  70.339  1.00  0.00    -0.149 C  
HETATM   13  S   UNL     1      -9.627   6.944  71.883  1.00  0.00    -0.152 S  
HETATM   14  O   UNL     1      -8.603   6.877  72.905  1.00  0.00    -0.116 OA 
HETATM   15  O   UNL     1     -10.564   5.868  71.674  1.00  0.00    -0.225 OA 
HETATM   16  O   UNL     1     -10.463   8.299  72.139  1.00  0.00    -0.251 OA 
ENDBRANCH   7  12
BRANCH   8  17
HETATM   17  C   UNL     1     -10.082  11.027  66.499  1.00  0.00    -0.270 A  
HETATM   18  C   UNL     1      -8.871  11.698  66.706  1.00  0.00    -0.184 A  
HETATM   19  C   UNL     1      -8.868  13.009  67.200  1.00  0.00    -0.218 A  
HETATM   20  C   UNL     1     -10.071  13.660  67.494  1.00  0.00    -0.237 A  
HETATM   21  C   UNL     1     -11.287  11.696  66.750  1.00  0.00    -0.354 A  
HETATM   22  C   UNL     1     -11.281  13.005  67.242  1.00  0.00    -0.325 A  
BRANCH  20  23
HETATM   23  C   UNL     1     -10.063  14.992  68.095  1.00  0.00    -0.220 C  
HETATM   24  C   UNL     1      -9.063  15.860  67.934  1.00  0.00    -0.190 C  
HETATM   25  C   UNL     1      -7.754  15.781  67.189  1.00  0.00    -0.255 C  
HETATM   26  C   UNL     1      -7.924  16.698  65.959  1.00  0.00    -0.052 C  
HETATM   27  C   UNL     1      -7.910  18.128  66.565  1.00  0.00    -0.287 C  
HETATM   28  C   UNL     1      -7.708  17.880  68.085  1.00  0.00    -0.256 C  
HETATM   29  C   UNL     1      -6.797  16.597  68.104  1.00  0.00    -0.149 C  
HETATM   30  C   UNL     1      -5.392  16.777  67.496  1.00  0.00    -0.162 C  
HETATM   31  C   UNL     1      -9.014  17.237  68.545  1.00  0.00    -0.273 C  
HETATM   32  O   UNL     1      -9.858  17.706  69.281  1.00  0.00    -0.188 OA 
HETATM   33  C   UNL     1      -6.586  15.986  69.510  1.00  0.00    -0.201 C  
BRANCH  28  34
HETATM   34  C   UNL     1      -7.195  19.037  68.918  1.00  0.00    -0.329 C  
HETATM   35  S   UNL     1      -6.461  20.391  68.013  1.00  0.00    -0.309 S  
HETATM   36  O   UNL     1      -5.270  19.936  67.328  1.00  0.00    -0.160 OA 
HETATM   37  O   UNL     1      -5.908  21.201  69.301  1.00  0.00    -0.263 OA 
HETATM   38  O   UNL     1      -7.442  21.240  67.388  1.00  0.00    -0.450 OA 
ENDBRANCH  28  34
ENDBRANCH  20  23
ENDBRANCH   8  17
TORSDOF 4
ENDMDL
MODEL       19
REMARK 921   NORMALIZED FREE ENERGY PREDICTED BY IDOCK:   -6.53 KCAL/MOL
REMARK 922        TOTAL FREE ENERGY PREDICTED BY IDOCK:   -8.54 KCAL/MOL
REMARK 923 INTER-LIGAND FREE ENERGY PREDICTED BY IDOCK:   -8.37 KCAL/MOL
REMARK 924 INTRA-LIGAND FREE ENERGY PREDICTED BY IDOCK:   -0.17 KCAL/MOL
REMARK 927      BINDING AFFINITY PREDICTED BY RF-SCORE:    0.00 PKD
ROOT
HETATM    1  C   UNL     1     -10.157  19.676  68.844  1.00  0.00    -0.491 C  
HETATM    2  C   UNL     1      -9.975  18.259  68.249  1.00  0.00    -0.382 C  
HETATM    3  C   UNL     1     -10.100  17.279  69.436  1.00  0.00    -0.091 C  
HETATM    4  C   UNL     1     -10.945  17.957  67.077  1.00  0.00     0.045 C  
HETATM    5  C   UNL     1     -10.484  18.973  65.992  1.00  0.00    -0.530 C  
HETATM    6  C   UNL     1      -8.944  19.090  66.214  1.00  0.00    -0.289 C  
HETATM    7  C   UNL     1      -8.687  18.080  67.360  1.00  0.00    -0.248 C  
HETATM    8  C   UNL     1     -11.158  15.471  66.342  1.00  0.00    -0.174 C  
HETATM    9  C   UNL     1      -8.981  16.753  66.673  1.00  0.00    -0.250 C  
HETATM   10  O   UNL     1      -8.167  16.062  66.085  1.00  0.00    -0.268 OA 
HETATM   11  C   UNL     1     -10.471  16.585  66.629  1.00  0.00    -0.266 C  
ENDROOT
BRANCH   7  12
HETATM   12  C   UNL     1      -7.377  18.128  68.124  1.00  0.00    -0.251 C  
HETATM   13  S   UNL     1      -6.310  19.541  67.878  1.00  0.00    -0.218 S  
HETATM   14  O   UNL     1      -5.198  19.411  68.798  1.00  0.00    -0.188 OA 
HETATM   15  O   UNL     1      -7.104  20.742  67.809  1.00  0.00    -0.303 OA 
HETATM   16  O   UNL     1      -5.742  19.226  66.402  1.00  0.00    -0.161 OA 
ENDBRANCH   7  12
BRANCH   8  17
HETATM   17  C   UNL     1     -10.508  14.221  65.929  1.00  0.00    -0.315 A  
HETATM   18  C   UNL     1     -10.613  13.746  64.616  1.00  0.00    -0.443 A  
HETATM   19  C   UNL     1     -10.108  12.482  64.282  1.00  0.00    -0.298 A  
HETATM   20  C   UNL     1      -9.498  11.682  65.254  1.00  0.00    -0.170 A  
HETATM   21  C   UNL     1      -9.856  13.438  66.890  1.00  0.00    -0.256 A  
HETATM   22  C   UNL     1      -9.352  12.177  66.554  1.00  0.00    -0.229 A  
BRANCH  20  23
HETATM   23  C   UNL     1      -9.055  10.328  64.926  1.00  0.00    -0.250 C  
HETATM   24  C   UNL     1      -9.062   9.325  65.804  1.00  0.00    -0.260 C  
HETATM   25  C   UNL     1      -9.461   9.244  67.257  1.00  0.00    -0.181 C  
HETATM   26  C   UNL     1     -10.786   8.451  67.277  1.00  0.00    -0.230 C  
HETATM   27  C   UNL     1     -10.346   7.000  66.941  1.00  0.00    -0.338 C  
HETATM   28  C   UNL     1      -8.805   7.110  66.787  1.00  0.00    -0.137 C  
HETATM   29  C   UNL     1      -8.435   8.226  67.831  1.00  0.00    -0.132 C  
HETATM   30  C   UNL     1      -8.706   7.866  69.306  1.00  0.00    -0.138 C  
HETATM   31  C   UNL     1      -8.605   7.920  65.509  1.00  0.00    -0.116 C  
HETATM   32  O   UNL     1      -8.144   7.543  64.450  1.00  0.00    -0.135 OA 
HETATM   33  C   UNL     1      -6.963   8.701  67.765  1.00  0.00    -0.075 C  
BRANCH  28  34
HETATM   34  C   UNL     1      -7.999   5.832  66.909  1.00  0.00    -0.102 C  
HETATM   35  S   UNL     1      -8.908   4.375  67.399  1.00  0.00    -0.113 S  
HETATM   36  O   UNL     1      -9.435   4.550  68.735  1.00  0.00    -0.136 OA 
HETATM   37  O   UNL     1      -7.624   3.407  67.590  1.00  0.00    -0.068 OA 
HETATM   38  O   UNL     1      -9.684   3.815  66.324  1.00  0.00    -0.189 OA 
ENDBRANCH  28  34
ENDBRANCH  20  23
ENDBRANCH   8  17
TORSDOF 4
ENDMDL
MODEL       20
REMARK 921   NORMALIZED FREE ENERGY PREDICTED BY IDOCK:   -6.42 KCAL/MOL
REMARK 922        TOTAL FREE ENERGY PREDICTED BY IDOCK:   -8.41 KCAL/MOL
REMARK 923 INTER-LIGAND FREE ENERGY PREDICTED BY IDOCK:   -7.92 KCAL/MOL
REMARK 924 INTRA-LIGAND FREE ENERGY PREDICTED BY IDOCK:   -0.49 KCAL/MOL
REMARK 927      BINDING AFFINITY PREDICTED BY RF-SCORE:    0.00 PKD
ROOT
HETATM    1  C   UNL     1     -11.396  16.045  65.518  1.00  0.00     0.140 C  
HETATM    2  C   UNL     1     -11.119  14.601  66.000  1.00  0.00    -0.332 C  
HETATM    3  C   UNL     1     -12.255  13.732  65.420  1.00  0.00    -0.465 C  
HETATM    4  C   UNL     1      -9.695  14.099  65.642  1.00  0.00    -0.210 C  
HETATM    5  C   UNL     1      -8.787  15.045  66.479  1.00  0.00    -0.286 C  
HETATM    6  C   UNL     1      -9.621  15.327  67.767  1.00  0.00    -0.206 C  
HETATM    7  C   UNL     1     -10.885  14.461  67.551  1.00  0.00    -0.285 C  
HETATM    8  C   UNL     1      -9.260  11.545  65.876  1.00  0.00    -0.223 C  
HETATM    9  C   UNL     1     -10.313  13.052  67.640  1.00  0.00    -0.222 C  
HETATM   10  O   UNL     1     -10.216  12.388  68.658  1.00  0.00    -0.218 OA 
HETATM   11  C   UNL     1      -9.666  12.742  66.323  1.00  0.00    -0.262 C  
ENDROOT
BRANCH   7  12
HETATM   12  C   UNL     1     -12.118  14.704  68.402  1.00  0.00    -0.188 C  
HETATM   13  S   UNL     1     -11.907  15.539  69.969  1.00  0.00    -0.377 S  
HETATM   14  O   UNL     1     -13.227  15.758  70.526  1.00  0.00    -0.449 OA 
HETATM   15  O   UNL     1     -10.957  16.613  69.822  1.00  0.00    -0.330 OA 
HETATM   16  O   UNL     1     -11.216  14.367  70.835  1.00  0.00    -0.055 OA 
ENDBRANCH   7  12
BRANCH   8  17
HETATM   17  C   UNL     1      -9.321  10.328  66.694  1.00  0.00    -0.192 A  
HETATM   18  C   UNL     1      -8.236   9.926  67.482  1.00  0.00    -0.114 A  
HETATM   19  C   UNL     1      -8.264   8.689  68.140  1.00  0.00    -0.115 A  
HETATM   20  C   UNL     1      -9.371   7.844  68.016  1.00  0.00    -0.152 A  
HETATM   21  C   UNL     1     -10.449   9.501  66.608  1.00  0.00    -0.241 A  
HETATM   22  C   UNL     1     -10.474   8.267  67.267  1.00  0.00    -0.373 A  
BRANCH  20  23
HETATM   23  C   UNL     1      -9.360   6.516  68.627  1.00  0.00    -0.125 C  
HETATM   24  C   UNL     1      -9.562   6.310  69.929  1.00  0.00    -0.174 C  
HETATM   25  C   UNL     1      -9.823   7.248  71.082  1.00  0.00    -0.182 C  
HETATM   26  C   UNL     1     -11.308   7.044  71.452  1.00  0.00    -0.298 C  
HETATM   27  C   UNL     1     -11.329   5.640  72.115  1.00  0.00    -0.277 C  
HETATM   28  C   UNL     1      -9.842   5.195  72.078  1.00  0.00    -0.221 C  
HETATM   29  C   UNL     1      -9.072   6.555  72.255  1.00  0.00    -0.138 C  
HETATM   30  C   UNL     1      -9.287   7.263  73.608  1.00  0.00    -0.278 C  
HETATM   31  C   UNL     1      -9.549   4.960  70.598  1.00  0.00    -0.186 C  
HETATM   32  O   UNL     1      -9.320   3.906  70.041  1.00  0.00    -0.140 OA 
HETATM   33  C   UNL     1      -7.540   6.452  72.058  1.00  0.00    -0.095 C  
BRANCH  28  34
HETATM   34  C   UNL     1      -9.419   4.096  73.032  1.00  0.00    -0.117 C  
HETATM   35  S   UNL     1     -10.471   2.653  73.082  1.00  0.00    -0.165 S  
HETATM   36  O   UNL     1     -11.782   3.017  73.573  1.00  0.00    -0.135 OA 
HETATM   37  O   UNL     1      -9.747   1.936  74.341  1.00  0.00    -0.078 OA 
HETATM   38  O   UNL     1     -10.277   1.783  71.951  1.00  0.00    -0.158 OA 
ENDBRANCH  28  34
ENDBRANCH  20  23
ENDBRANCH   8  17
TORSDOF 4
ENDMDL
MODEL       21
REMARK 921   NORMALIZED FREE ENERGY PREDICTED BY IDOCK:   -6.35 KCAL/MOL
REMARK 922        TOTAL FREE ENERGY PREDICTED BY IDOCK:   -8.32 KCAL/MOL
REMARK 923 INTER-LIGAND FREE ENERGY PREDICTED BY IDOCK:   -8.10 KCAL/MOL
REMARK 924 INTRA-LIGAND FREE ENERGY PREDICTED BY IDOCK:   -0.22 KCAL/MOL
REMARK 927      BINDING AFFINITY PREDICTED BY RF-SCORE:    0.00 PKD
ROOT
HETATM    1  C   UNL     1      -9.680  18.481  67.647  1.00  0.00    -0.317 C  
HETATM    2  C   UNL     1      -9.991  17.012  68.019  1.00  0.00    -0.283 C  
HETATM    3  C   UNL     1     -10.575  17.049  69.447  1.00  0.00    -0.236 C  
HETATM    4  C   UNL     1     -10.899  16.297  66.984  1.00  0.00    -0.173 C  
HETATM    5  C   UNL     1     -10.000  16.268  65.715  1.00  0.00    -0.353 C  
HETATM    6  C   UNL     1      -8.554  16.117  66.280  1.00  0.00    -0.373 C  
HETATM    7  C   UNL     1      -8.793  16.012  67.806  1.00  0.00    -0.177 C  
HETATM    8  C   UNL     1     -11.964  14.040  67.721  1.00  0.00    -0.392 C  
HETATM    9  C   UNL     1      -9.502  14.669  67.916  1.00  0.00    -0.210 C  
HETATM   10  O   UNL     1      -8.958  13.590  68.080  1.00  0.00    -0.178 OA 
HETATM   11  C   UNL     1     -10.937  14.881  67.533  1.00  0.00    -0.302 C  
ENDROOT
BRANCH   7  12
HETATM   12  C   UNL     1      -7.631  16.202  68.764  1.00  0.00    -0.193 C  
HETATM   13  S   UNL     1      -6.061  16.729  68.088  1.00  0.00    -0.133 S  
HETATM   14  O   UNL     1      -5.163  16.953  69.202  1.00  0.00    -0.128 OA 
HETATM   15  O   UNL     1      -6.282  17.731  67.076  1.00  0.00    -0.145 OA 
HETATM   16  O   UNL     1      -5.585  15.371  67.361  1.00  0.00    -0.330 OA 
ENDBRANCH   7  12
BRANCH   8  17
HETATM   17  C   UNL     1     -11.796  12.694  68.281  1.00  0.00    -0.354 A  
HETATM   18  C   UNL     1     -11.823  12.473  69.664  1.00  0.00    -0.382 A  
HETATM   19  C   UNL     1     -11.518  11.206  70.180  1.00  0.00    -0.361 A  
HETATM   20  C   UNL     1     -11.181  10.153  69.324  1.00  0.00    -0.247 A  
HETATM   21  C   UNL     1     -11.504  11.626  67.423  1.00  0.00    -0.357 A  
HETATM   22  C   UNL     1     -11.201  10.363  67.941  1.00  0.00    -0.332 A  
BRANCH  20  23
HETATM   23  C   UNL     1     -10.774   8.859  69.868  1.00  0.00    -0.236 C  
HETATM   24  C   UNL     1     -10.004   7.997  69.203  1.00  0.00    -0.188 C  
HETATM   25  C   UNL     1      -9.377   8.038  67.831  1.00  0.00    -0.148 C  
HETATM   26  C   UNL     1      -7.866   8.244  68.073  1.00  0.00    -0.118 C  
HETATM   27  C   UNL     1      -7.399   6.878  68.645  1.00  0.00    -0.094 C  
HETATM   28  C   UNL     1      -8.693   6.019  68.646  1.00  0.00    -0.110 C  
HETATM   29  C   UNL     1      -9.459   6.552  67.380  1.00  0.00    -0.135 C  
HETATM   30  C   UNL     1      -8.760   6.294  66.030  1.00  0.00    -0.155 C  
HETATM   31  C   UNL     1      -9.571   6.651  69.724  1.00  0.00    -0.149 C  
HETATM   32  O   UNL     1      -9.898   6.177  70.793  1.00  0.00    -0.181 OA 
HETATM   33  C   UNL     1     -10.902   6.010  67.232  1.00  0.00    -0.403 C  
BRANCH  28  34
HETATM   34  C   UNL     1      -8.531   4.513  68.706  1.00  0.00    -0.084 C  
HETATM   35  S   UNL     1      -7.156   3.910  69.673  1.00  0.00    -0.042 S  
HETATM   36  O   UNL     1      -5.909   4.344  69.081  1.00  0.00    -0.016 OA 
HETATM   37  O   UNL     1      -7.293   2.355  69.246  1.00  0.00    -0.043 OA 
HETATM   38  O   UNL     1      -7.405   3.967  71.090  1.00  0.00    -0.039 OA 
ENDBRANCH  28  34
ENDBRANCH  20  23
ENDBRANCH   8  17
TORSDOF 4
ENDMDL
MODEL       22
REMARK 921   NORMALIZED FREE ENERGY PREDICTED BY IDOCK:   -6.33 KCAL/MOL
REMARK 922        TOTAL FREE ENERGY PREDICTED BY IDOCK:   -8.30 KCAL/MOL
REMARK 923 INTER-LIGAND FREE ENERGY PREDICTED BY IDOCK:   -7.64 KCAL/MOL
REMARK 924 INTRA-LIGAND FREE ENERGY PREDICTED BY IDOCK:   -0.66 KCAL/MOL
REMARK 927      BINDING AFFINITY PREDICTED BY RF-SCORE:    0.00 PKD
ROOT
HETATM    1  C   UNL     1      -9.474   3.271  69.424  1.00  0.00    -0.203 C  
HETATM    2  C   UNL     1      -9.426   4.800  69.194  1.00  0.00    -0.215 C  
HETATM    3  C   UNL     1     -10.753   5.356  69.754  1.00  0.00    -0.280 C  
HETATM    4  C   UNL     1      -8.160   5.470  69.789  1.00  0.00    -0.101 C  
HETATM    5  C   UNL     1      -7.019   4.842  68.937  1.00  0.00    -0.052 C  
HETATM    6  C   UNL     1      -7.664   4.640  67.532  1.00  0.00    -0.089 C  
HETATM    7  C   UNL     1      -9.083   5.232  67.719  1.00  0.00    -0.115 C  
HETATM    8  C   UNL     1      -8.188   8.064  69.984  1.00  0.00    -0.118 C  
HETATM    9  C   UNL     1      -8.776   6.713  67.906  1.00  0.00    -0.116 C  
HETATM   10  O   UNL     1      -8.711   7.542  67.015  1.00  0.00    -0.122 OA 
HETATM   11  C   UNL     1      -8.322   6.906  69.322  1.00  0.00    -0.129 C  
ENDROOT
BRANCH   7  12
HETATM   12  C   UNL     1     -10.165   4.928  66.700  1.00  0.00    -0.255 C  
HETATM   13  S   UNL     1      -9.719   3.968  65.259  1.00  0.00    -0.198 S  
HETATM   14  O   UNL     1     -10.934   3.712  64.514  1.00  0.00    -0.147 OA 
HETATM   15  O   UNL     1      -8.824   2.904  65.643  1.00  0.00    -0.125 OA 
HETATM   16  O   UNL     1      -8.875   5.062  64.428  1.00  0.00    -0.147 OA 
ENDBRANCH   7  12
BRANCH   8  17
HETATM   17  C   UNL     1      -8.399   9.371  69.351  1.00  0.00    -0.125 A  
HETATM   18  C   UNL     1      -9.678   9.933  69.251  1.00  0.00    -0.218 A  
HETATM   19  C   UNL     1      -9.875  11.110  68.517  1.00  0.00    -0.199 A  
HETATM   20  C   UNL     1      -8.800  11.733  67.874  1.00  0.00    -0.165 A  
HETATM   21  C   UNL     1      -7.317  10.022  68.745  1.00  0.00    -0.078 A  
HETATM   22  C   UNL     1      -7.516  11.197  68.013  1.00  0.00    -0.094 A  
BRANCH  20  23
HETATM   23  C   UNL     1      -9.022  12.908  67.033  1.00  0.00    -0.225 C  
HETATM   24  C   UNL     1      -9.258  14.125  67.526  1.00  0.00    -0.192 C  
HETATM   25  C   UNL     1      -9.379  14.649  68.936  1.00  0.00    -0.160 C  
HETATM   26  C   UNL     1      -8.097  15.474  69.181  1.00  0.00    -0.244 C  
HETATM   27  C   UNL     1      -8.307  16.739  68.305  1.00  0.00    -0.213 C  
HETATM   28  C   UNL     1      -9.705  16.517  67.666  1.00  0.00    -0.239 C  
HETATM   29  C   UNL     1     -10.477  15.740  68.796  1.00  0.00    -0.228 C  
HETATM   30  C   UNL     1     -10.709  16.531  70.099  1.00  0.00    -0.168 C  
HETATM   31  C   UNL     1      -9.501  15.357  66.694  1.00  0.00    -0.259 C  
HETATM   32  O   UNL     1      -9.546  15.384  65.481  1.00  0.00    -0.313 OA 
HETATM   33  C   UNL     1     -11.862  15.198  68.365  1.00  0.00    -0.293 C  
BRANCH  28  34
HETATM   34  C   UNL     1     -10.426  17.734  67.123  1.00  0.00    -0.335 C  
HETATM   35  S   UNL     1      -9.459  19.232  67.009  1.00  0.00    -0.337 S  
HETATM   36  O   UNL     1      -9.058  19.660  68.332  1.00  0.00    -0.344 OA 
HETATM   37  O   UNL     1     -10.683  20.216  66.614  1.00  0.00    -0.353 OA 
HETATM   38  O   UNL     1      -8.559  19.230  65.885  1.00  0.00    -0.445 OA 
ENDBRANCH  28  34
ENDBRANCH  20  23
ENDBRANCH   8  17
TORSDOF 4
ENDMDL
MODEL       23
REMARK 921   NORMALIZED FREE ENERGY PREDICTED BY IDOCK:   -6.32 KCAL/MOL
REMARK 922        TOTAL FREE ENERGY PREDICTED BY IDOCK:   -8.29 KCAL/MOL
REMARK 923 INTER-LIGAND FREE ENERGY PREDICTED BY IDOCK:   -7.71 KCAL/MOL
REMARK 924 INTRA-LIGAND FREE ENERGY PREDICTED BY IDOCK:   -0.58 KCAL/MOL
REMARK 927      BINDING AFFINITY PREDICTED BY RF-SCORE:    0.00 PKD
ROOT
HETATM    1  C   UNL     1     -11.156  15.821  66.645  1.00  0.00    -0.099 C  
HETATM    2  C   UNL     1     -10.855  14.309  66.780  1.00  0.00    -0.298 C  
HETATM    3  C   UNL     1     -11.957  13.582  65.981  1.00  0.00    -0.449 C  
HETATM    4  C   UNL     1      -9.412  13.931  66.353  1.00  0.00    -0.268 C  
HETATM    5  C   UNL     1      -8.546  14.668  67.415  1.00  0.00    -0.212 C  
HETATM    6  C   UNL     1      -9.415  14.623  68.709  1.00  0.00    -0.199 C  
HETATM    7  C   UNL     1     -10.654  13.810  68.260  1.00  0.00    -0.262 C  
HETATM    8  C   UNL     1      -8.922  11.403  65.989  1.00  0.00    -0.203 C  
HETATM    9  C   UNL     1     -10.050  12.430  68.030  1.00  0.00    -0.214 C  
HETATM   10  O   UNL     1      -9.960  11.546  68.864  1.00  0.00    -0.187 OA 
HETATM   11  C   UNL     1      -9.366  12.452  66.695  1.00  0.00    -0.227 C  
ENDROOT
BRANCH   7  12
HETATM   12  C   UNL     1     -11.911  13.823  69.110  1.00  0.00    -0.354 C  
HETATM   13  S   UNL     1     -12.124  15.162  70.276  1.00  0.00    -0.368 S  
HETATM   14  O   UNL     1     -13.438  15.017  70.868  1.00  0.00    -0.394 OA 
HETATM   15  O   UNL     1     -11.691  16.400  69.677  1.00  0.00    -0.156 OA 
HETATM   16  O   UNL     1     -11.048  14.743  71.403  1.00  0.00    -0.123 OA 
ENDBRANCH   7  12
BRANCH   8  17
HETATM   17  C   UNL     1      -8.973  10.026  66.496  1.00  0.00    -0.162 A  
HETATM   18  C   UNL     1     -10.146   9.265  66.416  1.00  0.00    -0.337 A  
HETATM   19  C   UNL     1     -10.213   8.008  67.034  1.00  0.00    -0.374 A  
HETATM   20  C   UNL     1      -9.115   7.504  67.737  1.00  0.00    -0.130 A  
HETATM   21  C   UNL     1      -7.859   9.498  67.160  1.00  0.00    -0.095 A  
HETATM   22  C   UNL     1      -7.928   8.244  67.776  1.00  0.00    -0.122 A  
BRANCH  20  23
HETATM   23  C   UNL     1      -9.217   6.236  68.458  1.00  0.00    -0.123 C  
HETATM   24  C   UNL     1      -9.447   6.159  69.770  1.00  0.00    -0.168 C  
HETATM   25  C   UNL     1      -9.641   7.209  70.835  1.00  0.00    -0.167 C  
HETATM   26  C   UNL     1     -11.141   7.157  71.197  1.00  0.00    -0.281 C  
HETATM   27  C   UNL     1     -11.281   5.821  71.976  1.00  0.00    -0.307 C  
HETATM   28  C   UNL     1      -9.835   5.257  72.000  1.00  0.00    -0.222 C  
HETATM   29  C   UNL     1      -8.960   6.562  72.074  1.00  0.00    -0.140 C  
HETATM   30  C   UNL     1      -9.128   7.397  73.359  1.00  0.00    -0.234 C  
HETATM   31  C   UNL     1      -9.549   4.874  70.550  1.00  0.00    -0.184 C  
HETATM   32  O   UNL     1      -9.400   3.761  70.088  1.00  0.00    -0.139 OA 
HETATM   33  C   UNL     1      -7.439   6.321  71.910  1.00  0.00    -0.094 C  
BRANCH  28  34
HETATM   34  C   UNL     1      -9.511   4.213  73.050  1.00  0.00    -0.117 C  
HETATM   35  S   UNL     1     -10.699   2.892  73.236  1.00  0.00    -0.168 S  
HETATM   36  O   UNL     1     -11.962   3.428  73.696  1.00  0.00     0.085 OA 
HETATM   37  O   UNL     1     -10.034   2.225  74.553  1.00  0.00    -0.099 OA 
HETATM   38  O   UNL     1     -10.606   1.908  72.190  1.00  0.00    -0.121 OA 
ENDBRANCH  28  34
ENDBRANCH  20  23
ENDBRANCH   8  17
TORSDOF 4
ENDMDL
MODEL       24
REMARK 921   NORMALIZED FREE ENERGY PREDICTED BY IDOCK:   -6.29 KCAL/MOL
REMARK 922        TOTAL FREE ENERGY PREDICTED BY IDOCK:   -8.25 KCAL/MOL
REMARK 923 INTER-LIGAND FREE ENERGY PREDICTED BY IDOCK:   -8.00 KCAL/MOL
REMARK 924 INTRA-LIGAND FREE ENERGY PREDICTED BY IDOCK:   -0.26 KCAL/MOL
REMARK 927      BINDING AFFINITY PREDICTED BY RF-SCORE:    0.00 PKD
ROOT
HETATM    1  C   UNL     1      -8.120   2.615  68.234  1.00  0.00    -0.068 C  
HETATM    2  C   UNL     1      -8.556   4.096  68.335  1.00  0.00    -0.111 C  
HETATM    3  C   UNL     1      -9.845   4.104  69.183  1.00  0.00    -0.121 C  
HETATM    4  C   UNL     1      -7.439   5.028  68.876  1.00  0.00    -0.069 C  
HETATM    5  C   UNL     1      -6.362   4.942  67.757  1.00  0.00    -0.040 C  
HETATM    6  C   UNL     1      -7.190   4.775  66.446  1.00  0.00    -0.077 C  
HETATM    7  C   UNL     1      -8.651   4.848  66.954  1.00  0.00    -0.104 C  
HETATM    8  C   UNL     1      -8.164   7.411  69.627  1.00  0.00    -0.130 C  
HETATM    9  C   UNL     1      -8.747   6.298  67.410  1.00  0.00    -0.105 C  
HETATM   10  O   UNL     1      -9.100   7.238  66.719  1.00  0.00    -0.135 OA 
HETATM   11  C   UNL     1      -8.093   6.394  68.757  1.00  0.00    -0.114 C  
ENDROOT
BRANCH   7  12
HETATM   12  C   UNL     1      -9.784   4.384  66.057  1.00  0.00    -0.213 C  
HETATM   13  S   UNL     1      -9.362   3.530  64.543  1.00  0.00    -0.157 S  
HETATM   14  O   UNL     1     -10.600   3.088  63.935  1.00  0.00    -0.197 OA 
HETATM   15  O   UNL     1      -8.269   2.622  64.788  1.00  0.00    -0.085 OA 
HETATM   16  O   UNL     1      -8.810   4.758  63.657  1.00  0.00    -0.139 OA 
ENDBRANCH   7  12
BRANCH   8  17
HETATM   17  C   UNL     1      -8.860   8.667  69.326  1.00  0.00    -0.137 A  
HETATM   18  C   UNL     1     -10.235   8.809  69.550  1.00  0.00    -0.208 A  
HETATM   19  C   UNL     1     -10.903   9.964  69.122  1.00  0.00    -0.248 A  
HETATM   20  C   UNL     1     -10.208  10.984  68.465  1.00  0.00    -0.203 A  
HETATM   21  C   UNL     1      -8.156   9.710  68.710  1.00  0.00    -0.097 A  
HETATM   22  C   UNL     1      -8.826  10.862  68.284  1.00  0.00    -0.140 A  
BRANCH  20  23
HETATM   23  C   UNL     1     -10.922  12.145  67.937  1.00  0.00    -0.272 C  
HETATM   24  C   UNL     1     -10.392  13.369  67.893  1.00  0.00    -0.238 C  
HETATM   25  C   UNL     1      -9.056  13.919  68.327  1.00  0.00    -0.191 C  
HETATM   26  C   UNL     1      -8.287  14.212  67.020  1.00  0.00    -0.142 C  
HETATM   27  C   UNL     1      -9.018  15.452  66.438  1.00  0.00    -0.351 C  
HETATM   28  C   UNL     1     -10.119  15.757  67.490  1.00  0.00    -0.245 C  
HETATM   29  C   UNL     1      -9.428  15.339  68.840  1.00  0.00    -0.218 C  
HETATM   30  C   UNL     1      -8.196  16.177  69.237  1.00  0.00    -0.183 C  
HETATM   31  C   UNL     1     -11.098  14.592  67.367  1.00  0.00    -0.314 C  
HETATM   32  O   UNL     1     -12.240  14.617  66.955  1.00  0.00    -0.311 OA 
HETATM   33  C   UNL     1     -10.370  15.345  70.068  1.00  0.00    -0.288 C  
BRANCH  28  34
HETATM   34  C   UNL     1     -10.721  17.148  67.486  1.00  0.00    -0.276 C  
HETATM   35  S   UNL     1     -10.298  18.182  66.093  1.00  0.00    -0.321 S  
HETATM   36  O   UNL     1      -8.876  18.448  66.091  1.00  0.00    -0.463 OA 
HETATM   37  O   UNL     1     -10.968  19.543  66.658  1.00  0.00    -0.418 OA 
HETATM   38  O   UNL     1     -11.026  17.834  64.900  1.00  0.00    -0.866 OA 
ENDBRANCH  28  34
ENDBRANCH  20  23
ENDBRANCH   8  17
TORSDOF 4
ENDMDL
MODEL       25
REMARK 921   NORMALIZED FREE ENERGY PREDICTED BY IDOCK:   -6.28 KCAL/MOL
REMARK 922        TOTAL FREE ENERGY PREDICTED BY IDOCK:   -8.24 KCAL/MOL
REMARK 923 INTER-LIGAND FREE ENERGY PREDICTED BY IDOCK:   -7.64 KCAL/MOL
REMARK 924 INTRA-LIGAND FREE ENERGY PREDICTED BY IDOCK:   -0.60 KCAL/MOL
REMARK 927      BINDING AFFINITY PREDICTED BY RF-SCORE:    0.00 PKD
ROOT
HETATM    1  C   UNL     1      -9.823   2.169  72.106  1.00  0.00    -0.216 C  
HETATM    2  C   UNL     1      -9.825   3.592  71.499  1.00  0.00    -0.227 C  
HETATM    3  C   UNL     1      -9.582   3.410  69.986  1.00  0.00    -0.202 C  
HETATM    4  C   UNL     1     -11.105   4.401  71.839  1.00  0.00     0.508 C  
HETATM    5  C   UNL     1     -10.998   4.562  73.383  1.00  0.00    -0.382 C  
HETATM    6  C   UNL     1      -9.464   4.665  73.647  1.00  0.00    -0.135 C  
HETATM    7  C   UNL     1      -8.868   4.615  72.218  1.00  0.00    -0.133 C  
HETATM    8  C   UNL     1     -11.524   6.567  70.460  1.00  0.00    -0.448 C  
HETATM    9  C   UNL     1      -9.353   5.937  71.636  1.00  0.00    -0.149 C  
HETATM   10  O   UNL     1      -8.753   6.997  71.687  1.00  0.00    -0.117 OA 
HETATM   11  C   UNL     1     -10.785   5.756  71.230  1.00  0.00    -0.323 C  
ENDROOT
BRANCH   7  12
HETATM   12  C   UNL     1      -7.388   4.339  72.030  1.00  0.00    -0.065 C  
HETATM   13  S   UNL     1      -6.471   3.684  73.419  1.00  0.00    -0.030 S  
HETATM   14  O   UNL     1      -5.129   3.395  72.956  1.00  0.00     0.000 OA 
HETATM   15  O   UNL     1      -7.268   2.698  74.104  1.00  0.00    -0.038 OA 
HETATM   16  O   UNL     1      -6.377   4.995  74.352  1.00  0.00    -0.059 OA 
ENDBRANCH   7  12
BRANCH   8  17
HETATM   17  C   UNL     1     -11.026   7.852  69.954  1.00  0.00    -0.179 A  
HETATM   18  C   UNL     1     -10.306   7.932  68.756  1.00  0.00    -0.220 A  
HETATM   19  C   UNL     1      -9.718   9.144  68.368  1.00  0.00    -0.166 A  
HETATM   20  C   UNL     1      -9.841  10.282  69.171  1.00  0.00    -0.228 A  
HETATM   21  C   UNL     1     -11.188   9.004  70.734  1.00  0.00    -0.329 A  
HETATM   22  C   UNL     1     -10.601  10.213  70.344  1.00  0.00    -0.287 A  
BRANCH  20  23
HETATM   23  C   UNL     1      -9.151  11.520  68.811  1.00  0.00    -0.063 C  
HETATM   24  C   UNL     1      -9.778  12.585  68.310  1.00  0.00    -0.220 C  
HETATM   25  C   UNL     1     -11.223  12.852  67.968  1.00  0.00    -0.305 C  
HETATM   26  C   UNL     1     -11.728  13.835  69.047  1.00  0.00    -0.372 C  
HETATM   27  C   UNL     1     -11.018  15.168  68.685  1.00  0.00    -0.256 C  
HETATM   28  C   UNL     1     -10.196  14.814  67.416  1.00  0.00    -0.236 C  
HETATM   29  C   UNL     1     -11.109  13.750  66.704  1.00  0.00    -0.316 C  
HETATM   30  C   UNL     1     -12.474  14.274  66.213  1.00  0.00    -0.329 C  
HETATM   31  C   UNL     1      -9.103  13.874  67.918  1.00  0.00    -0.194 C  
HETATM   32  O   UNL     1      -7.908  14.084  67.978  1.00  0.00    -0.125 OA 
HETATM   33  C   UNL     1     -10.449  13.055  65.488  1.00  0.00    -0.297 C  
BRANCH  28  34
HETATM   34  C   UNL     1      -9.747  15.961  66.533  1.00  0.00    -0.266 C  
HETATM   35  S   UNL     1      -9.762  17.581  67.285  1.00  0.00    -0.285 S  
HETATM   36  O   UNL     1     -11.117  17.952  67.628  1.00  0.00    -0.211 OA 
HETATM   37  O   UNL     1      -9.438  18.417  65.937  1.00  0.00    -0.496 OA 
HETATM   38  O   UNL     1      -8.648  17.793  68.173  1.00  0.00    -0.247 OA 
ENDBRANCH  28  34
ENDBRANCH  20  23
ENDBRANCH   8  17
TORSDOF 4
ENDMDL
MODEL       26
REMARK 921   NORMALIZED FREE ENERGY PREDICTED BY IDOCK:   -6.23 KCAL/MOL
REMARK 922        TOTAL FREE ENERGY PREDICTED BY IDOCK:   -8.18 KCAL/MOL
REMARK 923 INTER-LIGAND FREE ENERGY PREDICTED BY IDOCK:   -7.48 KCAL/MOL
REMARK 924 INTRA-LIGAND FREE ENERGY PREDICTED BY IDOCK:   -0.70 KCAL/MOL
REMARK 927      BINDING AFFINITY PREDICTED BY RF-SCORE:    0.00 PKD
ROOT
HETATM    1  C   UNL     1      -6.081   4.691  71.367  1.00  0.00    -0.018 C  
HETATM    2  C   UNL     1      -6.670   5.647  70.303  1.00  0.00    -0.048 C  
HETATM    3  C   UNL     1      -5.527   5.927  69.303  1.00  0.00    -0.004 C  
HETATM    4  C   UNL     1      -7.966   5.106  69.643  1.00  0.00    -0.079 C  
HETATM    5  C   UNL     1      -8.962   5.080  70.838  1.00  0.00    -0.165 C  
HETATM    6  C   UNL     1      -8.536   6.299  71.712  1.00  0.00    -0.129 C  
HETATM    7  C   UNL     1      -7.383   6.923  70.888  1.00  0.00    -0.077 C  
HETATM    8  C   UNL     1      -8.764   6.299  67.474  1.00  0.00    -0.105 C  
HETATM    9  C   UNL     1      -8.125   7.439  69.662  1.00  0.00    -0.128 C  
HETATM   10  O   UNL     1      -8.611   8.551  69.541  1.00  0.00    -0.128 OA 
HETATM   11  C   UNL     1      -8.370   6.270  68.755  1.00  0.00    -0.120 C  
ENDROOT
BRANCH   7  12
HETATM   12  C   UNL     1      -6.450   7.927  71.539  1.00  0.00    -0.039 C  
HETATM   13  S   UNL     1      -6.480   8.069  73.322  1.00  0.00    -0.096 S  
HETATM   14  O   UNL     1      -5.429   8.991  73.701  1.00  0.00    -0.105 OA 
HETATM   15  O   UNL     1      -6.590   6.758  73.911  1.00  0.00    -0.071 OA 
HETATM   16  O   UNL     1      -7.882   8.837  73.532  1.00  0.00    -0.408 OA 
ENDBRANCH   7  12
BRANCH   8  17
HETATM   17  C   UNL     1      -9.108   7.545  66.777  1.00  0.00    -0.176 A  
HETATM   18  C   UNL     1      -8.178   8.203  65.963  1.00  0.00    -0.121 A  
HETATM   19  C   UNL     1      -8.479   9.462  65.426  1.00  0.00    -0.159 A  
HETATM   20  C   UNL     1      -9.707  10.074  65.697  1.00  0.00    -0.336 A  
HETATM   21  C   UNL     1     -10.355   8.139  67.010  1.00  0.00    -0.403 A  
HETATM   22  C   UNL     1     -10.653   9.395  66.472  1.00  0.00    -0.125 A  
BRANCH  20  23
HETATM   23  C   UNL     1      -9.983  11.426  65.213  1.00  0.00    -0.303 C  
HETATM   24  C   UNL     1      -9.920  12.507  65.991  1.00  0.00    -0.269 C  
HETATM   25  C   UNL     1      -9.602  12.695  67.454  1.00  0.00    -0.194 C  
HETATM   26  C   UNL     1      -8.204  13.349  67.490  1.00  0.00    -0.186 C  
HETATM   27  C   UNL     1      -8.465  14.795  66.988  1.00  0.00    -0.250 C  
HETATM   28  C   UNL     1      -9.998  14.826  66.738  1.00  0.00    -0.256 C  
HETATM   29  C   UNL     1     -10.545  13.863  67.856  1.00  0.00    -0.248 C  
HETATM   30  C   UNL     1     -10.325  14.343  69.305  1.00  0.00    -0.116 C  
HETATM   31  C   UNL     1     -10.207  13.913  65.532  1.00  0.00    -0.331 C  
HETATM   32  O   UNL     1     -10.562  14.226  64.414  1.00  0.00    -0.311 OA 
HETATM   33  C   UNL     1     -12.053  13.535  67.733  1.00  0.00    -0.316 C  
BRANCH  28  34
HETATM   34  C   UNL     1     -10.669  16.183  66.683  1.00  0.00    -0.226 C  
HETATM   35  S   UNL     1      -9.612  17.593  66.977  1.00  0.00    -0.287 S  
HETATM   36  O   UNL     1      -9.094  17.546  68.327  1.00  0.00    -0.258 OA 
HETATM   37  O   UNL     1     -10.789  18.703  67.028  1.00  0.00    -0.382 OA 
HETATM   38  O   UNL     1      -8.792  17.921  65.840  1.00  0.00    -0.506 OA 
ENDBRANCH  28  34
ENDBRANCH  20  23
ENDBRANCH   8  17
TORSDOF 4
ENDMDL
MODEL       27
REMARK 921   NORMALIZED FREE ENERGY PREDICTED BY IDOCK:   -6.16 KCAL/MOL
REMARK 922        TOTAL FREE ENERGY PREDICTED BY IDOCK:   -8.08 KCAL/MOL
REMARK 923 INTER-LIGAND FREE ENERGY PREDICTED BY IDOCK:   -7.53 KCAL/MOL
REMARK 924 INTRA-LIGAND FREE ENERGY PREDICTED BY IDOCK:   -0.55 KCAL/MOL
REMARK 927      BINDING AFFINITY PREDICTED BY RF-SCORE:    0.00 PKD
ROOT
HETATM    1  C   UNL     1     -10.415  17.435  66.773  1.00  0.00    -0.257 C  
HETATM    2  C   UNL     1      -9.605  16.124  66.908  1.00  0.00    -0.243 C  
HETATM    3  C   UNL     1      -8.304  16.344  66.106  1.00  0.00    -0.291 C  
HETATM    4  C   UNL     1      -9.373  15.696  68.381  1.00  0.00    -0.195 C  
HETATM    5  C   UNL     1     -10.818  15.394  68.871  1.00  0.00    -0.251 C  
HETATM    6  C   UNL     1     -11.537  14.832  67.607  1.00  0.00    -0.374 C  
HETATM    7  C   UNL     1     -10.406  14.817  66.550  1.00  0.00    -0.287 C  
HETATM    8  C   UNL     1      -7.583  13.855  68.798  1.00  0.00    -0.108 C  
HETATM    9  C   UNL     1      -9.482  13.740  67.103  1.00  0.00    -0.244 C  
HETATM   10  O   UNL     1      -9.539  12.551  66.839  1.00  0.00    -0.216 OA 
HETATM   11  C   UNL     1      -8.676  14.357  68.207  1.00  0.00    -0.180 C  
ENDROOT
BRANCH   7  12
HETATM   12  C   UNL     1     -10.752  14.668  65.080  1.00  0.00    -0.430 C  
HETATM   13  S   UNL     1     -12.257  13.802  64.653  1.00  0.00    -0.394 S  
HETATM   14  O   UNL     1     -12.423  13.901  63.217  1.00  0.00    -0.817 OA 
HETATM   15  O   UNL     1     -13.307  14.177  65.567  1.00  0.00    -0.656 OA 
HETATM   16  O   UNL     1     -11.824  12.283  64.977  1.00  0.00    -0.371 OA 
ENDBRANCH   7  12
BRANCH   8  17
HETATM   17  C   UNL     1      -7.050  12.524  68.483  1.00  0.00    -0.107 A  
HETATM   18  C   UNL     1      -6.297  12.297  67.325  1.00  0.00    -0.150 A  
HETATM   19  C   UNL     1      -5.923  10.993  66.972  1.00  0.00    -0.077 A  
HETATM   20  C   UNL     1      -6.299   9.907  67.769  1.00  0.00    -0.055 A  
HETATM   21  C   UNL     1      -7.386  11.440  69.304  1.00  0.00    -0.042 A  
HETATM   22  C   UNL     1      -7.011  10.139  68.951  1.00  0.00    -0.063 A  
BRANCH  20  23
HETATM   23  C   UNL     1      -5.988   8.541  67.352  1.00  0.00    -0.047 C  
HETATM   24  C   UNL     1      -6.905   7.694  66.884  1.00  0.00    -0.068 C  
HETATM   25  C   UNL     1      -8.393   7.820  66.662  1.00  0.00    -0.126 C  
HETATM   26  C   UNL     1      -8.576   7.894  65.131  1.00  0.00    -0.052 C  
HETATM   27  C   UNL     1      -8.261   6.449  64.657  1.00  0.00    -0.069 C  
HETATM   28  C   UNL     1      -7.952   5.689  65.975  1.00  0.00    -0.106 C  
HETATM   29  C   UNL     1      -8.906   6.394  67.008  1.00  0.00    -0.115 C  
HETATM   30  C   UNL     1     -10.414   6.217  66.741  1.00  0.00    -0.316 C  
HETATM   31  C   UNL     1      -6.627   6.277  66.454  1.00  0.00    -0.048 C  
HETATM   32  O   UNL     1      -5.546   5.727  66.515  1.00  0.00    -0.012 OA 
HETATM   33  C   UNL     1      -8.675   5.974  68.480  1.00  0.00    -0.110 C  
BRANCH  28  34
HETATM   34  C   UNL     1      -8.050   4.177  65.948  1.00  0.00    -0.101 C  
HETATM   35  S   UNL     1      -8.905   3.471  64.547  1.00  0.00    -0.118 S  
HETATM   36  O   UNL     1     -10.292   3.882  64.560  1.00  0.00    -0.227 OA 
HETATM   37  O   UNL     1      -8.925   1.946  65.088  1.00  0.00    -0.119 OA 
HETATM   38  O   UNL     1      -8.105   3.469  63.350  1.00  0.00    -0.085 OA 
ENDBRANCH  28  34
ENDBRANCH  20  23
ENDBRANCH   8  17
TORSDOF 4
ENDMDL
MODEL       28
REMARK 921   NORMALIZED FREE ENERGY PREDICTED BY IDOCK:   -6.06 KCAL/MOL
REMARK 922        TOTAL FREE ENERGY PREDICTED BY IDOCK:   -7.97 KCAL/MOL
REMARK 923 INTER-LIGAND FREE ENERGY PREDICTED BY IDOCK:   -7.92 KCAL/MOL
REMARK 924 INTRA-LIGAND FREE ENERGY PREDICTED BY IDOCK:   -0.05 KCAL/MOL
REMARK 927      BINDING AFFINITY PREDICTED BY RF-SCORE:    0.00 PKD
ROOT
HETATM    1  C   UNL     1      -9.219   2.078  65.641  1.00  0.00    -0.006 C  
HETATM    2  C   UNL     1      -9.312   3.586  65.974  1.00  0.00    -0.163 C  
HETATM    3  C   UNL     1     -10.511   4.127  65.166  1.00  0.00    -0.174 C  
HETATM    4  C   UNL     1      -9.396   3.873  67.497  1.00  0.00    -0.229 C  
HETATM    5  C   UNL     1      -8.013   3.375  68.006  1.00  0.00    -0.075 C  
HETATM    6  C   UNL     1      -7.041   3.685  66.827  1.00  0.00    -0.063 C  
HETATM    7  C   UNL     1      -7.965   4.382  65.798  1.00  0.00    -0.095 C  
HETATM    8  C   UNL     1     -10.112   6.273  68.200  1.00  0.00    -0.173 C  
HETATM    9  C   UNL     1      -8.293   5.686  66.514  1.00  0.00    -0.110 C  
HETATM   10  O   UNL     1      -7.661   6.724  66.424  1.00  0.00    -0.086 OA 
HETATM   11  C   UNL     1      -9.359   5.391  67.528  1.00  0.00    -0.119 C  
ENDROOT
BRANCH   7  12
HETATM   12  C   UNL     1      -7.505   4.541  64.361  1.00  0.00    -0.071 C  
HETATM   13  S   UNL     1      -5.767   4.322  64.004  1.00  0.00    -0.014 S  
HETATM   14  O   UNL     1      -5.605   4.401  62.567  1.00  0.00    -0.009 OA 
HETATM   15  O   UNL     1      -5.252   3.212  64.767  1.00  0.00    -0.008 OA 
HETATM   16  O   UNL     1      -5.166   5.683  64.624  1.00  0.00    -0.009 OA 
ENDBRANCH   7  12
BRANCH   8  17
HETATM   17  C   UNL     1      -9.925   7.725  68.088  1.00  0.00    -0.207 A  
HETATM   18  C   UNL     1     -10.436   8.442  66.999  1.00  0.00    -0.375 A  
HETATM   19  C   UNL     1     -10.123   9.799  66.841  1.00  0.00    -0.287 A  
HETATM   20  C   UNL     1      -9.297  10.449  67.763  1.00  0.00    -0.155 A  
HETATM   21  C   UNL     1      -9.136   8.389  69.036  1.00  0.00    -0.147 A  
HETATM   22  C   UNL     1      -8.826   9.744  68.875  1.00  0.00    -0.140 A  
BRANCH  20  23
HETATM   23  C   UNL     1      -8.897  11.838  67.547  1.00  0.00    -0.162 C  
HETATM   24  C   UNL     1      -9.747  12.792  67.165  1.00  0.00    -0.216 C  
HETATM   25  C   UNL     1     -11.222  12.776  66.847  1.00  0.00    -0.339 C  
HETATM   26  C   UNL     1     -11.906  13.502  68.026  1.00  0.00    -0.400 C  
HETATM   27  C   UNL     1     -11.506  14.989  67.819  1.00  0.00    -0.347 C  
HETATM   28  C   UNL     1     -10.652  14.962  66.523  1.00  0.00    -0.306 C  
HETATM   29  C   UNL     1     -11.328  13.811  65.691  1.00  0.00    -0.311 C  
HETATM   30  C   UNL     1     -12.782  14.079  65.255  1.00  0.00    -0.468 C  
HETATM   31  C   UNL     1      -9.373  14.231  66.923  1.00  0.00    -0.257 C  
HETATM   32  O   UNL     1      -8.250  14.686  67.011  1.00  0.00    -0.206 OA 
HETATM   33  C   UNL     1     -10.557  13.412  64.409  1.00  0.00    -0.423 C  
BRANCH  28  34
HETATM   34  C   UNL     1     -10.477  16.269  65.775  1.00  0.00    -0.364 C  
HETATM   35  S   UNL     1      -9.864  17.645  66.735  1.00  0.00    -0.319 S  
HETATM   36  O   UNL     1     -10.819  17.990  67.766  1.00  0.00    -0.383 OA 
HETATM   37  O   UNL     1     -10.067  18.775  65.594  1.00  0.00    -0.482 OA 
HETATM   38  O   UNL     1      -8.448  17.565  66.981  1.00  0.00    -0.220 OA 
ENDBRANCH  28  34
ENDBRANCH  20  23
ENDBRANCH   8  17
TORSDOF 4
ENDMDL
MODEL       29
REMARK 921   NORMALIZED FREE ENERGY PREDICTED BY IDOCK:   -5.93 KCAL/MOL
REMARK 922        TOTAL FREE ENERGY PREDICTED BY IDOCK:   -7.80 KCAL/MOL
REMARK 923 INTER-LIGAND FREE ENERGY PREDICTED BY IDOCK:   -7.44 KCAL/MOL
REMARK 924 INTRA-LIGAND FREE ENERGY PREDICTED BY IDOCK:   -0.36 KCAL/MOL
REMARK 927      BINDING AFFINITY PREDICTED BY RF-SCORE:    0.00 PKD
ROOT
HETATM    1  C   UNL     1      -8.765  19.640  69.076  1.00  0.00    -0.155 C  
HETATM    2  C   UNL     1      -8.777  18.211  68.482  1.00  0.00    -0.309 C  
HETATM    3  C   UNL     1      -7.881  17.358  69.405  1.00  0.00     0.266 C  
HETATM    4  C   UNL     1     -10.207  17.641  68.288  1.00  0.00    -0.374 C  
HETATM    5  C   UNL     1     -10.802  18.591  67.210  1.00  0.00    -0.330 C  
HETATM    6  C   UNL     1      -9.578  18.963  66.317  1.00  0.00    -0.344 C  
HETATM    7  C   UNL     1      -8.432  18.134  66.947  1.00  0.00    -0.265 C  
HETATM    8  C   UNL     1     -10.399  15.086  67.837  1.00  0.00    -0.241 C  
HETATM    9  C   UNL     1      -8.863  16.711  66.616  1.00  0.00    -0.248 C  
HETATM   10  O   UNL     1      -8.555  16.092  65.612  1.00  0.00    -0.185 OA 
HETATM   11  C   UNL     1      -9.921  16.316  67.602  1.00  0.00    -0.247 C  
ENDROOT
BRANCH   7  12
HETATM   12  C   UNL     1      -6.991  18.462  66.605  1.00  0.00    -0.205 C  
HETATM   13  S   UNL     1      -6.609  20.127  66.074  1.00  0.00    -0.248 S  
HETATM   14  O   UNL     1      -5.171  20.217  65.928  1.00  0.00    -0.165 OA 
HETATM   15  O   UNL     1      -7.354  21.071  66.869  1.00  0.00    -0.261 OA 
HETATM   16  O   UNL     1      -7.236  20.111  64.589  1.00  0.00    -0.189 OA 
ENDBRANCH   7  12
BRANCH   8  17
HETATM   17  C   UNL     1      -9.987  13.912  67.059  1.00  0.00    -0.258 A  
HETATM   18  C   UNL     1     -10.828  13.348  66.092  1.00  0.00    -0.287 A  
HETATM   19  C   UNL     1     -10.474  12.145  65.466  1.00  0.00    -0.300 A  
HETATM   20  C   UNL     1      -9.282  11.495  65.800  1.00  0.00    -0.210 A  
HETATM   21  C   UNL     1      -8.771  13.284  67.358  1.00  0.00    -0.206 A  
HETATM   22  C   UNL     1      -8.419  12.084  66.731  1.00  0.00    -0.155 A  
BRANCH  20  23
HETATM   23  C   UNL     1      -8.958  10.195  65.214  1.00  0.00    -0.218 C  
HETATM   24  C   UNL     1      -8.963   9.059  65.912  1.00  0.00    -0.233 C  
HETATM   25  C   UNL     1      -9.250   8.752  67.361  1.00  0.00    -0.158 C  
HETATM   26  C   UNL     1     -10.619   8.039  67.369  1.00  0.00    -0.337 C  
HETATM   27  C   UNL     1     -10.306   6.645  66.759  1.00  0.00    -0.280 C  
HETATM   28  C   UNL     1      -8.778   6.698  66.487  1.00  0.00    -0.137 C  
HETATM   29  C   UNL     1      -8.252   7.599  67.665  1.00  0.00    -0.121 C  
HETATM   30  C   UNL     1      -8.429   7.007  69.078  1.00  0.00    -0.129 C  
HETATM   31  C   UNL     1      -8.626   7.703  65.348  1.00  0.00    -0.053 C  
HETATM   32  O   UNL     1      -8.278   7.488  64.205  1.00  0.00    -0.103 OA 
HETATM   33  C   UNL     1      -6.762   7.999  67.545  1.00  0.00    -0.069 C  
BRANCH  28  34
HETATM   34  C   UNL     1      -8.053   5.377  66.324  1.00  0.00    -0.105 C  
HETATM   35  S   UNL     1      -9.079   3.915  66.313  1.00  0.00    -0.158 S  
HETATM   36  O   UNL     1      -9.734   3.764  67.595  1.00  0.00    -0.178 OA 
HETATM   37  O   UNL     1      -7.871   2.837  66.342  1.00  0.00    -0.076 OA 
HETATM   38  O   UNL     1      -9.764   3.725  65.062  1.00  0.00    -0.169 OA 
ENDBRANCH  28  34
ENDBRANCH  20  23
ENDBRANCH   8  17
TORSDOF 4
ENDMDL
MODEL       30
REMARK 921   NORMALIZED FREE ENERGY PREDICTED BY IDOCK:   -5.86 KCAL/MOL
REMARK 922        TOTAL FREE ENERGY PREDICTED BY IDOCK:   -7.71 KCAL/MOL
REMARK 923 INTER-LIGAND FREE ENERGY PREDICTED BY IDOCK:   -7.90 KCAL/MOL
REMARK 924 INTRA-LIGAND FREE ENERGY PREDICTED BY IDOCK:    0.19 KCAL/MOL
REMARK 927      BINDING AFFINITY PREDICTED BY RF-SCORE:    0.00 PKD
ROOT
HETATM    1  C   UNL     1      -9.529   3.385  69.272  1.00  0.00    -0.212 C  
HETATM    2  C   UNL     1      -9.271   4.883  68.986  1.00  0.00    -0.165 C  
HETATM    3  C   UNL     1     -10.581   5.617  69.347  1.00  0.00    -0.374 C  
HETATM    4  C   UNL     1      -8.017   5.439  69.710  1.00  0.00    -0.088 C  
HETATM    5  C   UNL     1      -6.863   4.639  69.039  1.00  0.00    -0.050 C  
HETATM    6  C   UNL     1      -7.350   4.431  67.573  1.00  0.00    -0.069 C  
HETATM    7  C   UNL     1      -8.700   5.189  67.551  1.00  0.00    -0.103 C  
HETATM    8  C   UNL     1      -7.759   8.026  69.791  1.00  0.00    -0.101 C  
HETATM    9  C   UNL     1      -8.245   6.634  67.713  1.00  0.00    -0.119 C  
HETATM   10  O   UNL     1      -7.973   7.399  66.803  1.00  0.00    -0.110 OA 
HETATM   11  C   UNL     1      -7.948   6.856  69.166  1.00  0.00    -0.119 C  
ENDROOT
BRANCH   7  12
HETATM   12  C   UNL     1      -9.678   4.952  66.415  1.00  0.00    -0.189 C  
HETATM   13  S   UNL     1      -9.393   3.553  65.338  1.00  0.00    -0.151 S  
HETATM   14  O   UNL     1     -10.515   3.472  64.425  1.00  0.00    -0.190 OA 
HETATM   15  O   UNL     1      -8.964   2.420  66.119  1.00  0.00    -0.130 OA 
HETATM   16  O   UNL     1      -8.130   4.089  64.490  1.00  0.00    -0.085 OA 
ENDBRANCH   7  12
BRANCH   8  17
HETATM   17  C   UNL     1      -7.734   9.311  69.080  1.00  0.00    -0.078 A  
HETATM   18  C   UNL     1      -6.525   9.928  68.737  1.00  0.00    -0.045 A  
HETATM   19  C   UNL     1      -6.525  11.219  68.190  1.00  0.00    -0.056 A  
HETATM   20  C   UNL     1      -7.726  11.903  67.984  1.00  0.00    -0.132 A  
HETATM   21  C   UNL     1      -8.940   9.979  68.831  1.00  0.00    -0.152 A  
HETATM   22  C   UNL     1      -8.936  11.267  68.284  1.00  0.00    -0.172 A  
BRANCH  20  23
HETATM   23  C   UNL     1      -7.719  13.283  67.500  1.00  0.00    -0.175 C  
HETATM   24  C   UNL     1      -8.832  13.973  67.247  1.00  0.00    -0.225 C  
HETATM   25  C   UNL     1     -10.296  13.620  67.340  1.00  0.00    -0.244 C  
HETATM   26  C   UNL     1     -10.831  14.399  68.561  1.00  0.00    -0.260 C  
HETATM   27  C   UNL     1     -10.844  15.873  68.074  1.00  0.00    -0.317 C  
HETATM   28  C   UNL     1     -10.336  15.781  66.609  1.00  0.00    -0.292 C  
HETATM   29  C   UNL     1     -10.905  14.393  66.137  1.00  0.00    -0.309 C  
HETATM   30  C   UNL     1     -12.443  14.296  66.077  1.00  0.00    -0.392 C  
HETATM   31  C   UNL     1      -8.866  15.391  66.738  1.00  0.00    -0.269 C  
HETATM   32  O   UNL     1      -7.890  16.060  66.467  1.00  0.00    -0.256 OA 
HETATM   33  C   UNL     1     -10.387  13.928  64.754  1.00  0.00    -0.419 C  
BRANCH  28  34
HETATM   34  C   UNL     1     -10.648  16.944  65.688  1.00  0.00    -0.221 C  
HETATM   35  S   UNL     1     -10.213  18.565  66.298  1.00  0.00    -0.406 S  
HETATM   36  O   UNL     1     -10.992  18.873  67.477  1.00  0.00    -0.422 OA 
HETATM   37  O   UNL     1     -10.919  19.409  65.110  1.00  0.00    -0.430 OA 
HETATM   38  O   UNL     1      -8.802  18.835  66.205  1.00  0.00    -0.373 OA 
ENDBRANCH  28  34
ENDBRANCH  20  23
ENDBRANCH   8  17
TORSDOF 4
ENDMDL
MODEL       31
REMARK 921   NORMALIZED FREE ENERGY PREDICTED BY IDOCK:   -5.85 KCAL/MOL
REMARK 922        TOTAL FREE ENERGY PREDICTED BY IDOCK:   -7.70 KCAL/MOL
REMARK 923 INTER-LIGAND FREE ENERGY PREDICTED BY IDOCK:   -7.10 KCAL/MOL
REMARK 924 INTRA-LIGAND FREE ENERGY PREDICTED BY IDOCK:   -0.60 KCAL/MOL
REMARK 927      BINDING AFFINITY PREDICTED BY RF-SCORE:    0.00 PKD
ROOT
HETATM    1  C   UNL     1      -8.997   2.968  67.382  1.00  0.00    -0.187 C  
HETATM    2  C   UNL     1      -9.080   4.496  67.155  1.00  0.00    -0.136 C  
HETATM    3  C   UNL     1     -10.534   4.785  66.726  1.00  0.00    -0.180 C  
HETATM    4  C   UNL     1      -8.608   5.324  68.380  1.00  0.00    -0.095 C  
HETATM    5  C   UNL     1      -7.099   4.954  68.470  1.00  0.00    -0.057 C  
HETATM    6  C   UNL     1      -6.671   4.745  66.985  1.00  0.00    -0.051 C  
HETATM    7  C   UNL     1      -7.967   5.080  66.206  1.00  0.00    -0.107 C  
HETATM    8  C   UNL     1      -9.198   7.857  68.380  1.00  0.00    -0.134 C  
HETATM    9  C   UNL     1      -8.106   6.575  66.468  1.00  0.00    -0.111 C  
HETATM   10  O   UNL     1      -7.640   7.463  65.776  1.00  0.00    -0.083 OA 
HETATM   11  C   UNL     1      -8.684   6.742  67.842  1.00  0.00    -0.120 C  
ENDROOT
BRANCH   7  12
HETATM   12  C   UNL     1      -8.096   4.672  64.751  1.00  0.00    -0.107 C  
HETATM   13  S   UNL     1      -6.847   3.592  64.066  1.00  0.00    -0.045 S  
HETATM   14  O   UNL     1      -7.256   3.255  62.718  1.00  0.00    -0.045 OA 
HETATM   15  O   UNL     1      -6.500   2.579  65.031  1.00  0.00    -0.026 OA 
HETATM   16  O   UNL     1      -5.609   4.617  63.942  1.00  0.00    -0.013 OA 
ENDBRANCH   7  12
BRANCH   8  17
HETATM   17  C   UNL     1      -9.185   9.152  67.688  1.00  0.00    -0.143 A  
HETATM   18  C   UNL     1      -8.127  10.054  67.853  1.00  0.00    -0.109 A  
HETATM   19  C   UNL     1      -8.205  11.340  67.299  1.00  0.00    -0.140 A  
HETATM   20  C   UNL     1      -9.337  11.735  66.580  1.00  0.00    -0.205 A  
HETATM   21  C   UNL     1     -10.298   9.534  66.928  1.00  0.00    -0.307 A  
HETATM   22  C   UNL     1     -10.373  10.817  66.376  1.00  0.00    -0.306 A  
BRANCH  20  23
HETATM   23  C   UNL     1      -9.457  13.104  66.082  1.00  0.00    -0.156 C  
HETATM   24  C   UNL     1      -9.531  14.168  66.883  1.00  0.00    -0.275 C  
HETATM   25  C   UNL     1      -9.535  14.317  68.385  1.00  0.00    -0.213 C  
HETATM   26  C   UNL     1      -8.158  14.918  68.743  1.00  0.00    -0.162 C  
HETATM   27  C   UNL     1      -8.257  16.382  68.233  1.00  0.00    -0.177 C  
HETATM   28  C   UNL     1      -9.695  16.474  67.656  1.00  0.00    -0.239 C  
HETATM   29  C   UNL     1     -10.505  15.512  68.602  1.00  0.00    -0.237 C  
HETATM   30  C   UNL     1     -10.592  15.956  70.076  1.00  0.00    -0.320 C  
HETATM   31  C   UNL     1      -9.665  15.592  66.410  1.00  0.00    -0.279 C  
HETATM   32  O   UNL     1      -9.755  15.938  65.250  1.00  0.00    -0.385 OA 
HETATM   33  C   UNL     1     -11.959  15.242  68.144  1.00  0.00    -0.099 C  
BRANCH  28  34
HETATM   34  C   UNL     1     -10.293  17.856  67.491  1.00  0.00    -0.377 C  
HETATM   35  S   UNL     1      -9.134  19.181  67.189  1.00  0.00    -0.295 S  
HETATM   36  O   UNL     1      -8.263  19.343  68.333  1.00  0.00    -0.325 OA 
HETATM   37  O   UNL     1     -10.199  20.394  67.311  1.00  0.00    -0.407 OA 
HETATM   38  O   UNL     1      -8.649  19.199  65.833  1.00  0.00    -0.453 OA 
ENDBRANCH  28  34
ENDBRANCH  20  23
ENDBRANCH   8  17
TORSDOF 4
ENDMDL
MODEL       32
REMARK 921   NORMALIZED FREE ENERGY PREDICTED BY IDOCK:   -5.83 KCAL/MOL
REMARK 922        TOTAL FREE ENERGY PREDICTED BY IDOCK:   -7.68 KCAL/MOL
REMARK 923 INTER-LIGAND FREE ENERGY PREDICTED BY IDOCK:   -7.09 KCAL/MOL
REMARK 924 INTRA-LIGAND FREE ENERGY PREDICTED BY IDOCK:   -0.59 KCAL/MOL
REMARK 927      BINDING AFFINITY PREDICTED BY RF-SCORE:    0.00 PKD
ROOT
HETATM    1  C   UNL     1     -10.838  18.626  68.149  1.00  0.00    -0.052 C  
HETATM    2  C   UNL     1     -10.370  17.154  68.057  1.00  0.00    -0.353 C  
HETATM    3  C   UNL     1     -10.782  16.493  69.389  1.00  0.00    -0.330 C  
HETATM    4  C   UNL     1     -10.902  16.420  66.798  1.00  0.00    -0.098 C  
HETATM    5  C   UNL     1     -10.206  17.195  65.642  1.00  0.00    -0.162 C  
HETATM    6  C   UNL     1      -8.826  17.608  66.240  1.00  0.00    -0.209 C  
HETATM    7  C   UNL     1      -8.860  16.969  67.650  1.00  0.00    -0.220 C  
HETATM    8  C   UNL     1     -10.682  13.828  66.772  1.00  0.00    -0.276 C  
HETATM    9  C   UNL     1      -8.822  15.483  67.315  1.00  0.00    -0.201 C  
HETATM   10  O   UNL     1      -7.814  14.807  67.199  1.00  0.00    -0.200 OA 
HETATM   11  C   UNL     1     -10.207  15.074  66.909  1.00  0.00    -0.258 C  
ENDROOT
BRANCH   7  12
HETATM   12  C   UNL     1      -7.861  17.413  68.701  1.00  0.00    -0.274 C  
HETATM   13  S   UNL     1      -6.833  18.831  68.339  1.00  0.00    -0.257 S  
HETATM   14  O   UNL     1      -6.062  19.124  69.531  1.00  0.00    -0.249 OA 
HETATM   15  O   UNL     1      -7.617  19.840  67.673  1.00  0.00    -0.266 OA 
HETATM   16  O   UNL     1      -5.817  18.189  67.265  1.00  0.00    -0.136 OA 
ENDBRANCH   7  12
BRANCH   8  17
HETATM   17  C   UNL     1      -9.841  12.635  66.930  1.00  0.00    -0.234 A  
HETATM   18  C   UNL     1      -9.362  11.931  65.818  1.00  0.00    -0.165 A  
HETATM   19  C   UNL     1      -8.685  10.717  65.993  1.00  0.00    -0.186 A  
HETATM   20  C   UNL     1      -8.482  10.195  67.274  1.00  0.00    -0.125 A  
HETATM   21  C   UNL     1      -9.596  12.135  68.215  1.00  0.00    -0.210 A  
HETATM   22  C   UNL     1      -8.919  10.923  68.386  1.00  0.00    -0.154 A  
BRANCH  20  23
HETATM   23  C   UNL     1      -7.857   8.885  67.449  1.00  0.00    -0.097 C  
HETATM   24  C   UNL     1      -8.514   7.818  67.904  1.00  0.00    -0.122 C  
HETATM   25  C   UNL     1      -9.940   7.613  68.355  1.00  0.00    -0.192 C  
HETATM   26  C   UNL     1     -10.608   6.778  67.242  1.00  0.00    -0.390 C  
HETATM   27  C   UNL     1      -9.970   5.372  67.408  1.00  0.00    -0.198 C  
HETATM   28  C   UNL     1      -9.016   5.543  68.621  1.00  0.00    -0.118 C  
HETATM   29  C   UNL     1      -9.782   6.588  69.514  1.00  0.00    -0.161 C  
HETATM   30  C   UNL     1     -11.133   6.107  70.080  1.00  0.00    -0.462 C  
HETATM   31  C   UNL     1      -7.905   6.455  68.108  1.00  0.00    -0.105 C  
HETATM   32  O   UNL     1      -6.739   6.175  67.917  1.00  0.00    -0.059 OA 
HETATM   33  C   UNL     1      -8.968   7.113  70.721  1.00  0.00    -0.152 C  
BRANCH  28  34
HETATM   34  C   UNL     1      -8.578   4.286  69.346  1.00  0.00    -0.080 C  
HETATM   35  S   UNL     1      -8.253   2.862  68.319  1.00  0.00    -0.066 S  
HETATM   36  O   UNL     1      -9.470   2.443  67.658  1.00  0.00    -0.176 OA 
HETATM   37  O   UNL     1      -8.056   1.801  69.526  1.00  0.00    -0.045 OA 
HETATM   38  O   UNL     1      -6.986   2.943  67.638  1.00  0.00    -0.048 OA 
ENDBRANCH  28  34
ENDBRANCH  20  23
ENDBRANCH   8  17
TORSDOF 4
ENDMDL
MODEL       33
REMARK 921   NORMALIZED FREE ENERGY PREDICTED BY IDOCK:   -5.81 KCAL/MOL
REMARK 922        TOTAL FREE ENERGY PREDICTED BY IDOCK:   -7.65 KCAL/MOL
REMARK 923 INTER-LIGAND FREE ENERGY PREDICTED BY IDOCK:   -7.53 KCAL/MOL
REMARK 924 INTRA-LIGAND FREE ENERGY PREDICTED BY IDOCK:   -0.12 KCAL/MOL
REMARK 927      BINDING AFFINITY PREDICTED BY RF-SCORE:    0.00 PKD
ROOT
HETATM    1  C   UNL     1     -10.042   4.334  70.496  1.00  0.00    -0.126 C  
HETATM    2  C   UNL     1      -9.662   5.739  69.973  1.00  0.00    -0.218 C  
HETATM    3  C   UNL     1      -8.396   5.546  69.111  1.00  0.00    -0.098 C  
HETATM    4  C   UNL     1     -10.825   6.454  69.234  1.00  0.00    -0.387 C  
HETATM    5  C   UNL     1     -11.868   6.653  70.371  1.00  0.00    -0.407 C  
HETATM    6  C   UNL     1     -11.000   6.881  71.646  1.00  0.00    -0.262 C  
HETATM    7  C   UNL     1      -9.557   6.848  71.086  1.00  0.00    -0.167 C  
HETATM    8  C   UNL     1     -10.206   8.551  67.826  1.00  0.00    -0.283 C  
HETATM    9  C   UNL     1      -9.525   8.116  70.243  1.00  0.00    -0.170 C  
HETATM   10  O   UNL     1      -9.187   9.220  70.633  1.00  0.00    -0.233 OA 
HETATM   11  C   UNL     1     -10.218   7.816  68.946  1.00  0.00    -0.220 C  
ENDROOT
BRANCH   7  12
HETATM   12  C   UNL     1      -8.385   6.683  72.036  1.00  0.00    -0.106 C  
HETATM   13  S   UNL     1      -8.671   6.956  73.781  1.00  0.00    -0.159 S  
HETATM   14  O   UNL     1      -7.447   6.622  74.479  1.00  0.00    -0.101 OA 
HETATM   15  O   UNL     1      -9.941   6.387  74.158  1.00  0.00    -0.241 OA 
HETATM   16  O   UNL     1      -8.808   8.562  73.807  1.00  0.00    -0.209 OA 
ENDBRANCH   7  12
BRANCH   8  17
HETATM   17  C   UNL     1      -9.547   9.861  67.742  1.00  0.00    -0.163 A  
HETATM   18  C   UNL     1     -10.273  11.050  67.882  1.00  0.00    -0.207 A  
HETATM   19  C   UNL     1      -9.650  12.285  67.654  1.00  0.00    -0.191 A  
HETATM   20  C   UNL     1      -8.303  12.343  67.284  1.00  0.00    -0.184 A  
HETATM   21  C   UNL     1      -8.186   9.923  67.416  1.00  0.00    -0.118 A  
HETATM   22  C   UNL     1      -7.567  11.157  67.191  1.00  0.00    -0.125 A  
BRANCH  20  23
HETATM   23  C   UNL     1      -7.680  13.625  66.958  1.00  0.00     0.159 C  
HETATM   24  C   UNL     1      -8.164  14.797  67.370  1.00  0.00    -0.216 C  
HETATM   25  C   UNL     1      -9.371  15.170  68.194  1.00  0.00    -0.192 C  
HETATM   26  C   UNL     1      -8.814  15.622  69.561  1.00  0.00    -0.213 C  
HETATM   27  C   UNL     1      -8.151  16.991  69.250  1.00  0.00     0.074 C  
HETATM   28  C   UNL     1      -8.421  17.193  67.734  1.00  0.00    -0.207 C  
HETATM   29  C   UNL     1      -9.824  16.507  67.542  1.00  0.00    -0.248 C  
HETATM   30  C   UNL     1     -10.994  17.176  68.291  1.00  0.00    -0.229 C  
HETATM   31  C   UNL     1      -7.558  16.138  67.047  1.00  0.00    -0.225 C  
HETATM   32  O   UNL     1      -6.580  16.314  66.348  1.00  0.00    -0.128 OA 
HETATM   33  C   UNL     1     -10.273  16.375  66.066  1.00  0.00    -0.373 C  
BRANCH  28  34
HETATM   34  C   UNL     1      -8.323  18.605  67.190  1.00  0.00    -0.264 C  
HETATM   35  S   UNL     1      -7.022  19.620  67.873  1.00  0.00    -0.262 S  
HETATM   36  O   UNL     1      -7.257  19.836  69.285  1.00  0.00    -0.340 OA 
HETATM   37  O   UNL     1      -7.474  21.005  67.167  1.00  0.00    -0.328 OA 
HETATM   38  O   UNL     1      -5.725  19.295  67.341  1.00  0.00    -0.171 OA 
ENDBRANCH  28  34
ENDBRANCH  20  23
ENDBRANCH   8  17
TORSDOF 4
ENDMDL
MODEL       34
REMARK 921   NORMALIZED FREE ENERGY PREDICTED BY IDOCK:   -5.76 KCAL/MOL
REMARK 922        TOTAL FREE ENERGY PREDICTED BY IDOCK:   -7.60 KCAL/MOL
REMARK 923 INTER-LIGAND FREE ENERGY PREDICTED BY IDOCK:   -7.78 KCAL/MOL
REMARK 924 INTRA-LIGAND FREE ENERGY PREDICTED BY IDOCK:    0.18 KCAL/MOL
REMARK 927      BINDING AFFINITY PREDICTED BY RF-SCORE:    0.00 PKD
ROOT
HETATM    1  C   UNL     1     -10.997   4.972  72.073  1.00  0.00    -0.084 C  
HETATM    2  C   UNL     1     -10.961   6.283  71.252  1.00  0.00    -0.330 C  
HETATM    3  C   UNL     1     -12.410   6.527  70.777  1.00  0.00    -0.099 C  
HETATM    4  C   UNL     1     -10.342   7.475  72.027  1.00  0.00    -0.236 C  
HETATM    5  C   UNL     1      -8.868   7.017  72.222  1.00  0.00    -0.143 C  
HETATM    6  C   UNL     1      -8.556   6.190  70.937  1.00  0.00    -0.132 C  
HETATM    7  C   UNL     1      -9.866   6.320  70.121  1.00  0.00    -0.201 C  
HETATM    8  C   UNL     1     -10.710   9.846  71.021  1.00  0.00    -0.241 C  
HETATM    9  C   UNL     1      -9.858   7.801  69.762  1.00  0.00    -0.178 C  
HETATM   10  O   UNL     1      -9.363   8.286  68.759  1.00  0.00    -0.144 OA 
HETATM   11  C   UNL     1     -10.330   8.562  70.966  1.00  0.00    -0.261 C  
ENDROOT
BRANCH   7  12
HETATM   12  C   UNL     1     -10.124   5.382  68.957  1.00  0.00    -0.213 C  
HETATM   13  S   UNL     1      -9.062   3.954  68.776  1.00  0.00    -0.151 S  
HETATM   14  O   UNL     1      -9.582   3.163  67.680  1.00  0.00    -0.197 OA 
HETATM   15  O   UNL     1      -8.798   3.379  70.071  1.00  0.00    -0.073 OA 
HETATM   16  O   UNL     1      -7.710   4.659  68.252  1.00  0.00    -0.079 OA 
ENDBRANCH   7  12
BRANCH   8  17
HETATM   17  C   UNL     1     -10.630  10.749  69.866  1.00  0.00    -0.130 A  
HETATM   18  C   UNL     1      -9.405  11.036  69.251  1.00  0.00     0.044 A  
HETATM   19  C   UNL     1      -9.334  12.010  68.245  1.00  0.00    -0.197 A  
HETATM   20  C   UNL     1     -10.480  12.705  67.848  1.00  0.00    -0.225 A  
HETATM   21  C   UNL     1     -11.785  11.413  69.435  1.00  0.00    -0.406 A  
HETATM   22  C   UNL     1     -11.711  12.384  68.430  1.00  0.00    -0.386 A  
BRANCH  20  23
HETATM   23  C   UNL     1     -10.388  13.783  66.865  1.00  0.00    -0.266 C  
HETATM   24  C   UNL     1      -9.629  14.866  67.039  1.00  0.00    -0.245 C  
HETATM   25  C   UNL     1      -8.729  15.311  68.165  1.00  0.00    -0.162 C  
HETATM   26  C   UNL     1      -7.289  15.148  67.632  1.00  0.00    -0.205 C  
HETATM   27  C   UNL     1      -7.156  16.290  66.589  1.00  0.00    -0.112 C  
HETATM   28  C   UNL     1      -8.532  17.007  66.651  1.00  0.00    -0.283 C  
HETATM   29  C   UNL     1      -8.929  16.853  68.166  1.00  0.00    -0.227 C  
HETATM   30  C   UNL     1      -8.007  17.579  69.166  1.00  0.00     0.014 C  
HETATM   31  C   UNL     1      -9.515  16.002  66.056  1.00  0.00    -0.349 C  
HETATM   32  O   UNL     1     -10.124  16.085  65.009  1.00  0.00    -0.463 OA 
HETATM   33  C   UNL     1     -10.371  17.308  68.496  1.00  0.00    -0.371 C  
BRANCH  28  34
HETATM   34  C   UNL     1      -8.605  18.423  66.114  1.00  0.00    -0.112 C  
HETATM   35  S   UNL     1      -7.041  19.242  65.846  1.00  0.00    -0.276 S  
HETATM   36  O   UNL     1      -6.352  19.413  67.107  1.00  0.00    -0.187 OA 
HETATM   37  O   UNL     1      -7.650  20.705  65.511  1.00  0.00     0.020 OA 
HETATM   38  O   UNL     1      -6.376  18.795  64.650  1.00  0.00    -0.493 OA 
ENDBRANCH  28  34
ENDBRANCH  20  23
ENDBRANCH   8  17
TORSDOF 4
ENDMDL
MODEL       35
REMARK 921   NORMALIZED FREE ENERGY PREDICTED BY IDOCK:   -5.72 KCAL/MOL
REMARK 922        TOTAL FREE ENERGY PREDICTED BY IDOCK:   -7.55 KCAL/MOL
REMARK 923 INTER-LIGAND FREE ENERGY PREDICTED BY IDOCK:   -6.98 KCAL/MOL
REMARK 924 INTRA-LIGAND FREE ENERGY PREDICTED BY IDOCK:   -0.57 KCAL/MOL
REMARK 927      BINDING AFFINITY PREDICTED BY RF-SCORE:    0.00 PKD
ROOT
HETATM    1  C   UNL     1     -12.481  15.314  64.828  1.00  0.00     0.098 C  
HETATM    2  C   UNL     1     -11.815  14.033  65.383  1.00  0.00    -0.363 C  
HETATM    3  C   UNL     1     -12.850  12.902  65.202  1.00  0.00    -0.295 C  
HETATM    4  C   UNL     1     -10.434  13.733  64.742  1.00  0.00    -0.448 C  
HETATM    5  C   UNL     1      -9.576  14.940  65.219  1.00  0.00     0.036 C  
HETATM    6  C   UNL     1     -10.143  15.271  66.634  1.00  0.00    -0.268 C  
HETATM    7  C   UNL     1     -11.221  14.177  66.834  1.00  0.00    -0.326 C  
HETATM    8  C   UNL     1      -9.447  11.360  65.141  1.00  0.00    -0.223 C  
HETATM    9  C   UNL     1     -10.367  12.919  66.934  1.00  0.00    -0.243 C  
HETATM   10  O   UNL     1      -9.914  12.449  67.963  1.00  0.00    -0.195 OA 
HETATM   11  C   UNL     1      -9.979  12.523  65.540  1.00  0.00    -0.248 C  
ENDROOT
BRANCH   7  12
HETATM   12  C   UNL     1     -12.257  14.335  67.931  1.00  0.00    -0.150 C  
HETATM   13  S   UNL     1     -11.933  15.519  69.231  1.00  0.00    -0.260 S  
HETATM   14  O   UNL     1     -13.110  15.570  70.075  1.00  0.00    -0.088 OA 
HETATM   15  O   UNL     1     -11.351  16.711  68.667  1.00  0.00    -0.304 OA 
HETATM   16  O   UNL     1     -10.790  14.741  70.059  1.00  0.00    -0.208 OA 
ENDBRANCH   7  12
BRANCH   8  17
HETATM   17  C   UNL     1      -9.076  10.293  66.079  1.00  0.00    -0.189 A  
HETATM   18  C   UNL     1      -7.818  10.269  66.693  1.00  0.00    -0.116 A  
HETATM   19  C   UNL     1      -7.434   9.167  67.470  1.00  0.00    -0.088 A  
HETATM   20  C   UNL     1      -8.299   8.082  67.638  1.00  0.00    -0.128 A  
HETATM   21  C   UNL     1      -9.959   9.226  66.286  1.00  0.00    -0.357 A  
HETATM   22  C   UNL     1      -9.574   8.127  67.063  1.00  0.00    -0.253 A  
BRANCH  20  23
HETATM   23  C   UNL     1      -7.863   6.894  68.371  1.00  0.00    -0.121 C  
HETATM   24  C   UNL     1      -8.474   6.450  69.469  1.00  0.00    -0.133 C  
HETATM   25  C   UNL     1      -9.663   6.954  70.251  1.00  0.00    -0.176 C  
HETATM   26  C   UNL     1     -10.801   5.952  69.962  1.00  0.00    -0.421 C  
HETATM   27  C   UNL     1     -10.371   4.678  70.738  1.00  0.00    -0.126 C  
HETATM   28  C   UNL     1      -9.037   5.093  71.414  1.00  0.00    -0.171 C  
HETATM   29  C   UNL     1      -9.267   6.619  71.717  1.00  0.00    -0.148 C  
HETATM   30  C   UNL     1     -10.389   6.929  72.729  1.00  0.00    -0.238 C  
HETATM   31  C   UNL     1      -8.050   5.238  70.258  1.00  0.00    -0.091 C  
HETATM   32  O   UNL     1      -7.085   4.545  70.009  1.00  0.00    -0.047 OA 
HETATM   33  C   UNL     1      -8.009   7.367  72.223  1.00  0.00    -0.110 C  
BRANCH  28  34
HETATM   34  C   UNL     1      -8.570   4.272  72.600  1.00  0.00    -0.105 C  
HETATM   35  S   UNL     1      -9.667   2.965  73.129  1.00  0.00    -0.107 S  
HETATM   36  O   UNL     1     -10.914   3.529  73.599  1.00  0.00    -0.213 OA 
HETATM   37  O   UNL     1      -8.860   2.576  74.477  1.00  0.00    -0.070 OA 
HETATM   38  O   UNL     1      -9.610   1.810  72.272  1.00  0.00    -0.083 OA 
ENDBRANCH  28  34
ENDBRANCH  20  23
ENDBRANCH   8  17
TORSDOF 4
ENDMDL
MODEL       36
REMARK 921   NORMALIZED FREE ENERGY PREDICTED BY IDOCK:   -5.70 KCAL/MOL
REMARK 922        TOTAL FREE ENERGY PREDICTED BY IDOCK:   -7.53 KCAL/MOL
REMARK 923 INTER-LIGAND FREE ENERGY PREDICTED BY IDOCK:   -7.59 KCAL/MOL
REMARK 924 INTRA-LIGAND FREE ENERGY PREDICTED BY IDOCK:    0.06 KCAL/MOL
REMARK 927      BINDING AFFINITY PREDICTED BY RF-SCORE:    0.00 PKD
ROOT
HETATM    1  C   UNL     1      -9.287   4.318  70.038  1.00  0.00    -0.234 C  
HETATM    2  C   UNL     1      -9.316   5.750  69.454  1.00  0.00    -0.151 C  
HETATM    3  C   UNL     1      -8.308   5.754  68.285  1.00  0.00    -0.107 C  
HETATM    4  C   UNL     1     -10.740   6.223  69.061  1.00  0.00    -0.362 C  
HETATM    5  C   UNL     1     -11.466   6.274  70.436  1.00  0.00    -0.414 C  
HETATM    6  C   UNL     1     -10.348   6.693  71.439  1.00  0.00    -0.225 C  
HETATM    7  C   UNL     1      -9.121   6.897  70.516  1.00  0.00    -0.156 C  
HETATM    8  C   UNL     1     -10.900   8.348  67.570  1.00  0.00    -0.083 C  
HETATM    9  C   UNL     1      -9.540   8.122  69.713  1.00  0.00    -0.171 C  
HETATM   10  O   UNL     1      -9.315   9.280  70.016  1.00  0.00    -0.177 OA 
HETATM   11  C   UNL     1     -10.484   7.660  68.642  1.00  0.00    -0.203 C  
ENDROOT
BRANCH   7  12
HETATM   12  C   UNL     1      -7.731   6.973  71.119  1.00  0.00    -0.091 C  
HETATM   13  S   UNL     1      -7.519   7.904  72.631  1.00  0.00    -0.113 S  
HETATM   14  O   UNL     1      -6.149   7.725  73.063  1.00  0.00    -0.057 OA 
HETATM   15  O   UNL     1      -8.633   7.656  73.512  1.00  0.00    -0.159 OA 
HETATM   16  O   UNL     1      -7.646   9.410  72.068  1.00  0.00    -0.126 OA 
ENDBRANCH   7  12
BRANCH   8  17
HETATM   17  C   UNL     1     -10.532   9.750  67.333  1.00  0.00    -0.319 A  
HETATM   18  C   UNL     1     -11.102  10.788  68.080  1.00  0.00    -0.359 A  
HETATM   19  C   UNL     1     -10.845  12.123  67.740  1.00  0.00    -0.263 A  
HETATM   20  C   UNL     1     -10.021  12.433  66.654  1.00  0.00    -0.236 A  
HETATM   21  C   UNL     1      -9.669  10.062  66.275  1.00  0.00    -0.272 A  
HETATM   22  C   UNL     1      -9.413  11.396  65.938  1.00  0.00    -0.251 A  
BRANCH  20  23
HETATM   23  C   UNL     1      -9.827  13.823  66.244  1.00  0.00    -0.314 C  
HETATM   24  C   UNL     1      -9.021  14.668  66.888  1.00  0.00    -0.275 C  
HETATM   25  C   UNL     1      -8.150  14.516  68.111  1.00  0.00    -0.137 C  
HETATM   26  C   UNL     1      -6.699  14.505  67.586  1.00  0.00    -0.194 C  
HETATM   27  C   UNL     1      -6.458  15.976  67.150  1.00  0.00    -0.145 C  
HETATM   28  C   UNL     1      -7.795  16.685  67.496  1.00  0.00    -0.191 C  
HETATM   29  C   UNL     1      -8.268  15.913  68.783  1.00  0.00    -0.196 C  
HETATM   30  C   UNL     1      -7.356  16.066  70.017  1.00  0.00     0.471 C  
HETATM   31  C   UNL     1      -8.802  16.108  66.504  1.00  0.00    -0.296 C  
HETATM   32  O   UNL     1      -9.358  16.680  65.589  1.00  0.00    -0.502 OA 
HETATM   33  C   UNL     1      -9.698  16.274  69.254  1.00  0.00    -0.238 C  
BRANCH  28  34
HETATM   34  C   UNL     1      -7.770  18.194  67.633  1.00  0.00    -0.223 C  
HETATM   35  S   UNL     1      -6.152  18.951  67.675  1.00  0.00    -0.199 S  
HETATM   36  O   UNL     1      -5.434  18.510  68.851  1.00  0.00    -0.192 OA 
HETATM   37  O   UNL     1      -6.654  20.446  68.038  1.00  0.00    -0.274 OA 
HETATM   38  O   UNL     1      -5.541  19.030  66.374  1.00  0.00    -0.156 OA 
ENDBRANCH  28  34
ENDBRANCH  20  23
ENDBRANCH   8  17
TORSDOF 4
ENDMDL
MODEL       37
REMARK 921   NORMALIZED FREE ENERGY PREDICTED BY IDOCK:   -5.65 KCAL/MOL
REMARK 922        TOTAL FREE ENERGY PREDICTED BY IDOCK:   -7.46 KCAL/MOL
REMARK 923 INTER-LIGAND FREE ENERGY PREDICTED BY IDOCK:   -7.21 KCAL/MOL
REMARK 924 INTRA-LIGAND FREE ENERGY PREDICTED BY IDOCK:   -0.25 KCAL/MOL
REMARK 927      BINDING AFFINITY PREDICTED BY RF-SCORE:    0.00 PKD
ROOT
HETATM    1  C   UNL     1      -8.907  20.214  66.725  1.00  0.00    -0.407 C  
HETATM    2  C   UNL     1      -9.018  18.734  67.161  1.00  0.00    -0.291 C  
HETATM    3  C   UNL     1     -10.421  18.577  67.784  1.00  0.00    -0.443 C  
HETATM    4  C   UNL     1      -8.722  17.733  66.013  1.00  0.00    -0.029 C  
HETATM    5  C   UNL     1      -7.222  18.010  65.707  1.00  0.00    -0.204 C  
HETATM    6  C   UNL     1      -6.616  18.386  67.095  1.00  0.00    -0.198 C  
HETATM    7  C   UNL     1      -7.824  18.220  68.050  1.00  0.00    -0.274 C  
HETATM    8  C   UNL     1      -9.399  15.254  66.416  1.00  0.00    -0.328 C  
HETATM    9  C   UNL     1      -8.046  16.714  68.007  1.00  0.00    -0.180 C  
HETATM   10  O   UNL     1      -7.535  15.899  68.756  1.00  0.00    -0.148 OA 
HETATM   11  C   UNL     1      -8.787  16.401  66.740  1.00  0.00    -0.255 C  
ENDROOT
BRANCH   7  12
HETATM   12  C   UNL     1      -7.768  18.818  69.443  1.00  0.00     0.130 C  
HETATM   13  S   UNL     1      -6.363  19.843  69.864  1.00  0.00    -0.334 S  
HETATM   14  O   UNL     1      -6.601  20.385  71.185  1.00  0.00    -0.470 OA 
HETATM   15  O   UNL     1      -6.027  20.687  68.744  1.00  0.00    -0.317 OA 
HETATM   16  O   UNL     1      -5.216  18.720  70.012  1.00  0.00    -0.188 OA 
ENDBRANCH   7  12
BRANCH   8  17
HETATM   17  C   UNL     1      -9.353  14.060  67.269  1.00  0.00    -0.230 A  
HETATM   18  C   UNL     1      -8.199  13.271  67.353  1.00  0.00    -0.185 A  
HETATM   19  C   UNL     1      -8.224  12.060  68.058  1.00  0.00    -0.156 A  
HETATM   20  C   UNL     1      -9.398  11.625  68.680  1.00  0.00    -0.120 A  
HETATM   21  C   UNL     1     -10.515  13.646  67.932  1.00  0.00    -0.249 A  
HETATM   22  C   UNL     1     -10.537  12.436  68.635  1.00  0.00    -0.243 A  
BRANCH  20  23
HETATM   23  C   UNL     1      -9.448  10.319  69.336  1.00  0.00    -0.225 C  
HETATM   24  C   UNL     1      -9.053   9.191  68.745  1.00  0.00    -0.136 C  
HETATM   25  C   UNL     1      -8.502   8.896  67.372  1.00  0.00    -0.115 C  
HETATM   26  C   UNL     1      -7.007   8.579  67.587  1.00  0.00    -0.078 C  
HETATM   27  C   UNL     1      -7.025   7.187  68.276  1.00  0.00    -0.076 C  
HETATM   28  C   UNL     1      -8.536   6.840  68.361  1.00  0.00    -0.125 C  
HETATM   29  C   UNL     1      -9.114   7.502  67.056  1.00  0.00    -0.156 C  
HETATM   30  C   UNL     1      -8.599   6.905  65.731  1.00  0.00    -0.139 C  
HETATM   31  C   UNL     1      -9.098   7.826  69.383  1.00  0.00    -0.146 C  
HETATM   32  O   UNL     1      -9.530   7.586  70.492  1.00  0.00    -0.164 OA 
HETATM   33  C   UNL     1     -10.659   7.491  66.966  1.00  0.00    -0.409 C  
BRANCH  28  34
HETATM   34  C   UNL     1      -8.908   5.383  68.554  1.00  0.00    -0.100 C  
HETATM   35  S   UNL     1      -7.566   4.210  68.436  1.00  0.00    -0.066 S  
HETATM   36  O   UNL     1      -7.015   4.226  67.099  1.00  0.00    -0.057 OA 
HETATM   37  O   UNL     1      -8.480   2.874  68.486  1.00  0.00    -0.064 OA 
HETATM   38  O   UNL     1      -6.743   4.184  69.617  1.00  0.00    -0.036 OA 
ENDBRANCH  28  34
ENDBRANCH  20  23
ENDBRANCH   8  17
TORSDOF 4
ENDMDL
MODEL       38
REMARK 921   NORMALIZED FREE ENERGY PREDICTED BY IDOCK:   -5.54 KCAL/MOL
REMARK 922        TOTAL FREE ENERGY PREDICTED BY IDOCK:   -7.32 KCAL/MOL
REMARK 923 INTER-LIGAND FREE ENERGY PREDICTED BY IDOCK:   -6.67 KCAL/MOL
REMARK 924 INTRA-LIGAND FREE ENERGY PREDICTED BY IDOCK:   -0.65 KCAL/MOL
REMARK 927      BINDING AFFINITY PREDICTED BY RF-SCORE:    0.00 PKD
ROOT
HETATM    1  C   UNL     1      -7.481   3.504  67.103  1.00  0.00    -0.074 C  
HETATM    2  C   UNL     1      -7.802   5.017  67.119  1.00  0.00    -0.096 C  
HETATM    3  C   UNL     1      -6.458   5.736  67.365  1.00  0.00    -0.044 C  
HETATM    4  C   UNL     1      -8.551   5.498  65.848  1.00  0.00    -0.141 C  
HETATM    5  C   UNL     1      -9.906   4.740  65.952  1.00  0.00    -0.225 C  
HETATM    6  C   UNL     1     -10.174   4.655  67.486  1.00  0.00    -0.068 C  
HETATM    7  C   UNL     1      -8.975   5.429  68.086  1.00  0.00    -0.111 C  
HETATM    8  C   UNL     1      -8.671   8.067  65.459  1.00  0.00    -0.134 C  
HETATM    9  C   UNL     1      -9.261   6.851  67.619  1.00  0.00    -0.119 C  
HETATM   10  O   UNL     1      -9.909   7.682  68.231  1.00  0.00    -0.157 OA 
HETATM   11  C   UNL     1      -8.831   6.952  66.185  1.00  0.00    -0.163 C  
ENDROOT
BRANCH   7  12
HETATM   12  C   UNL     1      -8.655   5.295  69.563  1.00  0.00    -0.097 C  
HETATM   13  S   UNL     1      -9.693   4.227  70.555  1.00  0.00    -0.205 S  
HETATM   14  O   UNL     1      -9.116   4.172  71.882  1.00  0.00    -0.115 OA 
HETATM   15  O   UNL     1     -10.007   3.032  69.812  1.00  0.00     0.138 OA 
HETATM   16  O   UNL     1     -11.027   5.126  70.655  1.00  0.00    -0.062 OA 
ENDBRANCH   7  12
BRANCH   8  17
HETATM   17  C   UNL     1      -8.994   9.404  65.974  1.00  0.00    -0.205 A  
HETATM   18  C   UNL     1      -8.099  10.104  66.792  1.00  0.00    -0.119 A  
HETATM   19  C   UNL     1      -8.487  11.312  67.387  1.00  0.00    -0.137 A  
HETATM   20  C   UNL     1      -9.769  11.829  67.174  1.00  0.00    -0.194 A  
HETATM   21  C   UNL     1     -10.261   9.946  65.724  1.00  0.00    -0.251 A  
HETATM   22  C   UNL     1     -10.645  11.153  66.319  1.00  0.00    -0.309 A  
BRANCH  20  23
HETATM   23  C   UNL     1     -10.203  13.040  67.868  1.00  0.00    -0.234 C  
HETATM   24  C   UNL     1      -9.829  14.266  67.500  1.00  0.00    -0.231 C  
HETATM   25  C   UNL     1      -8.933  14.772  66.397  1.00  0.00    -0.223 C  
HETATM   26  C   UNL     1      -9.878  15.421  65.363  1.00  0.00    -0.314 C  
HETATM   27  C   UNL     1     -10.351  16.721  66.070  1.00  0.00    -0.346 C  
HETATM   28  C   UNL     1      -9.604  16.692  67.431  1.00  0.00    -0.242 C  
HETATM   29  C   UNL     1      -8.243  15.997  67.059  1.00  0.00    -0.255 C  
HETATM   30  C   UNL     1      -7.346  16.784  66.082  1.00  0.00    -0.064 C  
HETATM   31  C   UNL     1     -10.246  15.536  68.195  1.00  0.00    -0.227 C  
HETATM   32  O   UNL     1     -10.942  15.594  69.189  1.00  0.00    -0.227 OA 
HETATM   33  C   UNL     1      -7.352  15.646  68.276  1.00  0.00    -0.117 C  
BRANCH  28  34
HETATM   34  C   UNL     1      -9.467  18.002  68.179  1.00  0.00    -0.289 C  
HETATM   35  S   UNL     1      -9.819  19.481  67.242  1.00  0.00    -0.384 S  
HETATM   36  O   UNL     1      -8.860  19.624  66.168  1.00  0.00    -0.365 OA 
HETATM   37  O   UNL     1      -9.332  20.538  68.368  1.00  0.00     0.061 OA 
HETATM   38  O   UNL     1     -11.230  19.702  67.060  1.00  0.00    -0.319 OA 
ENDBRANCH  28  34
ENDBRANCH  20  23
ENDBRANCH   8  17
TORSDOF 4
ENDMDL
MODEL       39
REMARK 921   NORMALIZED FREE ENERGY PREDICTED BY IDOCK:   -5.52 KCAL/MOL
REMARK 922        TOTAL FREE ENERGY PREDICTED BY IDOCK:   -7.29 KCAL/MOL
REMARK 923 INTER-LIGAND FREE ENERGY PREDICTED BY IDOCK:   -6.84 KCAL/MOL
REMARK 924 INTRA-LIGAND FREE ENERGY PREDICTED BY IDOCK:   -0.46 KCAL/MOL
REMARK 927      BINDING AFFINITY PREDICTED BY RF-SCORE:    0.00 PKD
ROOT
HETATM    1  C   UNL     1     -10.028   4.122  70.359  1.00  0.00    -0.163 C  
HETATM    2  C   UNL     1      -9.590   5.544  69.936  1.00  0.00    -0.217 C  
HETATM    3  C   UNL     1     -10.893   6.342  69.713  1.00  0.00    -0.399 C  
HETATM    4  C   UNL     1      -8.609   6.207  70.938  1.00  0.00    -0.132 C  
HETATM    5  C   UNL     1      -7.356   5.291  70.833  1.00  0.00    -0.074 C  
HETATM    6  C   UNL     1      -7.347   4.833  69.342  1.00  0.00    -0.052 C  
HETATM    7  C   UNL     1      -8.560   5.588  68.745  1.00  0.00    -0.100 C  
HETATM    8  C   UNL     1      -8.218   8.766  70.678  1.00  0.00    -0.159 C  
HETATM    9  C   UNL     1      -8.086   7.034  68.814  1.00  0.00    -0.121 C  
HETATM   10  O   UNL     1      -7.480   7.625  67.937  1.00  0.00    -0.102 OA 
HETATM   11  C   UNL     1      -8.270   7.505  70.226  1.00  0.00    -0.128 C  
ENDROOT
BRANCH   7  12
HETATM   12  C   UNL     1      -9.124   5.163  67.403  1.00  0.00    -0.113 C  
HETATM   13  S   UNL     1      -8.476   3.676  66.650  1.00  0.00    -0.110 S  
HETATM   14  O   UNL     1      -9.251   3.422  65.453  1.00  0.00    -0.143 OA 
HETATM   15  O   UNL     1      -8.284   2.666  67.660  1.00  0.00    -0.073 OA 
HETATM   16  O   UNL     1      -7.026   4.197  66.174  1.00  0.00    -0.063 OA 
ENDBRANCH   7  12
BRANCH   8  17
HETATM   17  C   UNL     1      -7.874   9.905  69.819  1.00  0.00    -0.169 A  
HETATM   18  C   UNL     1      -6.605  10.495  69.866  1.00  0.00    -0.130 A  
HETATM   19  C   UNL     1      -6.347  11.668  69.144  1.00  0.00    -0.084 A  
HETATM   20  C   UNL     1      -7.351  12.262  68.373  1.00  0.00    -0.109 A  
HETATM   21  C   UNL     1      -8.865  10.475  69.009  1.00  0.00    -0.174 A  
HETATM   22  C   UNL     1      -8.604  11.646  68.288  1.00  0.00    -0.162 A  
BRANCH  20  23
HETATM   23  C   UNL     1      -7.107  13.534  67.694  1.00  0.00    -0.176 C  
HETATM   24  C   UNL     1      -7.959  14.559  67.738  1.00  0.00    -0.168 C  
HETATM   25  C   UNL     1      -9.303  14.742  68.400  1.00  0.00    -0.197 C  
HETATM   26  C   UNL     1      -9.053  15.702  69.583  1.00  0.00    -0.165 C  
HETATM   27  C   UNL     1      -8.800  17.071  68.893  1.00  0.00    -0.206 C  
HETATM   28  C   UNL     1      -8.957  16.754  67.381  1.00  0.00    -0.211 C  
HETATM   29  C   UNL     1     -10.062  15.635  67.378  1.00  0.00    -0.251 C  
HETATM   30  C   UNL     1     -11.450  16.078  67.882  1.00  0.00    -0.140 C  
HETATM   31  C   UNL     1      -7.750  15.881  67.046  1.00  0.00    -0.233 C  
HETATM   32  O   UNL     1      -6.802  16.158  66.340  1.00  0.00    -0.107 OA 
HETATM   33  C   UNL     1     -10.293  14.970  66.000  1.00  0.00    -0.326 C  
BRANCH  28  34
HETATM   34  C   UNL     1      -9.227  17.918  66.449  1.00  0.00    -0.242 C  
HETATM   35  S   UNL     1      -9.531  19.495  67.232  1.00  0.00    -0.346 S  
HETATM   36  O   UNL     1     -10.743  19.427  68.020  1.00  0.00    -0.377 OA 
HETATM   37  O   UNL     1      -9.961  20.291  65.889  1.00  0.00    -0.411 OA 
HETATM   38  O   UNL     1      -8.326  20.122  67.709  1.00  0.00    -0.304 OA 
ENDBRANCH  28  34
ENDBRANCH  20  23
ENDBRANCH   8  17
TORSDOF 4
ENDMDL
MODEL       40
REMARK 921   NORMALIZED FREE ENERGY PREDICTED BY IDOCK:   -5.50 KCAL/MOL
REMARK 922        TOTAL FREE ENERGY PREDICTED BY IDOCK:   -7.27 KCAL/MOL
REMARK 923 INTER-LIGAND FREE ENERGY PREDICTED BY IDOCK:   -6.61 KCAL/MOL
REMARK 924 INTRA-LIGAND FREE ENERGY PREDICTED BY IDOCK:   -0.66 KCAL/MOL
REMARK 927      BINDING AFFINITY PREDICTED BY RF-SCORE:    0.00 PKD
ROOT
HETATM    1  C   UNL     1      -7.557   6.141  73.489  1.00  0.00    -0.095 C  
HETATM    2  C   UNL     1      -7.376   7.423  72.643  1.00  0.00    -0.082 C  
HETATM    3  C   UNL     1      -7.062   8.554  73.645  1.00  0.00    -0.073 C  
HETATM    4  C   UNL     1      -6.321   7.269  71.515  1.00  0.00    -0.036 C  
HETATM    5  C   UNL     1      -6.973   6.200  70.593  1.00  0.00    -0.064 C  
HETATM    6  C   UNL     1      -8.503   6.480  70.711  1.00  0.00    -0.134 C  
HETATM    7  C   UNL     1      -8.552   7.719  71.638  1.00  0.00    -0.138 C  
HETATM    8  C   UNL     1      -5.497   9.457  70.375  1.00  0.00    -0.032 C  
HETATM    9  C   UNL     1      -7.927   8.791  70.754  1.00  0.00    -0.127 C  
HETATM   10  O   UNL     1      -8.532   9.525  69.992  1.00  0.00    -0.157 OA 
HETATM   11  C   UNL     1      -6.439   8.603  70.798  1.00  0.00    -0.043 C  
ENDROOT
BRANCH   7  12
HETATM   12  C   UNL     1      -9.861   8.116  72.294  1.00  0.00    -0.260 C  
HETATM   13  S   UNL     1     -11.361   7.321  71.730  1.00  0.00    -0.262 S  
HETATM   14  O   UNL     1     -12.440   7.774  72.583  1.00  0.00    -0.111 OA 
HETATM   15  O   UNL     1     -11.109   5.920  71.501  1.00  0.00    -0.270 OA 
HETATM   16  O   UNL     1     -11.553   8.040  70.300  1.00  0.00    -0.156 OA 
ENDBRANCH   7  12
BRANCH   8  17
HETATM   17  C   UNL     1      -5.815  10.721  69.700  1.00  0.00    -0.052 A  
HETATM   18  C   UNL     1      -6.059  10.769  68.322  1.00  0.00    -0.046 A  
HETATM   19  C   UNL     1      -6.218  12.003  67.677  1.00  0.00    -0.096 A  
HETATM   20  C   UNL     1      -6.132  13.197  68.399  1.00  0.00    -0.083 A  
HETATM   21  C   UNL     1      -5.776  11.916  70.430  1.00  0.00    -0.163 A  
HETATM   22  C   UNL     1      -5.935  13.147  69.784  1.00  0.00    -0.127 A  
BRANCH  20  23
HETATM   23  C   UNL     1      -6.206  14.485  67.711  1.00  0.00    -0.152 C  
HETATM   24  C   UNL     1      -7.313  15.227  67.670  1.00  0.00    -0.201 C  
HETATM   25  C   UNL     1      -8.700  15.025  68.229  1.00  0.00    -0.166 C  
HETATM   26  C   UNL     1      -8.820  16.019  69.404  1.00  0.00    -0.159 C  
HETATM   27  C   UNL     1      -8.911  17.401  68.703  1.00  0.00    -0.255 C  
HETATM   28  C   UNL     1      -8.858  17.051  67.191  1.00  0.00    -0.232 C  
HETATM   29  C   UNL     1      -9.600  15.665  67.135  1.00  0.00    -0.224 C  
HETATM   30  C   UNL     1     -11.091  15.699  67.526  1.00  0.00    -0.289 C  
HETATM   31  C   UNL     1      -7.432  16.553  66.964  1.00  0.00    -0.204 C  
HETATM   32  O   UNL     1      -6.550  17.086  66.322  1.00  0.00    -0.209 OA 
HETATM   33  C   UNL     1      -9.529  14.959  65.759  1.00  0.00    -0.237 C  
BRANCH  28  34
HETATM   34  C   UNL     1      -9.373  18.090  66.216  1.00  0.00    -0.206 C  
HETATM   35  S   UNL     1      -9.876  19.650  66.925  1.00  0.00    -0.419 S  
HETATM   36  O   UNL     1     -11.006  19.449  67.806  1.00  0.00    -0.377 OA 
HETATM   37  O   UNL     1     -10.517  20.273  65.574  1.00  0.00    -0.328 OA 
HETATM   38  O   UNL     1      -8.759  20.490  67.271  1.00  0.00    -0.348 OA 
ENDBRANCH  28  34
ENDBRANCH  20  23
ENDBRANCH   8  17
TORSDOF 4
ENDMDL
MODEL       41
REMARK 921   NORMALIZED FREE ENERGY PREDICTED BY IDOCK:   -5.33 KCAL/MOL
REMARK 922        TOTAL FREE ENERGY PREDICTED BY IDOCK:   -7.06 KCAL/MOL
REMARK 923 INTER-LIGAND FREE ENERGY PREDICTED BY IDOCK:   -7.60 KCAL/MOL
REMARK 924 INTRA-LIGAND FREE ENERGY PREDICTED BY IDOCK:    0.54 KCAL/MOL
REMARK 927      BINDING AFFINITY PREDICTED BY RF-SCORE:    0.00 PKD
ROOT
HETATM    1  C   UNL     1      -9.704   5.397  72.016  1.00  0.00    -0.198 C  
HETATM    2  C   UNL     1      -9.594   6.721  71.223  1.00  0.00    -0.172 C  
HETATM    3  C   UNL     1      -8.558   7.583  71.974  1.00  0.00    -0.126 C  
HETATM    4  C   UNL     1      -9.267   6.509  69.721  1.00  0.00    -0.145 C  
HETATM    5  C   UNL     1     -10.535   5.769  69.205  1.00  0.00    -0.358 C  
HETATM    6  C   UNL     1     -11.695   6.365  70.060  1.00  0.00    -0.345 C  
HETATM    7  C   UNL     1     -10.971   7.425  70.926  1.00  0.00    -0.271 C  
HETATM    8  C   UNL     1      -8.504   8.603  68.380  1.00  0.00    -0.131 C  
HETATM    9  C   UNL     1     -10.560   8.451  69.877  1.00  0.00    -0.228 C  
HETATM   10  O   UNL     1     -11.224   9.412  69.526  1.00  0.00    -0.164 OA 
HETATM   11  C   UNL     1      -9.336   7.929  69.186  1.00  0.00    -0.154 C  
ENDROOT
BRANCH   7  12
HETATM   12  C   UNL     1     -11.664   8.001  72.146  1.00  0.00    -0.344 C  
HETATM   13  S   UNL     1     -13.416   8.342  72.036  1.00  0.00    -0.335 S  
HETATM   14  O   UNL     1     -13.860   8.763  73.349  1.00  0.00    -0.065 OA 
HETATM   15  O   UNL     1     -14.072   7.279  71.316  1.00  0.00    -0.384 OA 
HETATM   16  O   UNL     1     -13.401   9.654  71.098  1.00  0.00    -0.360 OA 
ENDBRANCH   7  12
BRANCH   8  17
HETATM   17  C   UNL     1      -8.742   9.995  67.979  1.00  0.00    -0.125 A  
HETATM   18  C   UNL     1      -9.560  10.308  66.886  1.00  0.00    -0.211 A  
HETATM   19  C   UNL     1      -9.656  11.631  66.434  1.00  0.00    -0.236 A  
HETATM   20  C   UNL     1      -8.936  12.650  67.065  1.00  0.00    -0.216 A  
HETATM   21  C   UNL     1      -8.058  11.025  68.638  1.00  0.00    -0.149 A  
HETATM   22  C   UNL     1      -8.156  12.345  68.185  1.00  0.00    -0.163 A  
BRANCH  20  23
HETATM   23  C   UNL     1      -8.965  14.013  66.535  1.00  0.00    -0.119 C  
HETATM   24  C   UNL     1      -8.236  15.008  67.042  1.00  0.00    -0.246 C  
HETATM   25  C   UNL     1      -7.266  15.078  68.196  1.00  0.00    -0.122 C  
HETATM   26  C   UNL     1      -5.869  15.210  67.551  1.00  0.00     0.011 C  
HETATM   27  C   UNL     1      -5.864  16.656  66.986  1.00  0.00    -0.175 C  
HETATM   28  C   UNL     1      -7.256  17.213  67.389  1.00  0.00    -0.178 C  
HETATM   29  C   UNL     1      -7.523  16.501  68.766  1.00  0.00    -0.216 C  
HETATM   30  C   UNL     1      -6.552  16.878  69.903  1.00  0.00     0.105 C  
HETATM   31  C   UNL     1      -8.245  16.426  66.533  1.00  0.00    -0.306 C  
HETATM   32  O   UNL     1      -8.940  16.839  65.626  1.00  0.00    -0.475 OA 
HETATM   33  C   UNL     1      -8.951  16.712  69.328  1.00  0.00    -0.052 C  
BRANCH  28  34
HETATM   34  C   UNL     1      -7.427  18.718  67.407  1.00  0.00    -0.223 C  
HETATM   35  S   UNL     1      -6.703  19.606  66.037  1.00  0.00    -0.252 S  
HETATM   36  O   UNL     1      -5.265  19.447  66.053  1.00  0.00    -0.150 OA 
HETATM   37  O   UNL     1      -6.956  21.094  66.623  1.00  0.00    -0.230 OA 
HETATM   38  O   UNL     1      -7.484  19.505  64.832  1.00  0.00    -0.092 OA 
ENDBRANCH  28  34
ENDBRANCH  20  23
ENDBRANCH   8  17
TORSDOF 4
ENDMDL
MODEL       42
REMARK 921   NORMALIZED FREE ENERGY PREDICTED BY IDOCK:   -5.32 KCAL/MOL
REMARK 922        TOTAL FREE ENERGY PREDICTED BY IDOCK:   -7.06 KCAL/MOL
REMARK 923 INTER-LIGAND FREE ENERGY PREDICTED BY IDOCK:   -7.20 KCAL/MOL
REMARK 924 INTRA-LIGAND FREE ENERGY PREDICTED BY IDOCK:    0.15 KCAL/MOL
REMARK 927      BINDING AFFINITY PREDICTED BY RF-SCORE:    0.00 PKD
ROOT
HETATM    1  C   UNL     1     -10.102  19.973  68.864  1.00  0.00    -0.379 C  
HETATM    2  C   UNL     1      -9.958  18.563  68.244  1.00  0.00    -0.409 C  
HETATM    3  C   UNL     1      -9.954  17.575  69.430  1.00  0.00     0.002 C  
HETATM    4  C   UNL     1     -11.033  18.253  67.169  1.00  0.00    -0.085 C  
HETATM    5  C   UNL     1     -10.694  19.282  66.052  1.00  0.00    -0.477 C  
HETATM    6  C   UNL     1      -9.142  19.420  66.125  1.00  0.00    -0.314 C  
HETATM    7  C   UNL     1      -8.761  18.408  67.233  1.00  0.00    -0.261 C  
HETATM    8  C   UNL     1     -11.282  15.769  66.441  1.00  0.00     0.034 C  
HETATM    9  C   UNL     1      -9.101  17.080  66.568  1.00  0.00    -0.264 C  
HETATM   10  O   UNL     1      -8.338  16.405  65.900  1.00  0.00    -0.334 OA 
HETATM   11  C   UNL     1     -10.586  16.891  66.668  1.00  0.00    -0.189 C  
ENDROOT
BRANCH   7  12
HETATM   12  C   UNL     1      -7.384  18.470  67.867  1.00  0.00    -0.236 C  
HETATM   13  S   UNL     1      -6.353  19.885  67.503  1.00  0.00    -0.207 S  
HETATM   14  O   UNL     1      -5.157  19.772  68.313  1.00  0.00    -0.183 OA 
HETATM   15  O   UNL     1      -7.157  21.082  67.497  1.00  0.00    -0.355 OA 
HETATM   16  O   UNL     1      -5.928  19.555  65.983  1.00  0.00    -0.167 OA 
ENDBRANCH   7  12
BRANCH   8  17
HETATM   17  C   UNL     1     -10.658  14.530  65.959  1.00  0.00    -0.311 A  
HETATM   18  C   UNL     1     -10.899  14.051  64.665  1.00  0.00    -0.416 A  
HETATM   19  C   UNL     1     -10.409  12.796  64.277  1.00  0.00    -0.402 A  
HETATM   20  C   UNL     1      -9.680  12.010  65.175  1.00  0.00    -0.163 A  
HETATM   21  C   UNL     1      -9.887  13.763  66.841  1.00  0.00    -0.264 A  
HETATM   22  C   UNL     1      -9.399  12.511  66.451  1.00  0.00    -0.209 A  
BRANCH  20  23
HETATM   23  C   UNL     1      -9.249  10.665  64.800  1.00  0.00    -0.255 C  
HETATM   24  C   UNL     1      -8.574   9.859  65.620  1.00  0.00    -0.157 C  
HETATM   25  C   UNL     1      -8.068  10.031  67.032  1.00  0.00    -0.117 C  
HETATM   26  C   UNL     1      -8.975   9.140  67.907  1.00  0.00    -0.131 C  
HETATM   27  C   UNL     1      -8.534   7.698  67.537  1.00  0.00    -0.116 C  
HETATM   28  C   UNL     1      -7.397   7.915  66.502  1.00  0.00    -0.087 C  
HETATM   29  C   UNL     1      -6.726   9.246  67.006  1.00  0.00    -0.076 C  
HETATM   30  C   UNL     1      -6.052   9.162  68.390  1.00  0.00    -0.045 C  
HETATM   31  C   UNL     1      -8.104   8.472  65.269  1.00  0.00    -0.138 C  
HETATM   32  O   UNL     1      -8.253   7.936  64.189  1.00  0.00    -0.121 OA 
HETATM   33  C   UNL     1      -5.665   9.830  66.041  1.00  0.00    -0.057 C  
BRANCH  28  34
HETATM   34  C   UNL     1      -6.436   6.767  66.269  1.00  0.00    -0.047 C  
HETATM   35  S   UNL     1      -7.159   5.133  66.240  1.00  0.00    -0.073 S  
HETATM   36  O   UNL     1      -7.723   4.822  67.536  1.00  0.00    -0.088 OA 
HETATM   37  O   UNL     1      -5.765   4.311  66.193  1.00  0.00    -0.020 OA 
HETATM   38  O   UNL     1      -7.842   4.848  65.005  1.00  0.00    -0.087 OA 
ENDBRANCH  28  34
ENDBRANCH  20  23
ENDBRANCH   8  17
TORSDOF 4
ENDMDL
MODEL       43
REMARK 921   NORMALIZED FREE ENERGY PREDICTED BY IDOCK:   -5.24 KCAL/MOL
REMARK 922        TOTAL FREE ENERGY PREDICTED BY IDOCK:   -6.95 KCAL/MOL
REMARK 923 INTER-LIGAND FREE ENERGY PREDICTED BY IDOCK:   -6.99 KCAL/MOL
REMARK 924 INTRA-LIGAND FREE ENERGY PREDICTED BY IDOCK:    0.04 KCAL/MOL
REMARK 927      BINDING AFFINITY PREDICTED BY RF-SCORE:    0.00 PKD
ROOT
HETATM    1  C   UNL     1     -11.852  16.509  68.339  1.00  0.00     0.342 C  
HETATM    2  C   UNL     1     -11.320  15.067  68.517  1.00  0.00    -0.317 C  
HETATM    3  C   UNL     1     -11.619  14.680  69.981  1.00  0.00    -0.335 C  
HETATM    4  C   UNL     1     -11.890  14.071  67.473  1.00  0.00    -0.442 C  
HETATM    5  C   UNL     1     -11.303  14.614  66.138  1.00  0.00    -0.350 C  
HETATM    6  C   UNL     1      -9.911  15.189  66.544  1.00  0.00    -0.279 C  
HETATM    7  C   UNL     1      -9.830  14.854  68.053  1.00  0.00    -0.216 C  
HETATM    8  C   UNL     1     -11.548  11.539  67.960  1.00  0.00    -0.370 C  
HETATM    9  C   UNL     1      -9.741  13.334  68.026  1.00  0.00    -0.223 C  
HETATM   10  O   UNL     1      -8.710  12.684  67.981  1.00  0.00    -0.175 OA 
HETATM   11  C   UNL     1     -11.126  12.801  67.807  1.00  0.00    -0.289 C  
ENDROOT
BRANCH   7  12
HETATM   12  C   UNL     1      -8.792  15.540  68.921  1.00  0.00    -0.217 C  
HETATM   13  S   UNL     1      -8.144  17.114  68.373  1.00  0.00    -0.264 S  
HETATM   14  O   UNL     1      -7.275  17.614  69.419  1.00  0.00    -0.144 OA 
HETATM   15  O   UNL     1      -9.212  17.913  67.825  1.00  0.00    -0.252 OA 
HETATM   16  O   UNL     1      -7.198  16.635  67.159  1.00  0.00    -0.148 OA 
ENDBRANCH   7  12
BRANCH   8  17
HETATM   17  C   UNL     1     -10.642  10.434  68.299  1.00  0.00    -0.245 A  
HETATM   18  C   UNL     1     -10.322   9.442  67.363  1.00  0.00    -0.325 A  
HETATM   19  C   UNL     1      -9.574   8.323  67.752  1.00  0.00    -0.178 A  
HETATM   20  C   UNL     1      -9.142   8.182  69.074  1.00  0.00    -0.148 A  
HETATM   21  C   UNL     1     -10.169  10.314  69.612  1.00  0.00    -0.268 A  
HETATM   22  C   UNL     1      -9.421   9.196  69.997  1.00  0.00    -0.218 A  
BRANCH  20  23
HETATM   23  C   UNL     1      -8.441   6.971  69.499  1.00  0.00    -0.134 C  
HETATM   24  C   UNL     1      -8.738   6.312  70.619  1.00  0.00    -0.140 C  
HETATM   25  C   UNL     1      -9.753   6.555  71.709  1.00  0.00    -0.168 C  
HETATM   26  C   UNL     1     -10.832   5.467  71.518  1.00  0.00    -0.263 C  
HETATM   27  C   UNL     1     -10.119   4.164  71.972  1.00  0.00    -0.234 C  
HETATM   28  C   UNL     1      -8.707   4.648  72.400  1.00  0.00    -0.124 C  
HETATM   29  C   UNL     1      -8.999   6.080  72.983  1.00  0.00    -0.127 C  
HETATM   30  C   UNL     1      -9.879   6.111  74.249  1.00  0.00    -0.267 C  
HETATM   31  C   UNL     1      -8.034   5.068  71.096  1.00  0.00    -0.101 C  
HETATM   32  O   UNL     1      -7.094   4.539  70.538  1.00  0.00    -0.040 OA 
HETATM   33  C   UNL     1      -7.731   6.904  73.316  1.00  0.00    -0.093 C  
BRANCH  28  34
HETATM   34  C   UNL     1      -7.906   3.741  73.313  1.00  0.00    -0.079 C  
HETATM   35  S   UNL     1      -7.909   2.005  72.892  1.00  0.00    -0.049 S  
HETATM   36  O   UNL     1      -9.250   1.473  73.007  1.00  0.00    -0.064 OA 
HETATM   37  O   UNL     1      -7.148   1.487  74.223  1.00  0.00    -0.022 OA 
HETATM   38  O   UNL     1      -7.044   1.700  71.782  1.00  0.00    -0.026 OA 
ENDBRANCH  28  34
ENDBRANCH  20  23
ENDBRANCH   8  17
TORSDOF 4
ENDMDL
MODEL       44
REMARK 921   NORMALIZED FREE ENERGY PREDICTED BY IDOCK:   -5.17 KCAL/MOL
REMARK 922        TOTAL FREE ENERGY PREDICTED BY IDOCK:   -6.86 KCAL/MOL
REMARK 923 INTER-LIGAND FREE ENERGY PREDICTED BY IDOCK:   -6.71 KCAL/MOL
REMARK 924 INTRA-LIGAND FREE ENERGY PREDICTED BY IDOCK:   -0.15 KCAL/MOL
REMARK 927      BINDING AFFINITY PREDICTED BY RF-SCORE:    0.00 PKD
ROOT
HETATM    1  C   UNL     1      -7.183   2.185  68.891  1.00  0.00    -0.043 C  
HETATM    2  C   UNL     1      -7.260   3.705  68.608  1.00  0.00    -0.051 C  
HETATM    3  C   UNL     1      -5.808   4.224  68.676  1.00  0.00    -0.025 C  
HETATM    4  C   UNL     1      -7.990   4.045  67.282  1.00  0.00    -0.092 C  
HETATM    5  C   UNL     1      -9.440   3.557  67.566  1.00  0.00    -0.233 C  
HETATM    6  C   UNL     1      -9.636   3.820  69.091  1.00  0.00    -0.195 C  
HETATM    7  C   UNL     1      -8.299   4.486  69.497  1.00  0.00    -0.082 C  
HETATM    8  C   UNL     1      -7.722   6.472  66.386  1.00  0.00    -0.099 C  
HETATM    9  C   UNL     1      -8.381   5.817  68.759  1.00  0.00    -0.104 C  
HETATM   10  O   UNL     1      -8.856   6.847  69.204  1.00  0.00    -0.134 OA 
HETATM   11  C   UNL     1      -8.017   5.563  67.326  1.00  0.00    -0.101 C  
ENDROOT
BRANCH   7  12
HETATM   12  C   UNL     1      -7.925   4.592  70.964  1.00  0.00    -0.077 C  
HETATM   13  S   UNL     1      -9.145   4.108  72.179  1.00  0.00    -0.123 S  
HETATM   14  O   UNL     1      -8.514   4.182  73.481  1.00  0.00    -0.092 OA 
HETATM   15  O   UNL     1      -9.829   2.920  71.732  1.00  0.00    -0.152 OA 
HETATM   16  O   UNL     1     -10.169   5.350  72.077  1.00  0.00    -0.190 OA 
ENDBRANCH   7  12
BRANCH   8  17
HETATM   17  C   UNL     1      -7.801   7.918  66.627  1.00  0.00    -0.102 A  
HETATM   18  C   UNL     1      -8.824   8.694  66.067  1.00  0.00    -0.213 A  
HETATM   19  C   UNL     1      -8.797  10.090  66.191  1.00  0.00    -0.165 A  
HETATM   20  C   UNL     1      -7.752  10.722  66.872  1.00  0.00    -0.130 A  
HETATM   21  C   UNL     1      -6.780   8.549  67.348  1.00  0.00    -0.063 A  
HETATM   22  C   UNL     1      -6.756   9.943  67.472  1.00  0.00    -0.073 A  
BRANCH  20  23
HETATM   23  C   UNL     1      -7.676  12.181  66.922  1.00  0.00    -0.049 C  
HETATM   24  C   UNL     1      -8.750  12.963  67.040  1.00  0.00    -0.195 C  
HETATM   25  C   UNL     1     -10.226  12.664  67.135  1.00  0.00    -0.230 C  
HETATM   26  C   UNL     1     -10.614  12.963  68.599  1.00  0.00    -0.256 C  
HETATM   27  C   UNL     1     -10.553  14.512  68.682  1.00  0.00    -0.255 C  
HETATM   28  C   UNL     1     -10.158  14.942  67.243  1.00  0.00    -0.235 C  
HETATM   29  C   UNL     1     -10.861  13.850  66.355  1.00  0.00    -0.291 C  
HETATM   30  C   UNL     1     -12.401  13.848  66.408  1.00  0.00    -0.468 C  
HETATM   31  C   UNL     1      -8.715  14.469  67.084  1.00  0.00    -0.219 C  
HETATM   32  O   UNL     1      -7.714  15.149  66.984  1.00  0.00    -0.205 OA 
HETATM   33  C   UNL     1     -10.478  13.904  64.856  1.00  0.00    -0.446 C  
BRANCH  28  34
HETATM   34  C   UNL     1     -10.447  16.374  66.839  1.00  0.00    -0.289 C  
HETATM   35  S   UNL     1     -10.096  17.622  68.067  1.00  0.00    -0.364 S  
HETATM   36  O   UNL     1     -10.952  17.435  69.218  1.00  0.00     0.026 OA 
HETATM   37  O   UNL     1     -10.754  18.865  67.266  1.00  0.00    -0.445 OA 
HETATM   38  O   UNL     1      -8.690  17.910  68.182  1.00  0.00    -0.253 OA 
ENDBRANCH  28  34
ENDBRANCH  20  23
ENDBRANCH   8  17
TORSDOF 4
ENDMDL
MODEL       45
REMARK 921   NORMALIZED FREE ENERGY PREDICTED BY IDOCK:   -5.11 KCAL/MOL
REMARK 922        TOTAL FREE ENERGY PREDICTED BY IDOCK:   -6.80 KCAL/MOL
REMARK 923 INTER-LIGAND FREE ENERGY PREDICTED BY IDOCK:   -6.16 KCAL/MOL
REMARK 924 INTRA-LIGAND FREE ENERGY PREDICTED BY IDOCK:   -0.64 KCAL/MOL
REMARK 927      BINDING AFFINITY PREDICTED BY RF-SCORE:    0.00 PKD
ROOT
HETATM    1  C   UNL     1      -9.270   4.487  66.956  1.00  0.00    -0.145 C  
HETATM    2  C   UNL     1      -8.915   5.985  67.116  1.00  0.00    -0.114 C  
HETATM    3  C   UNL     1      -7.546   6.173  66.429  1.00  0.00    -0.094 C  
HETATM    4  C   UNL     1     -10.022   6.936  66.588  1.00  0.00    -0.211 C  
HETATM    5  C   UNL     1     -11.205   6.640  67.554  1.00  0.00    -0.276 C  
HETATM    6  C   UNL     1     -10.512   6.319  68.914  1.00  0.00    -0.280 C  
HETATM    7  C   UNL     1      -9.012   6.530  68.590  1.00  0.00    -0.126 C  
HETATM    8  C   UNL     1      -9.366   9.432  66.266  1.00  0.00    -0.253 C  
HETATM    9  C   UNL     1      -8.955   8.034  68.356  1.00  0.00    -0.133 C  
HETATM   10  O   UNL     1      -8.734   8.877  69.209  1.00  0.00    -0.134 OA 
HETATM   11  C   UNL     1      -9.468   8.297  66.971  1.00  0.00    -0.226 C  
ENDROOT
BRANCH   7  12
HETATM   12  C   UNL     1      -7.955   5.990  69.536  1.00  0.00    -0.106 C  
HETATM   13  S   UNL     1      -8.461   4.800  70.772  1.00  0.00    -0.103 S  
HETATM   14  O   UNL     1      -7.267   4.353  71.458  1.00  0.00    -0.048 OA 
HETATM   15  O   UNL     1      -9.400   3.871  70.194  1.00  0.00    -0.135 OA 
HETATM   16  O   UNL     1      -9.262   5.759  71.791  1.00  0.00    -0.145 OA 
ENDBRANCH   7  12
BRANCH   8  17
HETATM   17  C   UNL     1      -8.781  10.661  66.818  1.00  0.00    -0.133 A  
HETATM   18  C   UNL     1      -7.420  10.950  66.668  1.00  0.00    -0.139 A  
HETATM   19  C   UNL     1      -6.857  12.053  67.325  1.00  0.00    -0.150 A  
HETATM   20  C   UNL     1      -7.646  12.872  68.138  1.00  0.00    -0.135 A  
HETATM   21  C   UNL     1      -9.580  11.509  67.596  1.00  0.00    -0.176 A  
HETATM   22  C   UNL     1      -9.016  12.610  68.250  1.00  0.00    -0.176 A  
BRANCH  20  23
HETATM   23  C   UNL     1      -7.040  13.966  68.895  1.00  0.00    -0.110 C  
HETATM   24  C   UNL     1      -7.061  15.236  68.486  1.00  0.00    -0.110 C  
HETATM   25  C   UNL     1      -7.625  15.903  67.256  1.00  0.00    -0.236 C  
HETATM   26  C   UNL     1      -8.861  16.689  67.744  1.00  0.00    -0.206 C  
HETATM   27  C   UNL     1      -8.249  17.869  68.547  1.00  0.00    -0.300 C  
HETATM   28  C   UNL     1      -6.718  17.648  68.414  1.00  0.00    -0.203 C  
HETATM   29  C   UNL     1      -6.585  17.025  66.976  1.00  0.00    -0.238 C  
HETATM   30  C   UNL     1      -6.999  17.951  65.815  1.00  0.00    -0.234 C  
HETATM   31  C   UNL     1      -6.440  16.389  69.232  1.00  0.00    -0.197 C  
HETATM   32  O   UNL     1      -5.820  16.296  70.272  1.00  0.00    -0.183 OA 
HETATM   33  C   UNL     1      -5.167  16.507  66.632  1.00  0.00     0.223 C  
BRANCH  28  34
HETATM   34  C   UNL     1      -5.816  18.837  68.678  1.00  0.00    -0.208 C  
HETATM   35  S   UNL     1      -6.630  20.336  69.207  1.00  0.00    -0.151 S  
HETATM   36  O   UNL     1      -7.499  20.820  68.157  1.00  0.00    -0.088 OA 
HETATM   37  O   UNL     1      -5.326  21.294  69.132  1.00  0.00    -0.325 OA 
HETATM   38  O   UNL     1      -7.027  20.296  70.590  1.00  0.00    -0.154 OA 
ENDBRANCH  28  34
ENDBRANCH  20  23
ENDBRANCH   8  17
TORSDOF 4
ENDMDL
MODEL       46
REMARK 921   NORMALIZED FREE ENERGY PREDICTED BY IDOCK:   -5.10 KCAL/MOL
REMARK 922        TOTAL FREE ENERGY PREDICTED BY IDOCK:   -6.78 KCAL/MOL
REMARK 923 INTER-LIGAND FREE ENERGY PREDICTED BY IDOCK:   -6.72 KCAL/MOL
REMARK 924 INTRA-LIGAND FREE ENERGY PREDICTED BY IDOCK:   -0.06 KCAL/MOL
REMARK 927      BINDING AFFINITY PREDICTED BY RF-SCORE:    0.00 PKD
ROOT
HETATM    1  C   UNL     1      -8.977   3.975  66.445  1.00  0.00    -0.128 C  
HETATM    2  C   UNL     1      -9.319   5.450  66.763  1.00  0.00    -0.136 C  
HETATM    3  C   UNL     1     -10.766   5.667  66.271  1.00  0.00    -0.142 C  
HETATM    4  C   UNL     1      -9.096   5.823  68.252  1.00  0.00    -0.117 C  
HETATM    5  C   UNL     1      -7.556   5.666  68.409  1.00  0.00    -0.081 C  
HETATM    6  C   UNL     1      -6.990   6.085  67.017  1.00  0.00    -0.068 C  
HETATM    7  C   UNL     1      -8.264   6.496  66.240  1.00  0.00    -0.119 C  
HETATM    8  C   UNL     1     -10.135   8.064  69.067  1.00  0.00    -0.206 C  
HETATM    9  C   UNL     1      -8.692   7.751  66.991  1.00  0.00    -0.129 C  
HETATM   10  O   UNL     1      -8.346   8.889  66.726  1.00  0.00    -0.110 OA 
HETATM   11  C   UNL     1      -9.390   7.314  68.245  1.00  0.00    -0.135 C  
ENDROOT
BRANCH   7  12
HETATM   12  C   UNL     1      -8.211   6.642  64.731  1.00  0.00    -0.064 C  
HETATM   13  S   UNL     1      -6.605   6.643  63.942  1.00  0.00    -0.042 S  
HETATM   14  O   UNL     1      -6.825   6.670  62.511  1.00  0.00    -0.044 OA 
HETATM   15  O   UNL     1      -5.760   5.654  64.563  1.00  0.00    -0.019 OA 
HETATM   16  O   UNL     1      -6.071   8.103  64.367  1.00  0.00    -0.056 OA 
ENDBRANCH   7  12
BRANCH   8  17
HETATM   17  C   UNL     1     -10.308   9.511  68.885  1.00  0.00    -0.225 A  
HETATM   18  C   UNL     1      -9.248  10.402  69.095  1.00  0.00    -0.202 A  
HETATM   19  C   UNL     1      -9.472  11.785  69.056  1.00  0.00     0.172 A  
HETATM   20  C   UNL     1     -10.753  12.289  68.812  1.00  0.00    -0.247 A  
HETATM   21  C   UNL     1     -11.581  10.018  68.594  1.00  0.00     0.078 A  
HETATM   22  C   UNL     1     -11.802  11.399  68.555  1.00  0.00    -0.364 A  
BRANCH  20  23
HETATM   23  C   UNL     1     -11.004  13.729  68.863  1.00  0.00    -0.281 C  
HETATM   24  C   UNL     1     -10.235  14.625  68.244  1.00  0.00    -0.227 C  
HETATM   25  C   UNL     1      -8.992  14.495  67.398  1.00  0.00    -0.207 C  
HETATM   26  C   UNL     1      -9.442  14.801  65.954  1.00  0.00    -0.266 C  
HETATM   27  C   UNL     1      -9.708  16.331  65.973  1.00  0.00    -0.370 C  
HETATM   28  C   UNL     1      -9.357  16.747  67.427  1.00  0.00    -0.233 C  
HETATM   29  C   UNL     1      -8.184  15.764  67.790  1.00  0.00    -0.154 C  
HETATM   30  C   UNL     1      -6.897  15.937  66.959  1.00  0.00    -0.130 C  
HETATM   31  C   UNL     1     -10.454  16.116  68.281  1.00  0.00    -0.276 C  
HETATM   32  O   UNL     1     -11.331  16.679  68.903  1.00  0.00    -0.258 OA 
HETATM   33  C   UNL     1      -7.751  15.809  69.276  1.00  0.00    -0.224 C  
BRANCH  28  34
HETATM   34  C   UNL     1      -9.062  18.212  67.682  1.00  0.00    -0.259 C  
HETATM   35  S   UNL     1      -8.887  19.240  66.232  1.00  0.00    -0.271 S  
HETATM   36  O   UNL     1      -7.740  18.811  65.460  1.00  0.00    -0.446 OA 
HETATM   37  O   UNL     1      -8.385  20.571  67.005  1.00  0.00    -0.310 OA 
HETATM   38  O   UNL     1     -10.151  19.572  65.628  1.00  0.00    -0.422 OA 
ENDBRANCH  28  34
ENDBRANCH  20  23
ENDBRANCH   8  17
TORSDOF 4
ENDMDL
MODEL       47
REMARK 921   NORMALIZED FREE ENERGY PREDICTED BY IDOCK:   -5.03 KCAL/MOL
REMARK 922        TOTAL FREE ENERGY PREDICTED BY IDOCK:   -6.69 KCAL/MOL
REMARK 923 INTER-LIGAND FREE ENERGY PREDICTED BY IDOCK:   -6.43 KCAL/MOL
REMARK 924 INTRA-LIGAND FREE ENERGY PREDICTED BY IDOCK:   -0.26 KCAL/MOL
REMARK 927      BINDING AFFINITY PREDICTED BY RF-SCORE:    0.00 PKD
ROOT
HETATM    1  C   UNL     1     -11.592  15.749  65.696  1.00  0.00     0.329 C  
HETATM    2  C   UNL     1     -11.292  14.280  66.078  1.00  0.00    -0.335 C  
HETATM    3  C   UNL     1     -12.498  13.456  65.579  1.00  0.00    -0.534 C  
HETATM    4  C   UNL     1      -9.923  13.777  65.550  1.00  0.00    -0.260 C  
HETATM    5  C   UNL     1      -8.916  14.669  66.332  1.00  0.00    -0.191 C  
HETATM    6  C   UNL     1      -9.606  14.898  67.711  1.00  0.00    -0.208 C  
HETATM    7  C   UNL     1     -10.903  14.060  67.588  1.00  0.00    -0.270 C  
HETATM    8  C   UNL     1      -9.513  11.209  65.614  1.00  0.00    -0.252 C  
HETATM    9  C   UNL     1     -10.349  12.641  67.549  1.00  0.00    -0.218 C  
HETATM   10  O   UNL     1     -10.160  11.927  68.518  1.00  0.00    -0.211 OA 
HETATM   11  C   UNL     1      -9.849  12.387  66.158  1.00  0.00    -0.263 C  
ENDROOT
BRANCH   7  12
HETATM   12  C   UNL     1     -12.036  14.277  68.573  1.00  0.00    -0.317 C  
HETATM   13  S   UNL     1     -11.843  15.555  69.809  1.00  0.00    -0.367 S  
HETATM   14  O   UNL     1     -13.091  15.646  70.538  1.00  0.00    -0.436 OA 
HETATM   15  O   UNL     1     -11.222  16.713  69.216  1.00  0.00    -0.260 OA 
HETATM   16  O   UNL     1     -10.772  14.855  70.790  1.00  0.00    -0.076 OA 
ENDBRANCH   7  12
BRANCH   8  17
HETATM   17  C   UNL     1      -9.512   9.954  66.376  1.00  0.00    -0.234 A  
HETATM   18  C   UNL     1      -8.363   9.509  67.042  1.00  0.00    -0.124 A  
HETATM   19  C   UNL     1      -8.343   8.241  67.640  1.00  0.00    -0.127 A  
HETATM   20  C   UNL     1      -9.465   7.409  67.576  1.00  0.00    -0.162 A  
HETATM   21  C   UNL     1     -10.650   9.138  66.354  1.00  0.00    -0.002 A  
HETATM   22  C   UNL     1     -10.628   7.874  66.952  1.00  0.00    -0.333 A  
BRANCH  20  23
HETATM   23  C   UNL     1      -9.412   6.053  68.120  1.00  0.00    -0.115 C  
HETATM   24  C   UNL     1      -9.033   5.782  69.370  1.00  0.00    -0.121 C  
HETATM   25  C   UNL     1      -8.572   6.657  70.509  1.00  0.00    -0.143 C  
HETATM   26  C   UNL     1      -9.737   6.663  71.522  1.00  0.00    -0.172 C  
HETATM   27  C   UNL     1      -9.701   5.233  72.127  1.00  0.00    -0.202 C  
HETATM   28  C   UNL     1      -8.498   4.562  71.411  1.00  0.00    -0.112 C  
HETATM   29  C   UNL     1      -7.506   5.766  71.207  1.00  0.00    -0.095 C  
HETATM   30  C   UNL     1      -6.954   6.393  72.503  1.00  0.00    -0.074 C  
HETATM   31  C   UNL     1      -8.956   4.399  69.964  1.00  0.00    -0.092 C  
HETATM   32  O   UNL     1      -9.194   3.368  69.368  1.00  0.00    -0.124 OA 
HETATM   33  C   UNL     1      -6.276   5.438  70.326  1.00  0.00    -0.023 C  
BRANCH  28  34
HETATM   34  C   UNL     1      -7.888   3.340  72.068  1.00  0.00    -0.058 C  
HETATM   35  S   UNL     1      -8.122   3.200  73.833  1.00  0.00    -0.070 S  
HETATM   36  O   UNL     1      -7.453   4.293  74.506  1.00  0.00    -0.074 OA 
HETATM   37  O   UNL     1      -7.146   1.927  74.052  1.00  0.00    -0.023 OA 
HETATM   38  O   UNL     1      -9.447   2.763  74.186  1.00  0.00    -0.084 OA 
ENDBRANCH  28  34
ENDBRANCH  20  23
ENDBRANCH   8  17
TORSDOF 4
ENDMDL
MODEL       48
REMARK 921   NORMALIZED FREE ENERGY PREDICTED BY IDOCK:   -5.02 KCAL/MOL
REMARK 922        TOTAL FREE ENERGY PREDICTED BY IDOCK:   -6.68 KCAL/MOL
REMARK 923 INTER-LIGAND FREE ENERGY PREDICTED BY IDOCK:   -7.25 KCAL/MOL
REMARK 924 INTRA-LIGAND FREE ENERGY PREDICTED BY IDOCK:    0.57 KCAL/MOL
REMARK 927      BINDING AFFINITY PREDICTED BY RF-SCORE:    0.00 PKD
ROOT
HETATM    1  C   UNL     1      -9.434   3.945  68.434  1.00  0.00    -0.210 C  
HETATM    2  C   UNL     1      -9.774   5.451  68.537  1.00  0.00    -0.183 C  
HETATM    3  C   UNL     1     -10.460   5.825  67.205  1.00  0.00    -0.337 C  
HETATM    4  C   UNL     1     -10.607   5.807  69.796  1.00  0.00    -0.388 C  
HETATM    5  C   UNL     1      -9.619   5.480  70.953  1.00  0.00    -0.219 C  
HETATM    6  C   UNL     1      -8.217   5.825  70.361  1.00  0.00    -0.107 C  
HETATM    7  C   UNL     1      -8.565   6.371  68.955  1.00  0.00    -0.123 C  
HETATM    8  C   UNL     1     -11.726   8.155  69.837  1.00  0.00     0.410 C  
HETATM    9  C   UNL     1      -9.284   7.670  69.297  1.00  0.00    -0.145 C  
HETATM   10  O   UNL     1      -8.755   8.761  69.423  1.00  0.00    -0.137 OA 
HETATM   11  C   UNL     1     -10.687   7.321  69.697  1.00  0.00    -0.249 C  
ENDROOT
BRANCH   7  12
HETATM   12  C   UNL     1      -7.475   6.500  67.907  1.00  0.00    -0.094 C  
HETATM   13  S   UNL     1      -5.956   5.591  68.158  1.00  0.00    -0.018 S  
HETATM   14  O   UNL     1      -5.137   5.781  66.978  1.00  0.00    -0.004 OA 
HETATM   15  O   UNL     1      -6.255   4.279  68.673  1.00  0.00    -0.030 OA 
HETATM   16  O   UNL     1      -5.288   6.459  69.341  1.00  0.00    -0.012 OA 
ENDBRANCH   7  12
BRANCH   8  17
HETATM   17  C   UNL     1     -11.602   9.610  69.691  1.00  0.00     0.030 A  
HETATM   18  C   UNL     1     -11.861  10.473  70.763  1.00  0.00    -0.465 A  
HETATM   19  C   UNL     1     -11.877  11.860  70.562  1.00  0.00    -0.253 A  
HETATM   20  C   UNL     1     -11.638  12.396  69.292  1.00  0.00    -0.379 A  
HETATM   21  C   UNL     1     -11.317  10.150  68.430  1.00  0.00    -0.179 A  
HETATM   22  C   UNL     1     -11.333  11.535  68.233  1.00  0.00    -0.352 A  
BRANCH  20  23
HETATM   23  C   UNL     1     -11.746  13.837  69.065  1.00  0.00    -0.372 C  
HETATM   24  C   UNL     1     -10.793  14.554  68.468  1.00  0.00    -0.256 C  
HETATM   25  C   UNL     1      -9.442  14.189  67.905  1.00  0.00    -0.211 C  
HETATM   26  C   UNL     1      -9.599  14.269  66.371  1.00  0.00    -0.317 C  
HETATM   27  C   UNL     1      -9.707  15.793  66.095  1.00  0.00    -0.351 C  
HETATM   28  C   UNL     1      -9.574  16.432  67.504  1.00  0.00    -0.227 C  
HETATM   29  C   UNL     1      -8.589  15.447  68.235  1.00  0.00    -0.158 C  
HETATM   30  C   UNL     1      -7.166  15.380  67.646  1.00  0.00    -0.206 C  
HETATM   31  C   UNL     1     -10.862  16.039  68.224  1.00  0.00    -0.319 C  
HETATM   32  O   UNL     1     -11.773  16.764  68.572  1.00  0.00     0.015 OA 
HETATM   33  C   UNL     1      -8.419  15.721  69.749  1.00  0.00     0.136 C  
BRANCH  28  34
HETATM   34  C   UNL     1      -9.180  17.893  67.573  1.00  0.00    -0.249 C  
HETATM   35  S   UNL     1     -10.372  19.058  66.928  1.00  0.00    -0.435 S  
HETATM   36  O   UNL     1     -10.553  18.841  65.509  1.00  0.00    -0.596 OA 
HETATM   37  O   UNL     1      -9.425  20.368  67.024  1.00  0.00    -0.399 OA 
HETATM   38  O   UNL     1     -11.473  19.284  67.828  1.00  0.00     0.138 OA 
ENDBRANCH  28  34
ENDBRANCH  20  23
ENDBRANCH   8  17
TORSDOF 4
ENDMDL
MODEL       49
REMARK 921   NORMALIZED FREE ENERGY PREDICTED BY IDOCK:   -4.99 KCAL/MOL
REMARK 922        TOTAL FREE ENERGY PREDICTED BY IDOCK:   -6.65 KCAL/MOL
REMARK 923 INTER-LIGAND FREE ENERGY PREDICTED BY IDOCK:   -8.86 KCAL/MOL
REMARK 924 INTRA-LIGAND FREE ENERGY PREDICTED BY IDOCK:    2.21 KCAL/MOL
REMARK 927      BINDING AFFINITY PREDICTED BY RF-SCORE:    0.00 PKD
ROOT
HETATM    1  C   UNL     1     -10.448   4.857  70.840  1.00  0.00    -0.162 C  
HETATM    2  C   UNL     1     -10.712   6.359  70.578  1.00  0.00    -0.311 C  
HETATM    3  C   UNL     1     -11.053   6.475  69.077  1.00  0.00    -0.375 C  
HETATM    4  C   UNL     1     -11.786   6.966  71.518  1.00  0.00    -0.366 C  
HETATM    5  C   UNL     1     -11.108   6.857  72.914  1.00  0.00    -0.297 C  
HETATM    6  C   UNL     1      -9.591   7.059  72.614  1.00  0.00    -0.165 C  
HETATM    7  C   UNL     1      -9.577   7.324  71.089  1.00  0.00    -0.160 C  
HETATM    8  C   UNL     1     -12.743   9.293  70.856  1.00  0.00    -0.124 C  
HETATM    9  C   UNL     1     -10.275   8.676  71.004  1.00  0.00    -0.220 C  
HETATM   10  O   UNL     1      -9.725   9.763  71.046  1.00  0.00    -0.098 OA 
HETATM   11  C   UNL     1     -11.750   8.432  71.122  1.00  0.00    -0.315 C  
ENDROOT
BRANCH   7  12
HETATM   12  C   UNL     1      -8.272   7.231  70.321  1.00  0.00    -0.133 C  
HETATM   13  S   UNL     1      -8.255   7.783  68.620  1.00  0.00    -0.129 S  
HETATM   14  O   UNL     1      -6.886   7.707  68.152  1.00  0.00    -0.060 OA 
HETATM   15  O   UNL     1      -9.036   8.988  68.494  1.00  0.00    -0.133 OA 
HETATM   16  O   UNL     1      -9.063   6.580  67.913  1.00  0.00    -0.116 OA 
ENDBRANCH   7  12
BRANCH   8  17
HETATM   17  C   UNL     1     -12.502  10.690  70.475  1.00  0.00    -0.445 A  
HETATM   18  C   UNL     1     -11.960  11.020  69.227  1.00  0.00    -0.410 A  
HETATM   19  C   UNL     1     -11.606  12.346  68.941  1.00  0.00    -0.364 A  
HETATM   20  C   UNL     1     -11.785  13.350  69.898  1.00  0.00    -0.337 A  
HETATM   21  C   UNL     1     -12.724  11.705  71.415  1.00  0.00    -0.445 A  
HETATM   22  C   UNL     1     -12.370  13.027  71.127  1.00  0.00    -0.270 A  
BRANCH  20  23
HETATM   23  C   UNL     1     -11.330  14.714  69.633  1.00  0.00    -0.317 C  
HETATM   24  C   UNL     1     -10.178  14.993  69.022  1.00  0.00    -0.242 C  
HETATM   25  C   UNL     1      -9.075  14.120  68.475  1.00  0.00    -0.176 C  
HETATM   26  C   UNL     1      -9.198  14.215  66.939  1.00  0.00    -0.270 C  
HETATM   27  C   UNL     1      -8.710  15.655  66.623  1.00  0.00    -0.333 C  
HETATM   28  C   UNL     1      -8.334  16.229  68.016  1.00  0.00    -0.165 C  
HETATM   29  C   UNL     1      -7.801  14.960  68.777  1.00  0.00    -0.149 C  
HETATM   30  C   UNL     1      -6.517  14.334  68.197  1.00  0.00    -0.135 C  
HETATM   31  C   UNL     1      -9.669  16.383  68.740  1.00  0.00    -0.250 C  
HETATM   32  O   UNL     1     -10.228  17.411  69.064  1.00  0.00    -0.330 OA 
HETATM   33  C   UNL     1      -7.531  15.186  70.284  1.00  0.00     0.391 C  
BRANCH  28  34
HETATM   34  C   UNL     1      -7.406  17.427  68.050  1.00  0.00    -0.195 C  
HETATM   35  S   UNL     1      -6.430  17.704  66.580  1.00  0.00    -0.246 S  
HETATM   36  O   UNL     1      -5.518  16.598  66.379  1.00  0.00    -0.322 OA 
HETATM   37  O   UNL     1      -5.508  18.888  67.187  1.00  0.00    -0.150 OA 
HETATM   38  O   UNL     1      -7.191  18.289  65.507  1.00  0.00    -0.536 OA 
ENDBRANCH  28  34
ENDBRANCH  20  23
ENDBRANCH   8  17
TORSDOF 4
ENDMDL
MODEL       50
REMARK 921   NORMALIZED FREE ENERGY PREDICTED BY IDOCK:   -4.99 KCAL/MOL
REMARK 922        TOTAL FREE ENERGY PREDICTED BY IDOCK:   -6.65 KCAL/MOL
REMARK 923 INTER-LIGAND FREE ENERGY PREDICTED BY IDOCK:   -6.82 KCAL/MOL
REMARK 924 INTRA-LIGAND FREE ENERGY PREDICTED BY IDOCK:    0.18 KCAL/MOL
REMARK 927      BINDING AFFINITY PREDICTED BY RF-SCORE:    0.00 PKD
ROOT
HETATM    1  C   UNL     1      -9.876  20.094  68.292  1.00  0.00    -0.415 C  
HETATM    2  C   UNL     1      -9.855  18.557  68.114  1.00  0.00    -0.376 C  
HETATM    3  C   UNL     1      -9.609  17.968  69.519  1.00  0.00     0.386 C  
HETATM    4  C   UNL     1     -11.125  18.005  67.412  1.00  0.00     0.100 C  
HETATM    5  C   UNL     1     -11.021  18.633  65.993  1.00  0.00     0.095 C  
HETATM    6  C   UNL     1      -9.487  18.697  65.718  1.00  0.00     0.354 C  
HETATM    7  C   UNL     1      -8.886  18.040  66.985  1.00  0.00    -0.259 C  
HETATM    8  C   UNL     1     -11.507  15.435  67.533  1.00  0.00    -0.228 C  
HETATM    9  C   UNL     1      -9.350  16.596  66.833  1.00  0.00    -0.231 C  
HETATM   10  O   UNL     1      -8.735  15.710  66.265  1.00  0.00    -0.307 OA 
HETATM   11  C   UNL     1     -10.783  16.532  67.270  1.00  0.00    -0.243 C  
ENDROOT
BRANCH   7  12
HETATM   12  C   UNL     1      -7.410  18.207  67.292  1.00  0.00    -0.206 C  
HETATM   13  S   UNL     1      -6.471  19.365  66.302  1.00  0.00    -0.196 S  
HETATM   14  O   UNL     1      -5.137  19.433  66.863  1.00  0.00    -0.155 OA 
HETATM   15  O   UNL     1      -7.259  20.549  66.065  1.00  0.00    -0.221 OA 
HETATM   16  O   UNL     1      -6.362  18.545  64.918  1.00  0.00    -0.438 OA 
ENDBRANCH   7  12
BRANCH   8  17
HETATM   17  C   UNL     1     -10.989  14.075  67.337  1.00  0.00    -0.302 A  
HETATM   18  C   UNL     1     -11.722  13.112  66.633  1.00  0.00    -0.427 A  
HETATM   19  C   UNL     1     -11.275  11.785  66.583  1.00  0.00    -0.383 A  
HETATM   20  C   UNL     1     -10.097  11.408  67.235  1.00  0.00    -0.218 A  
HETATM   21  C   UNL     1      -9.785  13.706  67.950  1.00  0.00    -0.234 A  
HETATM   22  C   UNL     1      -9.341  12.380  67.898  1.00  0.00    -0.195 A  
BRANCH  20  23
HETATM   23  C   UNL     1      -9.681  10.007  67.259  1.00  0.00    -0.206 C  
HETATM   24  C   UNL     1      -9.661   9.270  68.370  1.00  0.00    -0.168 C  
HETATM   25  C   UNL     1     -10.000   9.582  69.807  1.00  0.00    -0.234 C  
HETATM   26  C   UNL     1     -11.330   8.849  70.086  1.00  0.00    -0.119 C  
HETATM   27  C   UNL     1     -10.919   7.352  70.127  1.00  0.00    -0.272 C  
HETATM   28  C   UNL     1      -9.384   7.386  69.892  1.00  0.00    -0.154 C  
HETATM   29  C   UNL     1      -8.961   8.731  70.590  1.00  0.00    -0.219 C  
HETATM   30  C   UNL     1      -9.173   8.776  72.117  1.00  0.00    -0.248 C  
HETATM   31  C   UNL     1      -9.230   7.828  68.439  1.00  0.00    -0.137 C  
HETATM   32  O   UNL     1      -8.817   7.177  67.501  1.00  0.00    -0.120 OA 
HETATM   33  C   UNL     1      -7.488   9.141  70.345  1.00  0.00    -0.107 C  
BRANCH  28  34
HETATM   34  C   UNL     1      -8.586   6.170  70.316  1.00  0.00    -0.140 C  
HETATM   35  S   UNL     1      -9.535   4.715  70.731  1.00  0.00    -0.182 S  
HETATM   36  O   UNL     1     -10.358   4.979  71.891  1.00  0.00    -0.202 OA 
HETATM   37  O   UNL     1      -8.298   3.838  71.298  1.00  0.00    -0.070 OA 
HETATM   38  O   UNL     1     -10.027   4.021  69.569  1.00  0.00    -0.145 OA 
ENDBRANCH  28  34
ENDBRANCH  20  23
ENDBRANCH   8  17
TORSDOF 4
ENDMDL
MODEL       51
REMARK 921   NORMALIZED FREE ENERGY PREDICTED BY IDOCK:   -4.86 KCAL/MOL
REMARK 922        TOTAL FREE ENERGY PREDICTED BY IDOCK:   -6.49 KCAL/MOL
REMARK 923 INTER-LIGAND FREE ENERGY PREDICTED BY IDOCK:   -6.17 KCAL/MOL
REMARK 924 INTRA-LIGAND FREE ENERGY PREDICTED BY IDOCK:   -0.32 KCAL/MOL
REMARK 927      BINDING AFFINITY PREDICTED BY RF-SCORE:    0.00 PKD
ROOT
HETATM    1  C   UNL     1     -10.783  17.499  66.781  1.00  0.00    -0.109 C  
HETATM    2  C   UNL     1     -10.323  16.055  67.091  1.00  0.00    -0.295 C  
HETATM    3  C   UNL     1     -11.015  15.153  66.047  1.00  0.00    -0.332 C  
HETATM    4  C   UNL     1      -8.780  15.899  67.134  1.00  0.00    -0.223 C  
HETATM    5  C   UNL     1      -8.390  16.778  68.358  1.00  0.00    -0.222 C  
HETATM    6  C   UNL     1      -9.593  16.617  69.337  1.00  0.00    -0.057 C  
HETATM    7  C   UNL     1     -10.508  15.614  68.592  1.00  0.00    -0.231 C  
HETATM    8  C   UNL     1      -7.844  13.473  67.086  1.00  0.00    -0.025 C  
HETATM    9  C   UNL     1      -9.671  14.342  68.635  1.00  0.00    -0.216 C  
HETATM   10  O   UNL     1      -9.711  13.496  69.511  1.00  0.00     0.610 OA 
HETATM   11  C   UNL     1      -8.627  14.450  67.563  1.00  0.00    -0.199 C  
ENDROOT
BRANCH   7  12
HETATM   12  C   UNL     1     -11.951  15.444  69.029  1.00  0.00    -0.288 C  
HETATM   13  S   UNL     1     -12.319  15.552  70.776  1.00  0.00    -0.426 S  
HETATM   14  O   UNL     1     -13.759  15.481  70.921  1.00  0.00    -0.524 OA 
HETATM   15  O   UNL     1     -11.547  16.615  71.369  1.00  0.00    -0.271 OA 
HETATM   16  O   UNL     1     -11.721  14.146  71.289  1.00  0.00    -0.199 OA 
ENDBRANCH   7  12
BRANCH   8  17
HETATM   17  C   UNL     1      -7.847  12.112  67.637  1.00  0.00    -0.153 A  
HETATM   18  C   UNL     1      -7.099  11.787  68.775  1.00  0.00    -0.111 A  
HETATM   19  C   UNL     1      -7.002  10.454  69.197  1.00  0.00    -0.071 A  
HETATM   20  C   UNL     1      -7.648   9.437  68.488  1.00  0.00    -0.081 A  
HETATM   21  C   UNL     1      -8.531  11.098  66.955  1.00  0.00    -0.147 A  
HETATM   22  C   UNL     1      -8.433   9.768  67.379  1.00  0.00    -0.121 A  
BRANCH  20  23
HETATM   23  C   UNL     1      -7.471   8.038  68.875  1.00  0.00    -0.093 C  
HETATM   24  C   UNL     1      -8.133   7.471  69.884  1.00  0.00    -0.129 C  
HETATM   25  C   UNL     1      -9.149   8.003  70.865  1.00  0.00    -0.161 C  
HETATM   26  C   UNL     1     -10.495   7.374  70.446  1.00  0.00    -0.230 C  
HETATM   27  C   UNL     1     -10.343   5.883  70.854  1.00  0.00    -0.288 C  
HETATM   28  C   UNL     1      -8.928   5.819  71.490  1.00  0.00    -0.146 C  
HETATM   29  C   UNL     1      -8.794   7.232  72.168  1.00  0.00    -0.143 C  
HETATM   30  C   UNL     1      -9.782   7.509  73.319  1.00  0.00    -0.326 C  
HETATM   31  C   UNL     1      -7.972   6.038  70.320  1.00  0.00    -0.107 C  
HETATM   32  O   UNL     1      -7.199   5.240  69.829  1.00  0.00    -0.060 OA 
HETATM   33  C   UNL     1      -7.383   7.541  72.725  1.00  0.00    -0.090 C  
BRANCH  28  34
HETATM   34  C   UNL     1      -8.624   4.645  72.400  1.00  0.00    -0.115 C  
HETATM   35  S   UNL     1      -9.949   3.470  72.633  1.00  0.00    -0.166 S  
HETATM   36  O   UNL     1     -11.064   4.111  73.296  1.00  0.00    -0.225 OA 
HETATM   37  O   UNL     1      -9.228   2.600  73.792  1.00  0.00    -0.080 OA 
HETATM   38  O   UNL     1     -10.116   2.589  71.506  1.00  0.00    -0.120 OA 
ENDBRANCH  28  34
ENDBRANCH  20  23
ENDBRANCH   8  17
TORSDOF 4
ENDMDL
MODEL       52
REMARK 921   NORMALIZED FREE ENERGY PREDICTED BY IDOCK:   -4.75 KCAL/MOL
REMARK 922        TOTAL FREE ENERGY PREDICTED BY IDOCK:   -6.35 KCAL/MOL
REMARK 923 INTER-LIGAND FREE ENERGY PREDICTED BY IDOCK:   -5.75 KCAL/MOL
REMARK 924 INTRA-LIGAND FREE ENERGY PREDICTED BY IDOCK:   -0.60 KCAL/MOL
REMARK 927      BINDING AFFINITY PREDICTED BY RF-SCORE:    0.00 PKD
ROOT
HETATM    1  C   UNL     1      -7.169  20.275  66.704  1.00  0.00    -0.307 C  
HETATM    2  C   UNL     1      -6.860  18.793  67.022  1.00  0.00    -0.211 C  
HETATM    3  C   UNL     1      -5.824  18.339  65.971  1.00  0.00    -0.231 C  
HETATM    4  C   UNL     1      -6.412  18.562  68.489  1.00  0.00    -0.239 C  
HETATM    5  C   UNL     1      -7.688  18.947  69.291  1.00  0.00    -0.074 C  
HETATM    6  C   UNL     1      -8.864  18.513  68.363  1.00  0.00    -0.346 C  
HETATM    7  C   UNL     1      -8.129  17.872  67.160  1.00  0.00    -0.225 C  
HETATM    8  C   UNL     1      -5.331  16.260  69.037  1.00  0.00    -0.110 C  
HETATM    9  C   UNL     1      -7.526  16.626  67.796  1.00  0.00    -0.155 C  
HETATM   10  O   UNL     1      -8.060  15.532  67.860  1.00  0.00    -0.133 OA 
HETATM   11  C   UNL     1      -6.295  17.048  68.542  1.00  0.00    -0.154 C  
ENDROOT
BRANCH   7  12
HETATM   12  C   UNL     1      -8.879  17.628  65.864  1.00  0.00     0.123 C  
HETATM   13  S   UNL     1     -10.656  17.438  65.942  1.00  0.00    -0.085 S  
HETATM   14  O   UNL     1     -11.143  17.341  64.581  1.00  0.00    -1.052 OA 
HETATM   15  O   UNL     1     -11.203  18.387  66.880  1.00  0.00     0.096 OA 
HETATM   16  O   UNL     1     -10.765  15.966  66.591  1.00  0.00    -0.316 OA 
ENDBRANCH   7  12
BRANCH   8  17
HETATM   17  C   UNL     1      -5.397  14.795  68.983  1.00  0.00    -0.093 A  
HETATM   18  C   UNL     1      -5.147  14.098  67.795  1.00  0.00     0.016 A  
HETATM   19  C   UNL     1      -5.357  12.714  67.733  1.00  0.00    -0.112 A  
HETATM   20  C   UNL     1      -5.820  12.015  68.852  1.00  0.00    -0.053 A  
HETATM   21  C   UNL     1      -5.816  14.086  70.117  1.00  0.00    -0.142 A  
HETATM   22  C   UNL     1      -6.024  12.704  70.052  1.00  0.00    -0.145 A  
BRANCH  20  23
HETATM   23  C   UNL     1      -6.126  10.588  68.760  1.00  0.00    -0.040 C  
HETATM   24  C   UNL     1      -7.367  10.115  68.641  1.00  0.00    -0.082 C  
HETATM   25  C   UNL     1      -8.716  10.789  68.583  1.00  0.00    -0.152 C  
HETATM   26  C   UNL     1      -9.185  10.648  67.119  1.00  0.00    -0.161 C  
HETATM   27  C   UNL     1      -9.528   9.139  66.991  1.00  0.00    -0.201 C  
HETATM   28  C   UNL     1      -9.242   8.575  68.409  1.00  0.00    -0.135 C  
HETATM   29  C   UNL     1      -9.627   9.783  69.341  1.00  0.00    -0.218 C  
HETATM   30  C   UNL     1     -11.115  10.184  69.319  1.00  0.00    -0.270 C  
HETATM   31  C   UNL     1      -7.724   8.654  68.553  1.00  0.00    -0.100 C  
HETATM   32  O   UNL     1      -6.932   7.735  68.614  1.00  0.00    -0.064 OA 
HETATM   33  C   UNL     1      -9.254   9.583  70.830  1.00  0.00    -0.125 C  
BRANCH  28  34
HETATM   34  C   UNL     1      -9.888   7.255  68.778  1.00  0.00    -0.161 C  
HETATM   35  S   UNL     1     -10.138   6.102  67.437  1.00  0.00    -0.179 S  
HETATM   36  O   UNL     1     -11.069   6.657  66.479  1.00  0.00    -0.135 OA 
HETATM   37  O   UNL     1     -11.008   5.024  68.275  1.00  0.00     0.332 OA 
HETATM   38  O   UNL     1      -8.926   5.431  67.046  1.00  0.00    -0.114 OA 
ENDBRANCH  28  34
ENDBRANCH  20  23
ENDBRANCH   8  17
TORSDOF 4
ENDMDL
MODEL       53
REMARK 921   NORMALIZED FREE ENERGY PREDICTED BY IDOCK:   -4.74 KCAL/MOL
REMARK 922        TOTAL FREE ENERGY PREDICTED BY IDOCK:   -6.34 KCAL/MOL
REMARK 923 INTER-LIGAND FREE ENERGY PREDICTED BY IDOCK:   -6.83 KCAL/MOL
REMARK 924 INTRA-LIGAND FREE ENERGY PREDICTED BY IDOCK:    0.48 KCAL/MOL
REMARK 927      BINDING AFFINITY PREDICTED BY RF-SCORE:    0.00 PKD
ROOT
HETATM    1  C   UNL     1     -12.505  16.558  72.903  1.00  0.00    -0.220 C  
HETATM    2  C   UNL     1     -12.354  15.055  72.566  1.00  0.00    -0.445 C  
HETATM    3  C   UNL     1     -11.422  14.468  73.647  1.00  0.00     0.807 C  
HETATM    4  C   UNL     1     -13.713  14.318  72.436  1.00  0.00    -0.616 C  
HETATM    5  C   UNL     1     -14.348  15.005  71.194  1.00  0.00    -0.379 C  
HETATM    6  C   UNL     1     -13.128  15.342  70.283  1.00  0.00    -0.111 C  
HETATM    7  C   UNL     1     -11.936  14.754  71.078  1.00  0.00    -0.389 C  
HETATM    8  C   UNL     1     -13.640  11.717  72.430  1.00  0.00     0.134 C  
HETATM    9  C   UNL     1     -12.214  13.259  70.987  1.00  0.00    -0.197 C  
HETATM   10  O   UNL     1     -11.804  12.513  70.114  1.00  0.00    -0.324 OA 
HETATM   11  C   UNL     1     -13.272  12.932  71.999  1.00  0.00    -0.549 C  
ENDROOT
BRANCH   7  12
HETATM   12  C   UNL     1     -10.519  15.164  70.723  1.00  0.00     0.158 C  
HETATM   13  S   UNL     1     -10.235  15.908  69.121  1.00  0.00    -0.253 S  
HETATM   14  O   UNL     1      -8.846  16.316  69.073  1.00  0.00    -0.238 OA 
HETATM   15  O   UNL     1     -11.307  16.822  68.815  1.00  0.00    -0.221 OA 
HETATM   16  O   UNL     1     -10.383  14.617  68.167  1.00  0.00    -0.225 OA 
ENDBRANCH   7  12
BRANCH   8  17
HETATM   17  C   UNL     1     -13.083  10.476  71.879  1.00  0.00    -0.567 A  
HETATM   18  C   UNL     1     -13.908   9.397  71.538  1.00  0.00    -0.297 A  
HETATM   19  C   UNL     1     -13.344   8.174  71.151  1.00  0.00    -0.047 A  
HETATM   20  C   UNL     1     -11.956   8.016  71.104  1.00  0.00    -0.297 A  
HETATM   21  C   UNL     1     -11.693  10.330  71.787  1.00  0.00     0.210 A  
HETATM   22  C   UNL     1     -11.133   9.108  71.399  1.00  0.00    -0.415 A  
BRANCH  20  23
HETATM   23  C   UNL     1     -11.369   6.715  70.789  1.00  0.00    -0.389 C  
HETATM   24  C   UNL     1     -10.477   6.533  69.815  1.00  0.00    -0.256 C  
HETATM   25  C   UNL     1      -9.851   7.473  68.815  1.00  0.00    -0.166 C  
HETATM   26  C   UNL     1      -8.388   7.652  69.276  1.00  0.00    -0.134 C  
HETATM   27  C   UNL     1      -7.733   6.284  68.945  1.00  0.00    -0.097 C  
HETATM   28  C   UNL     1      -8.888   5.469  68.303  1.00  0.00    -0.104 C  
HETATM   29  C   UNL     1      -9.713   6.578  67.552  1.00  0.00    -0.141 C  
HETATM   30  C   UNL     1      -8.973   7.279  66.395  1.00  0.00    -0.184 C  
HETATM   31  C   UNL     1      -9.857   5.207  69.454  1.00  0.00    -0.199 C  
HETATM   32  O   UNL     1     -10.121   4.145  69.981  1.00  0.00    -0.159 OA 
HETATM   33  C   UNL     1     -11.060   6.086  66.969  1.00  0.00    -0.263 C  
BRANCH  28  34
HETATM   34  C   UNL     1      -8.510   4.272  67.455  1.00  0.00    -0.099 C  
HETATM   35  S   UNL     1      -6.806   3.744  67.558  1.00  0.00    -0.055 S  
HETATM   36  O   UNL     1      -5.937   4.784  67.051  1.00  0.00    -0.025 OA 
HETATM   37  O   UNL     1      -6.875   2.652  66.365  1.00  0.00    -0.042 OA 
HETATM   38  O   UNL     1      -6.522   3.012  68.765  1.00  0.00    -0.029 OA 
ENDBRANCH  28  34
ENDBRANCH  20  23
ENDBRANCH   8  17
TORSDOF 4
ENDMDL
MODEL       54
REMARK 921   NORMALIZED FREE ENERGY PREDICTED BY IDOCK:   -4.72 KCAL/MOL
REMARK 922        TOTAL FREE ENERGY PREDICTED BY IDOCK:   -6.31 KCAL/MOL
REMARK 923 INTER-LIGAND FREE ENERGY PREDICTED BY IDOCK:   -6.44 KCAL/MOL
REMARK 924 INTRA-LIGAND FREE ENERGY PREDICTED BY IDOCK:    0.14 KCAL/MOL
REMARK 927      BINDING AFFINITY PREDICTED BY RF-SCORE:    0.00 PKD
ROOT
HETATM    1  C   UNL     1      -8.630   4.012  69.019  1.00  0.00    -0.113 C  
HETATM    2  C   UNL     1      -8.424   5.545  69.059  1.00  0.00    -0.101 C  
HETATM    3  C   UNL     1      -6.929   5.766  69.371  1.00  0.00    -0.063 C  
HETATM    4  C   UNL     1      -8.913   6.262  67.773  1.00  0.00    -0.112 C  
HETATM    5  C   UNL     1     -10.447   6.004  67.810  1.00  0.00    -0.300 C  
HETATM    6  C   UNL     1     -10.793   5.999  69.331  1.00  0.00    -0.433 C  
HETATM    7  C   UNL     1      -9.430   6.318  69.992  1.00  0.00    -0.167 C  
HETATM    8  C   UNL     1      -8.145   8.725  67.441  1.00  0.00    -0.105 C  
HETATM    9  C   UNL     1      -9.201   7.758  69.548  1.00  0.00    -0.149 C  
HETATM   10  O   UNL     1      -9.558   8.753  70.155  1.00  0.00    -0.163 OA 
HETATM   11  C   UNL     1      -8.702   7.722  68.134  1.00  0.00    -0.126 C  
ENDROOT
BRANCH   7  12
HETATM   12  C   UNL     1      -9.237   6.069  71.476  1.00  0.00    -0.143 C  
HETATM   13  S   UNL     1     -10.695   5.917  72.500  1.00  0.00    -0.249 S  
HETATM   14  O   UNL     1     -10.254   5.565  73.835  1.00  0.00    -0.199 OA 
HETATM   15  O   UNL     1     -11.698   5.150  71.804  1.00  0.00     0.369 OA 
HETATM   16  O   UNL     1     -11.179   7.454  72.552  1.00  0.00    -0.277 OA 
ENDBRANCH   7  12
BRANCH   8  17
HETATM   17  C   UNL     1      -8.022  10.087  67.974  1.00  0.00    -0.101 A  
HETATM   18  C   UNL     1      -9.050  11.024  67.820  1.00  0.00    -0.147 A  
HETATM   19  C   UNL     1      -8.853  12.357  68.209  1.00  0.00    -0.174 A  
HETATM   20  C   UNL     1      -7.629  12.764  68.750  1.00  0.00    -0.025 A  
HETATM   21  C   UNL     1      -6.813  10.486  68.559  1.00  0.00    -0.064 A  
HETATM   22  C   UNL     1      -6.619  11.817  68.946  1.00  0.00    -0.082 A  
BRANCH  20  23
HETATM   23  C   UNL     1      -7.393  14.171  69.069  1.00  0.00    -0.102 C  
HETATM   24  C   UNL     1      -8.154  15.162  68.602  1.00  0.00    -0.154 C  
HETATM   25  C   UNL     1      -9.355  15.185  67.690  1.00  0.00    -0.189 C  
HETATM   26  C   UNL     1     -10.557  15.522  68.599  1.00  0.00    -0.243 C  
HETATM   27  C   UNL     1     -10.340  17.019  68.949  1.00  0.00    -0.337 C  
HETATM   28  C   UNL     1      -9.044  17.392  68.180  1.00  0.00    -0.267 C  
HETATM   29  C   UNL     1      -9.144  16.500  66.888  1.00  0.00    -0.241 C  
HETATM   30  C   UNL     1     -10.323  16.828  65.950  1.00  0.00    -0.341 C  
HETATM   31  C   UNL     1      -7.938  16.624  68.899  1.00  0.00    -0.236 C  
HETATM   32  O   UNL     1      -7.029  17.075  69.567  1.00  0.00    -0.204 OA 
HETATM   33  C   UNL     1      -7.872  16.509  66.005  1.00  0.00     0.080 C  
BRANCH  28  34
HETATM   34  C   UNL     1      -8.785  18.862  67.920  1.00  0.00    -0.298 C  
HETATM   35  S   UNL     1     -10.207  19.939  68.025  1.00  0.00    -0.413 S  
HETATM   36  O   UNL     1     -11.163  19.594  66.995  1.00  0.00    -0.319 OA 
HETATM   37  O   UNL     1      -9.474  21.273  67.473  1.00  0.00    -0.205 OA 
HETATM   38  O   UNL     1     -10.593  20.219  69.384  1.00  0.00    -0.047 OA 
ENDBRANCH  28  34
ENDBRANCH  20  23
ENDBRANCH   8  17
TORSDOF 4
ENDMDL
MODEL       55
REMARK 921   NORMALIZED FREE ENERGY PREDICTED BY IDOCK:   -4.70 KCAL/MOL
REMARK 922        TOTAL FREE ENERGY PREDICTED BY IDOCK:   -6.28 KCAL/MOL
REMARK 923 INTER-LIGAND FREE ENERGY PREDICTED BY IDOCK:   -6.92 KCAL/MOL
REMARK 924 INTRA-LIGAND FREE ENERGY PREDICTED BY IDOCK:    0.64 KCAL/MOL
REMARK 927      BINDING AFFINITY PREDICTED BY RF-SCORE:    0.00 PKD
ROOT
HETATM    1  C   UNL     1     -11.518  16.037  65.044  1.00  0.00    -0.036 C  
HETATM    2  C   UNL     1     -11.123  14.799  65.882  1.00  0.00    -0.340 C  
HETATM    3  C   UNL     1     -12.186  13.722  65.579  1.00  0.00    -0.470 C  
HETATM    4  C   UNL     1      -9.664  14.331  65.635  1.00  0.00    -0.238 C  
HETATM    5  C   UNL     1      -8.833  15.532  66.172  1.00  0.00    -0.273 C  
HETATM    6  C   UNL     1      -9.683  16.079  67.359  1.00  0.00    -0.232 C  
HETATM    7  C   UNL     1     -10.875  15.091  67.410  1.00  0.00    -0.305 C  
HETATM    8  C   UNL     1      -9.023  11.971  66.521  1.00  0.00    -0.193 C  
HETATM    9  C   UNL     1     -10.189  13.804  67.852  1.00  0.00    -0.245 C  
HETATM   10  O   UNL     1     -10.036  13.442  69.006  1.00  0.00    -0.059 OA 
HETATM   11  C   UNL     1      -9.523  13.208  66.648  1.00  0.00    -0.260 C  
ENDROOT
BRANCH   7  12
HETATM   12  C   UNL     1     -12.121  15.454  68.196  1.00  0.00     0.128 C  
HETATM   13  S   UNL     1     -12.013  15.473  69.981  1.00  0.00    -0.367 S  
HETATM   14  O   UNL     1     -13.280  15.962  70.487  1.00  0.00    -0.384 OA 
HETATM   15  O   UNL     1     -10.758  16.054  70.385  1.00  0.00    -0.295 OA 
HETATM   16  O   UNL     1     -11.960  13.891  70.288  1.00  0.00    -0.306 OA 
ENDBRANCH   7  12
BRANCH   8  17
HETATM   17  C   UNL     1      -8.984  11.012  67.633  1.00  0.00    -0.142 A  
HETATM   18  C   UNL     1     -10.104  10.242  67.968  1.00  0.00    -0.189 A  
HETATM   19  C   UNL     1     -10.088   9.442  69.119  1.00  0.00    -0.200 A  
HETATM   20  C   UNL     1      -8.960   9.407  69.944  1.00  0.00    -0.215 A  
HETATM   21  C   UNL     1      -7.838  10.940  68.434  1.00  0.00    -0.123 A  
HETATM   22  C   UNL     1      -7.825  10.140  69.582  1.00  0.00    -0.181 A  
BRANCH  20  23
HETATM   23  C   UNL     1      -8.979   8.645  71.192  1.00  0.00    -0.253 C  
HETATM   24  C   UNL     1      -8.861   7.317  71.237  1.00  0.00    -0.135 C  
HETATM   25  C   UNL     1      -8.704   6.268  70.164  1.00  0.00    -0.138 C  
HETATM   26  C   UNL     1      -7.243   5.782  70.273  1.00  0.00    -0.075 C  
HETATM   27  C   UNL     1      -7.232   4.957  71.589  1.00  0.00    -0.066 C  
HETATM   28  C   UNL     1      -8.701   5.038  72.085  1.00  0.00    -0.133 C  
HETATM   29  C   UNL     1      -9.515   5.073  70.740  1.00  0.00    -0.230 C  
HETATM   30  C   UNL     1      -9.411   3.803  69.872  1.00  0.00    -0.267 C  
HETATM   31  C   UNL     1      -8.885   6.495  72.500  1.00  0.00    -0.132 C  
HETATM   32  O   UNL     1      -9.049   6.937  73.619  1.00  0.00    -0.136 OA 
HETATM   33  C   UNL     1     -11.027   5.356  70.916  1.00  0.00    -0.119 C  
BRANCH  28  34
HETATM   34  C   UNL     1      -9.160   3.990  73.079  1.00  0.00    -0.110 C  
HETATM   35  S   UNL     1      -8.012   2.660  73.403  1.00  0.00    -0.060 S  
HETATM   36  O   UNL     1      -7.801   1.888  72.197  1.00  0.00    -0.043 OA 
HETATM   37  O   UNL     1      -9.017   1.757  74.296  1.00  0.00    -0.063 OA 
HETATM   38  O   UNL     1      -6.935   3.053  74.274  1.00  0.00    -0.038 OA 
ENDBRANCH  28  34
ENDBRANCH  20  23
ENDBRANCH   8  17
TORSDOF 4
ENDMDL
MODEL       56
REMARK 921   NORMALIZED FREE ENERGY PREDICTED BY IDOCK:   -4.64 KCAL/MOL
REMARK 922        TOTAL FREE ENERGY PREDICTED BY IDOCK:   -6.21 KCAL/MOL
REMARK 923 INTER-LIGAND FREE ENERGY PREDICTED BY IDOCK:   -6.85 KCAL/MOL
REMARK 924 INTRA-LIGAND FREE ENERGY PREDICTED BY IDOCK:    0.63 KCAL/MOL
REMARK 927      BINDING AFFINITY PREDICTED BY RF-SCORE:    0.00 PKD
ROOT
HETATM    1  C   UNL     1     -10.525  17.396  66.219  1.00  0.00    -0.276 C  
HETATM    2  C   UNL     1     -10.166  15.993  66.764  1.00  0.00    -0.275 C  
HETATM    3  C   UNL     1     -10.889  14.983  65.848  1.00  0.00    -0.339 C  
HETATM    4  C   UNL     1      -8.637  15.755  66.883  1.00  0.00    -0.279 C  
HETATM    5  C   UNL     1      -8.222  16.788  67.969  1.00  0.00    -0.192 C  
HETATM    6  C   UNL     1      -9.456  16.853  68.920  1.00  0.00    -0.241 C  
HETATM    7  C   UNL     1     -10.415  15.803  68.307  1.00  0.00    -0.259 C  
HETATM    8  C   UNL     1      -7.858  13.299  67.240  1.00  0.00    -0.118 C  
HETATM    9  C   UNL     1      -9.662  14.506  68.574  1.00  0.00    -0.224 C  
HETATM   10  O   UNL     1      -9.778  13.810  69.568  1.00  0.00     0.468 OA 
HETATM   11  C   UNL     1      -8.588  14.384  67.534  1.00  0.00    -0.199 C  
ENDROOT
BRANCH   7  12
HETATM   12  C   UNL     1     -11.876  15.790  68.716  1.00  0.00    -0.309 C  
HETATM   13  S   UNL     1     -12.265  15.514  70.440  1.00  0.00    -0.404 S  
HETATM   14  O   UNL     1     -13.698  15.667  70.591  1.00  0.00    -0.402 OA 
HETATM   15  O   UNL     1     -11.331  16.234  71.268  1.00  0.00    -0.371 OA 
HETATM   16  O   UNL     1     -11.942  13.939  70.564  1.00  0.00    -0.323 OA 
ENDBRANCH   7  12
BRANCH   8  17
HETATM   17  C   UNL     1      -7.961  12.043  67.994  1.00  0.00    -0.149 A  
HETATM   18  C   UNL     1      -8.976  11.116  67.727  1.00  0.00    -0.139 A  
HETATM   19  C   UNL     1      -9.141   9.995  68.553  1.00  0.00    -0.127 A  
HETATM   20  C   UNL     1      -8.300   9.793  69.651  1.00  0.00    -0.180 A  
HETATM   21  C   UNL     1      -7.090  11.814  69.067  1.00  0.00    -0.100 A  
HETATM   22  C   UNL     1      -7.257  10.695  69.889  1.00  0.00    -0.109 A  
BRANCH  20  23
HETATM   23  C   UNL     1      -8.531   8.675  70.564  1.00  0.00    -0.160 C  
HETATM   24  C   UNL     1      -8.702   7.419  70.150  1.00  0.00    -0.143 C  
HETATM   25  C   UNL     1      -8.732   6.790  68.779  1.00  0.00    -0.125 C  
HETATM   26  C   UNL     1      -7.414   5.994  68.662  1.00  0.00    -0.087 C  
HETATM   27  C   UNL     1      -7.633   4.788  69.617  1.00  0.00    -0.055 C  
HETATM   28  C   UNL     1      -9.069   5.009  70.164  1.00  0.00    -0.163 C  
HETATM   29  C   UNL     1      -9.802   5.675  68.942  1.00  0.00    -0.197 C  
HETATM   30  C   UNL     1      -9.940   4.785  67.691  1.00  0.00    -0.178 C  
HETATM   31  C   UNL     1      -8.952   6.242  71.057  1.00  0.00    -0.143 C  
HETATM   32  O   UNL     1      -9.062   6.301  72.265  1.00  0.00    -0.141 OA 
HETATM   33  C   UNL     1     -11.224   6.199  69.260  1.00  0.00    -0.438 C  
BRANCH  28  34
HETATM   34  C   UNL     1      -9.781   3.810  70.758  1.00  0.00    -0.165 C  
HETATM   35  S   UNL     1      -8.759   2.663  71.669  1.00  0.00    -0.075 S  
HETATM   36  O   UNL     1      -7.791   2.054  70.781  1.00  0.00    -0.039 OA 
HETATM   37  O   UNL     1      -9.893   1.526  71.878  1.00  0.00    -0.109 OA 
HETATM   38  O   UNL     1      -8.416   3.143  72.982  1.00  0.00    -0.079 OA 
ENDBRANCH  28  34
ENDBRANCH  20  23
ENDBRANCH   8  17
TORSDOF 4
ENDMDL
MODEL       57
REMARK 921   NORMALIZED FREE ENERGY PREDICTED BY IDOCK:   -4.62 KCAL/MOL
REMARK 922        TOTAL FREE ENERGY PREDICTED BY IDOCK:   -6.19 KCAL/MOL
REMARK 923 INTER-LIGAND FREE ENERGY PREDICTED BY IDOCK:   -5.88 KCAL/MOL
REMARK 924 INTRA-LIGAND FREE ENERGY PREDICTED BY IDOCK:   -0.31 KCAL/MOL
REMARK 927      BINDING AFFINITY PREDICTED BY RF-SCORE:    0.00 PKD
ROOT
HETATM    1  C   UNL     1      -5.975   4.543  70.981  1.00  0.00    -0.017 C  
HETATM    2  C   UNL     1      -6.326   5.907  70.340  1.00  0.00    -0.032 C  
HETATM    3  C   UNL     1      -5.732   6.982  71.275  1.00  0.00    -0.035 C  
HETATM    4  C   UNL     1      -5.862   6.028  68.865  1.00  0.00    -0.016 C  
HETATM    5  C   UNL     1      -6.729   4.950  68.153  1.00  0.00    -0.054 C  
HETATM    6  C   UNL     1      -8.073   4.963  68.944  1.00  0.00    -0.083 C  
HETATM    7  C   UNL     1      -7.848   6.091  69.980  1.00  0.00    -0.105 C  
HETATM    8  C   UNL     1      -5.868   8.412  67.826  1.00  0.00    -0.043 C  
HETATM    9  C   UNL     1      -7.796   7.324  69.087  1.00  0.00    -0.117 C  
HETATM   10  O   UNL     1      -8.751   8.012  68.770  1.00  0.00    -0.131 OA 
HETATM   11  C   UNL     1      -6.428   7.381  68.472  1.00  0.00    -0.041 C  
ENDROOT
BRANCH   7  12
HETATM   12  C   UNL     1      -8.773   6.209  71.178  1.00  0.00    -0.132 C  
HETATM   13  S   UNL     1     -10.287   5.257  71.167  1.00  0.00    -0.201 S  
HETATM   14  O   UNL     1     -10.926   5.444  72.454  1.00  0.00    -0.236 OA 
HETATM   15  O   UNL     1     -10.031   3.945  70.628  1.00  0.00    -0.173 OA 
HETATM   16  O   UNL     1     -11.148   6.089  70.087  1.00  0.00    -0.338 OA 
ENDBRANCH   7  12
BRANCH   8  17
HETATM   17  C   UNL     1      -6.588   9.661  67.545  1.00  0.00    -0.070 A  
HETATM   18  C   UNL     1      -6.829  10.603  68.552  1.00  0.00    -0.065 A  
HETATM   19  C   UNL     1      -7.641  11.716  68.295  1.00  0.00    -0.120 A  
HETATM   20  C   UNL     1      -8.220  11.896  67.035  1.00  0.00    -0.170 A  
HETATM   21  C   UNL     1      -7.130   9.867  66.270  1.00  0.00    -0.101 A  
HETATM   22  C   UNL     1      -7.940  10.979  66.016  1.00  0.00    -0.094 A  
BRANCH  20  23
HETATM   23  C   UNL     1      -9.140  13.007  66.795  1.00  0.00    -0.212 C  
HETATM   24  C   UNL     1      -8.870  14.266  67.143  1.00  0.00    -0.243 C  
HETATM   25  C   UNL     1      -7.687  14.904  67.829  1.00  0.00    -0.174 C  
HETATM   26  C   UNL     1      -6.956  15.705  66.730  1.00  0.00     0.282 C  
HETATM   27  C   UNL     1      -7.907  16.903  66.458  1.00  0.00    -0.330 C  
HETATM   28  C   UNL     1      -9.077  16.675  67.453  1.00  0.00    -0.206 C  
HETATM   29  C   UNL     1      -8.356  16.016  68.686  1.00  0.00    -0.203 C  
HETATM   30  C   UNL     1      -7.332  16.916  69.408  1.00  0.00    -0.043 C  
HETATM   31  C   UNL     1      -9.794  15.435  66.922  1.00  0.00    -0.244 C  
HETATM   32  O   UNL     1     -10.904  15.367  66.436  1.00  0.00    -0.314 OA 
HETATM   33  C   UNL     1      -9.315  15.487  69.779  1.00  0.00    -0.136 C  
BRANCH  28  34
HETATM   34  C   UNL     1      -9.950  17.867  67.788  1.00  0.00    -0.331 C  
HETATM   35  S   UNL     1      -9.809  19.274  66.696  1.00  0.00    -0.398 S  
HETATM   36  O   UNL     1      -8.473  19.823  66.771  1.00  0.00    -0.293 OA 
HETATM   37  O   UNL     1     -10.717  20.286  67.575  1.00  0.00    -0.188 OA 
HETATM   38  O   UNL     1     -10.503  19.082  65.449  1.00  0.00    -0.475 OA 
ENDBRANCH  28  34
ENDBRANCH  20  23
ENDBRANCH   8  17
TORSDOF 4
ENDMDL
MODEL       58
REMARK 921   NORMALIZED FREE ENERGY PREDICTED BY IDOCK:   -4.62 KCAL/MOL
REMARK 922        TOTAL FREE ENERGY PREDICTED BY IDOCK:   -6.18 KCAL/MOL
REMARK 923 INTER-LIGAND FREE ENERGY PREDICTED BY IDOCK:   -7.78 KCAL/MOL
REMARK 924 INTRA-LIGAND FREE ENERGY PREDICTED BY IDOCK:    1.59 KCAL/MOL
REMARK 927      BINDING AFFINITY PREDICTED BY RF-SCORE:    0.00 PKD
ROOT
HETATM    1  C   UNL     1      -9.433   2.171  68.245  1.00  0.00    -0.232 C  
HETATM    2  C   UNL     1      -9.303   3.707  68.105  1.00  0.00    -0.236 C  
HETATM    3  C   UNL     1      -9.678   4.035  66.644  1.00  0.00    -0.215 C  
HETATM    4  C   UNL     1     -10.130   4.490  69.159  1.00  0.00    -0.083 C  
HETATM    5  C   UNL     1      -9.435   4.090  70.492  1.00  0.00    -0.248 C  
HETATM    6  C   UNL     1      -7.936   3.916  70.100  1.00  0.00    -0.049 C  
HETATM    7  C   UNL     1      -7.930   4.297  68.599  1.00  0.00    -0.073 C  
HETATM    8  C   UNL     1     -10.470   7.033  68.729  1.00  0.00    -0.222 C  
HETATM    9  C   UNL     1      -8.249   5.786  68.658  1.00  0.00    -0.105 C  
HETATM   10  O   UNL     1      -7.429   6.685  68.734  1.00  0.00    -0.091 OA 
HETATM   11  C   UNL     1      -9.728   5.925  68.863  1.00  0.00    -0.168 C  
ENDROOT
BRANCH   7  12
HETATM   12  C   UNL     1      -6.736   3.934  67.735  1.00  0.00    -0.046 C  
HETATM   13  S   UNL     1      -6.391   2.200  67.465  1.00  0.00    -0.025 S  
HETATM   14  O   UNL     1      -5.294   2.118  66.523  1.00  0.00    -0.011 OA 
HETATM   15  O   UNL     1      -7.626   1.486  67.258  1.00  0.00    -0.057 OA 
HETATM   16  O   UNL     1      -5.805   1.789  68.910  1.00  0.00    -0.021 OA 
ENDBRANCH   7  12
BRANCH   8  17
HETATM   17  C   UNL     1      -9.888   8.347  68.428  1.00  0.00    -0.192 A  
HETATM   18  C   UNL     1      -9.554   9.245  69.449  1.00  0.00    -0.170 A  
HETATM   19  C   UNL     1      -9.136  10.545  69.133  1.00  0.00    -0.177 A  
HETATM   20  C   UNL     1      -9.050  10.959  67.800  1.00  0.00    -0.149 A  
HETATM   21  C   UNL     1      -9.757   8.748  67.092  1.00  0.00    -0.248 A  
HETATM   22  C   UNL     1      -9.338  10.046  66.780  1.00  0.00    -0.193 A  
BRANCH  20  23
HETATM   23  C   UNL     1      -8.703  12.342  67.476  1.00  0.00    -0.179 C  
HETATM   24  C   UNL     1      -9.612  13.271  67.174  1.00  0.00    -0.240 C  
HETATM   25  C   UNL     1     -11.116  13.228  67.059  1.00  0.00    -0.304 C  
HETATM   26  C   UNL     1     -11.645  13.997  68.289  1.00  0.00    -0.364 C  
HETATM   27  C   UNL     1     -11.300  15.477  67.970  1.00  0.00    -0.332 C  
HETATM   28  C   UNL     1     -10.627  15.403  66.572  1.00  0.00    -0.306 C  
HETATM   29  C   UNL     1     -11.391  14.212  65.887  1.00  0.00    -0.323 C  
HETATM   30  C   UNL     1     -12.895  14.447  65.640  1.00  0.00    -0.224 C  
HETATM   31  C   UNL     1      -9.295  14.702  66.825  1.00  0.00    -0.257 C  
HETATM   32  O   UNL     1      -8.177  15.170  66.743  1.00  0.00    -0.221 OA 
HETATM   33  C   UNL     1     -10.794  13.767  64.529  1.00  0.00    -0.399 C  
BRANCH  28  34
HETATM   34  C   UNL     1     -10.574  16.679  65.756  1.00  0.00    -0.268 C  
HETATM   35  S   UNL     1     -10.143  18.164  66.649  1.00  0.00    -0.391 S  
HETATM   36  O   UNL     1     -11.160  18.457  67.636  1.00  0.00    -0.243 OA 
HETATM   37  O   UNL     1     -10.435  19.202  65.441  1.00  0.00    -0.462 OA 
HETATM   38  O   UNL     1      -8.734  18.255  66.933  1.00  0.00    -0.253 OA 
ENDBRANCH  28  34
ENDBRANCH  20  23
ENDBRANCH   8  17
TORSDOF 4
ENDMDL
MODEL       59
REMARK 921   NORMALIZED FREE ENERGY PREDICTED BY IDOCK:   -4.56 KCAL/MOL
REMARK 922        TOTAL FREE ENERGY PREDICTED BY IDOCK:   -6.12 KCAL/MOL
REMARK 923 INTER-LIGAND FREE ENERGY PREDICTED BY IDOCK:   -7.62 KCAL/MOL
REMARK 924 INTRA-LIGAND FREE ENERGY PREDICTED BY IDOCK:    1.50 KCAL/MOL
REMARK 927      BINDING AFFINITY PREDICTED BY RF-SCORE:    0.00 PKD
ROOT
HETATM    1  C   UNL     1      -9.544   4.457  66.940  1.00  0.00    -0.219 C  
HETATM    2  C   UNL     1      -9.406   5.995  67.039  1.00  0.00    -0.128 C  
HETATM    3  C   UNL     1      -8.650   6.437  65.768  1.00  0.00    -0.152 C  
HETATM    4  C   UNL     1     -10.761   6.720  67.251  1.00  0.00    -0.423 C  
HETATM    5  C   UNL     1     -11.197   6.207  68.654  1.00  0.00    -0.275 C  
HETATM    6  C   UNL     1      -9.854   6.025  69.425  1.00  0.00    -0.203 C  
HETATM    7  C   UNL     1      -8.802   6.514  68.398  1.00  0.00    -0.123 C  
HETATM    8  C   UNL     1     -10.783   9.295  66.883  1.00  0.00    -0.164 C  
HETATM    9  C   UNL     1      -9.120   8.002  68.316  1.00  0.00    -0.135 C  
HETATM   10  O   UNL     1      -8.625   8.872  69.011  1.00  0.00    -0.134 OA 
HETATM   11  C   UNL     1     -10.316   8.162  67.426  1.00  0.00    -0.351 C  
ENDROOT
BRANCH   7  12
HETATM   12  C   UNL     1      -7.336   6.184  68.608  1.00  0.00    -0.086 C  
HETATM   13  S   UNL     1      -6.919   4.935  69.817  1.00  0.00    -0.054 S  
HETATM   14  O   UNL     1      -5.489   4.719  69.743  1.00  0.00    -0.007 OA 
HETATM   15  O   UNL     1      -7.859   3.844  69.730  1.00  0.00    -0.052 OA 
HETATM   16  O   UNL     1      -7.206   5.741  71.183  1.00  0.00    -0.070 OA 
ENDBRANCH   7  12
BRANCH   8  17
HETATM   17  C   UNL     1     -10.204  10.612  67.173  1.00  0.00    -0.261 A  
HETATM   18  C   UNL     1      -9.024  11.040  66.552  1.00  0.00    -0.181 A  
HETATM   19  C   UNL     1      -8.413  12.237  66.950  1.00  0.00    -0.159 A  
HETATM   20  C   UNL     1      -8.971  13.013  67.970  1.00  0.00    -0.199 A  
HETATM   21  C   UNL     1     -10.787  11.414  68.162  1.00  0.00    -0.259 A  
HETATM   22  C   UNL     1     -10.175  12.609  68.557  1.00  0.00    -0.207 A  
BRANCH  20  23
HETATM   23  C   UNL     1      -8.284  14.213  68.448  1.00  0.00    -0.149 C  
HETATM   24  C   UNL     1      -8.752  15.446  68.254  1.00  0.00    -0.164 C  
HETATM   25  C   UNL     1      -9.980  15.975  67.555  1.00  0.00    -0.240 C  
HETATM   26  C   UNL     1     -10.917  16.464  68.681  1.00  0.00    -0.345 C  
HETATM   27  C   UNL     1     -10.217  17.748  69.205  1.00  0.00    -0.211 C  
HETATM   28  C   UNL     1      -8.960  17.874  68.303  1.00  0.00    -0.277 C  
HETATM   29  C   UNL     1      -9.466  17.301  66.928  1.00  0.00    -0.264 C  
HETATM   30  C   UNL     1     -10.582  18.116  66.244  1.00  0.00    -0.291 C  
HETATM   31  C   UNL     1      -8.070  16.707  68.721  1.00  0.00    -0.247 C  
HETATM   32  O   UNL     1      -7.001  16.752  69.295  1.00  0.00    -0.226 OA 
HETATM   33  C   UNL     1      -8.354  17.114  65.867  1.00  0.00    -0.017 C  
BRANCH  28  34
HETATM   34  C   UNL     1      -8.295  19.234  68.219  1.00  0.00    -0.338 C  
HETATM   35  S   UNL     1      -6.991  19.396  67.009  1.00  0.00    -0.198 S  
HETATM   36  O   UNL     1      -5.891  18.521  67.351  1.00  0.00    -0.154 OA 
HETATM   37  O   UNL     1      -6.498  20.870  67.461  1.00  0.00    -0.284 OA 
HETATM   38  O   UNL     1      -7.492  19.529  65.666  1.00  0.00    -0.380 OA 
ENDBRANCH  28  34
ENDBRANCH  20  23
ENDBRANCH   8  17
TORSDOF 4
ENDMDL
MODEL       60
REMARK 921   NORMALIZED FREE ENERGY PREDICTED BY IDOCK:   -4.51 KCAL/MOL
REMARK 922        TOTAL FREE ENERGY PREDICTED BY IDOCK:   -6.05 KCAL/MOL
REMARK 923 INTER-LIGAND FREE ENERGY PREDICTED BY IDOCK:   -6.76 KCAL/MOL
REMARK 924 INTRA-LIGAND FREE ENERGY PREDICTED BY IDOCK:    0.71 KCAL/MOL
REMARK 927      BINDING AFFINITY PREDICTED BY RF-SCORE:    0.00 PKD
ROOT
HETATM    1  C   UNL     1     -10.886  17.961  67.065  1.00  0.00    -0.107 C  
HETATM    2  C   UNL     1     -10.420  16.494  67.213  1.00  0.00    -0.304 C  
HETATM    3  C   UNL     1     -11.069  15.721  66.045  1.00  0.00    -0.085 C  
HETATM    4  C   UNL     1      -8.877  16.345  67.287  1.00  0.00    -0.203 C  
HETATM    5  C   UNL     1      -8.536  17.071  68.620  1.00  0.00    -0.265 C  
HETATM    6  C   UNL     1      -9.768  16.784  69.533  1.00  0.00     0.058 C  
HETATM    7  C   UNL     1     -10.648  15.873  68.642  1.00  0.00    -0.250 C  
HETATM    8  C   UNL     1      -7.914  13.949  66.976  1.00  0.00     0.043 C  
HETATM    9  C   UNL     1      -9.798  14.611  68.558  1.00  0.00    -0.228 C  
HETATM   10  O   UNL     1      -9.857  13.664  69.323  1.00  0.00     0.183 OA 
HETATM   11  C   UNL     1      -8.722  14.856  67.542  1.00  0.00    -0.197 C  
ENDROOT
BRANCH   7  12
HETATM   12  C   UNL     1     -12.102  15.641  69.008  1.00  0.00    -0.205 C  
HETATM   13  S   UNL     1     -12.516  15.461  70.738  1.00  0.00    -0.448 S  
HETATM   14  O   UNL     1     -13.959  15.375  70.833  1.00  0.00    -0.434 OA 
HETATM   15  O   UNL     1     -11.758  16.407  71.518  1.00  0.00    -0.448 OA 
HETATM   16  O   UNL     1     -11.933  13.986  71.027  1.00  0.00    -0.327 OA 
ENDBRANCH   7  12
BRANCH   8  17
HETATM   17  C   UNL     1      -7.920  12.531  67.358  1.00  0.00    -0.180 A  
HETATM   18  C   UNL     1      -7.252  12.084  68.505  1.00  0.00    -0.101 A  
HETATM   19  C   UNL     1      -7.149  10.712  68.770  1.00  0.00    -0.076 A  
HETATM   20  C   UNL     1      -7.708   9.776  67.895  1.00  0.00    -0.087 A  
HETATM   21  C   UNL     1      -8.519  11.595  66.507  1.00  0.00    -0.141 A  
HETATM   22  C   UNL     1      -8.416  10.225  66.775  1.00  0.00    -0.123 A  
BRANCH  20  23
HETATM   23  C   UNL     1      -7.521   8.344  68.124  1.00  0.00    -0.097 C  
HETATM   24  C   UNL     1      -8.509   7.531  68.501  1.00  0.00    -0.129 C  
HETATM   25  C   UNL     1      -9.968   7.768  68.801  1.00  0.00    -0.181 C  
HETATM   26  C   UNL     1     -10.739   7.143  67.619  1.00  0.00    -0.314 C  
HETATM   27  C   UNL     1     -10.567   5.615  67.839  1.00  0.00    -0.266 C  
HETATM   28  C   UNL     1      -9.733   5.525  69.145  1.00  0.00    -0.208 C  
HETATM   29  C   UNL     1     -10.239   6.770  69.962  1.00  0.00    -0.211 C  
HETATM   30  C   UNL     1     -11.722   6.725  70.383  1.00  0.00    -0.418 C  
HETATM   31  C   UNL     1      -8.355   6.054  68.757  1.00  0.00    -0.106 C  
HETATM   32  O   UNL     1      -7.312   5.437  68.684  1.00  0.00    -0.072 OA 
HETATM   33  C   UNL     1      -9.432   7.059  71.251  1.00  0.00    -0.164 C  
BRANCH  28  34
HETATM   34  C   UNL     1      -9.763   4.212  69.903  1.00  0.00    -0.210 C  
HETATM   35  S   UNL     1      -8.882   2.852  69.150  1.00  0.00    -0.110 S  
HETATM   36  O   UNL     1      -9.497   2.508  67.886  1.00  0.00    -0.209 OA 
HETATM   37  O   UNL     1      -9.390   1.708  70.177  1.00  0.00    -0.094 OA 
HETATM   38  O   UNL     1      -7.456   2.950  69.321  1.00  0.00    -0.044 OA 
ENDBRANCH  28  34
ENDBRANCH  20  23
ENDBRANCH   8  17
TORSDOF 4
ENDMDL
MODEL       61
REMARK 921   NORMALIZED FREE ENERGY PREDICTED BY IDOCK:   -4.50 KCAL/MOL
REMARK 922        TOTAL FREE ENERGY PREDICTED BY IDOCK:   -6.04 KCAL/MOL
REMARK 923 INTER-LIGAND FREE ENERGY PREDICTED BY IDOCK:   -6.39 KCAL/MOL
REMARK 924 INTRA-LIGAND FREE ENERGY PREDICTED BY IDOCK:    0.35 KCAL/MOL
REMARK 927      BINDING AFFINITY PREDICTED BY RF-SCORE:    0.00 PKD
ROOT
HETATM    1  C   UNL     1     -10.174  18.318  66.702  1.00  0.00    -0.399 C  
HETATM    2  C   UNL     1      -9.390  16.996  66.883  1.00  0.00    -0.263 C  
HETATM    3  C   UNL     1      -8.109  17.142  66.033  1.00  0.00    -0.183 C  
HETATM    4  C   UNL     1      -9.123  16.641  68.370  1.00  0.00    -0.226 C  
HETATM    5  C   UNL     1     -10.559  16.400  68.917  1.00  0.00    -0.307 C  
HETATM    6  C   UNL     1     -11.329  15.790  67.706  1.00  0.00    -0.240 C  
HETATM    7  C   UNL     1     -10.231  15.691  66.619  1.00  0.00    -0.283 C  
HETATM    8  C   UNL     1      -7.363  14.782  68.832  1.00  0.00    -0.130 C  
HETATM    9  C   UNL     1      -9.315  14.623  67.202  1.00  0.00    -0.223 C  
HETATM   10  O   UNL     1      -9.407  13.424  67.004  1.00  0.00    -0.226 OA 
HETATM   11  C   UNL     1      -8.462  15.279  68.247  1.00  0.00    -0.154 C  
ENDROOT
BRANCH   7  12
HETATM   12  C   UNL     1     -10.624  15.474  65.170  1.00  0.00    -0.431 C  
HETATM   13  S   UNL     1     -11.881  14.252  64.814  1.00  0.00    -0.452 S  
HETATM   14  O   UNL     1     -12.162  14.320  63.394  1.00  0.00    -0.534 OA 
HETATM   15  O   UNL     1     -12.929  14.333  65.801  1.00  0.00    -0.436 OA 
HETATM   16  O   UNL     1     -11.050  12.894  65.068  1.00  0.00    -0.282 OA 
ENDBRANCH   7  12
BRANCH   8  17
HETATM   17  C   UNL     1      -6.870  13.423  68.574  1.00  0.00    -0.099 A  
HETATM   18  C   UNL     1      -6.207  13.104  67.383  1.00  0.00    -0.046 A  
HETATM   19  C   UNL     1      -5.875  11.773  67.097  1.00  0.00    -0.136 A  
HETATM   20  C   UNL     1      -6.204  10.751  67.992  1.00  0.00    -0.057 A  
HETATM   21  C   UNL     1      -7.158  12.405  69.492  1.00  0.00     0.243 A  
HETATM   22  C   UNL     1      -6.824  11.077  69.203  1.00  0.00    -0.094 A  
BRANCH  20  23
HETATM   23  C   UNL     1      -5.940   9.354  67.651  1.00  0.00    -0.052 C  
HETATM   24  C   UNL     1      -6.817   8.373  67.864  1.00  0.00    -0.067 C  
HETATM   25  C   UNL     1      -8.201   8.353  68.467  1.00  0.00    -0.124 C  
HETATM   26  C   UNL     1      -9.163   8.117  67.282  1.00  0.00    -0.165 C  
HETATM   27  C   UNL     1      -8.913   6.633  66.901  1.00  0.00    -0.131 C  
HETATM   28  C   UNL     1      -7.846   6.164  67.928  1.00  0.00    -0.106 C  
HETATM   29  C   UNL     1      -8.223   6.989  69.213  1.00  0.00    -0.125 C  
HETATM   30  C   UNL     1      -9.599   6.662  69.827  1.00  0.00    -0.155 C  
HETATM   31  C   UNL     1      -6.580   6.922  67.536  1.00  0.00    -0.058 C  
HETATM   32  O   UNL     1      -5.553   6.469  67.073  1.00  0.00    -0.012 OA 
HETATM   33  C   UNL     1      -7.196   6.878  70.366  1.00  0.00    -0.076 C  
BRANCH  28  34
HETATM   34  C   UNL     1      -7.699   4.672  68.149  1.00  0.00    -0.081 C  
HETATM   35  S   UNL     1      -7.598   3.667  66.677  1.00  0.00    -0.081 S  
HETATM   36  O   UNL     1      -8.834   3.760  65.931  1.00  0.00    -0.113 OA 
HETATM   37  O   UNL     1      -7.677   2.232  67.422  1.00  0.00    -0.060 OA 
HETATM   38  O   UNL     1      -6.303   3.728  66.048  1.00  0.00    -0.031 OA 
ENDBRANCH  28  34
ENDBRANCH  20  23
ENDBRANCH   8  17
TORSDOF 4
ENDMDL
MODEL       62
REMARK 921   NORMALIZED FREE ENERGY PREDICTED BY IDOCK:   -4.41 KCAL/MOL
REMARK 922        TOTAL FREE ENERGY PREDICTED BY IDOCK:   -5.93 KCAL/MOL
REMARK 923 INTER-LIGAND FREE ENERGY PREDICTED BY IDOCK:   -7.81 KCAL/MOL
REMARK 924 INTRA-LIGAND FREE ENERGY PREDICTED BY IDOCK:    1.88 KCAL/MOL
REMARK 927      BINDING AFFINITY PREDICTED BY RF-SCORE:    0.00 PKD
ROOT
HETATM    1  C   UNL     1      -9.801   4.345  70.688  1.00  0.00    -0.280 C  
HETATM    2  C   UNL     1      -9.818   5.770  70.087  1.00  0.00    -0.240 C  
HETATM    3  C   UNL     1     -11.296   6.217  70.092  1.00  0.00    -0.476 C  
HETATM    4  C   UNL     1      -8.860   6.752  70.811  1.00  0.00    -0.150 C  
HETATM    5  C   UNL     1      -7.462   6.141  70.503  1.00  0.00    -0.090 C  
HETATM    6  C   UNL     1      -7.623   5.527  69.079  1.00  0.00    -0.087 C  
HETATM    7  C   UNL     1      -9.076   5.909  68.704  1.00  0.00    -0.115 C  
HETATM    8  C   UNL     1      -9.172   9.284  70.302  1.00  0.00    -0.273 C  
HETATM    9  C   UNL     1      -8.972   7.423  68.573  1.00  0.00    -0.128 C  
HETATM   10  O   UNL     1      -8.709   8.030  67.549  1.00  0.00    -0.124 OA 
HETATM   11  C   UNL     1      -8.994   8.001  69.957  1.00  0.00    -0.144 C  
ENDROOT
BRANCH   7  12
HETATM   12  C   UNL     1      -9.762   5.213  67.544  1.00  0.00    -0.151 C  
HETATM   13  S   UNL     1      -8.860   3.936  66.676  1.00  0.00    -0.134 S  
HETATM   14  O   UNL     1      -9.762   3.350  65.706  1.00  0.00    -0.117 OA 
HETATM   15  O   UNL     1      -8.132   3.128  67.623  1.00  0.00    -0.078 OA 
HETATM   16  O   UNL     1      -7.799   4.832  65.856  1.00  0.00    -0.093 OA 
ENDBRANCH   7  12
BRANCH   8  17
HETATM   17  C   UNL     1      -9.291  10.364  69.315  1.00  0.00    -0.202 A  
HETATM   18  C   UNL     1      -8.157  10.959  68.748  1.00  0.00    -0.145 A  
HETATM   19  C   UNL     1      -8.291  12.081  67.919  1.00  0.00    -0.155 A  
HETATM   20  C   UNL     1      -9.554  12.619  67.652  1.00  0.00    -0.188 A  
HETATM   21  C   UNL     1     -10.558  10.875  69.008  1.00  0.00    -0.248 A  
HETATM   22  C   UNL     1     -10.689  11.995  68.180  1.00  0.00    -0.246 A  
BRANCH  20  23
HETATM   23  C   UNL     1      -9.685  13.843  66.863  1.00  0.00    -0.268 C  
HETATM   24  C   UNL     1      -8.974  14.945  67.103  1.00  0.00    -0.230 C  
HETATM   25  C   UNL     1      -7.934  15.283  68.143  1.00  0.00    -0.128 C  
HETATM   26  C   UNL     1      -6.591  15.330  67.383  1.00  0.00    -0.120 C  
HETATM   27  C   UNL     1      -6.695  16.630  66.540  1.00  0.00    -0.086 C  
HETATM   28  C   UNL     1      -8.084  17.207  66.926  1.00  0.00    -0.247 C  
HETATM   29  C   UNL     1      -8.224  16.783  68.434  1.00  0.00    -0.224 C  
HETATM   30  C   UNL     1      -7.200  17.418  69.396  1.00  0.00    -0.001 C  
HETATM   31  C   UNL     1      -9.087  16.228  66.321  1.00  0.00    -0.331 C  
HETATM   32  O   UNL     1      -9.860  16.423  65.404  1.00  0.00    -0.515 OA 
HETATM   33  C   UNL     1      -9.620  17.054  69.046  1.00  0.00    -0.197 C  
BRANCH  28  34
HETATM   34  C   UNL     1      -8.328  18.678  66.653  1.00  0.00    -0.287 C  
HETATM   35  S   UNL     1      -9.686  19.425  67.540  1.00  0.00    -0.354 S  
HETATM   36  O   UNL     1     -10.933  18.813  67.136  1.00  0.00    -0.380 OA 
HETATM   37  O   UNL     1      -9.658  20.846  66.765  1.00  0.00    -0.222 OA 
HETATM   38  O   UNL     1      -9.366  19.706  68.916  1.00  0.00    -0.358 OA 
ENDBRANCH  28  34
ENDBRANCH  20  23
ENDBRANCH   8  17
TORSDOF 4
ENDMDL
MODEL       63
REMARK 921   NORMALIZED FREE ENERGY PREDICTED BY IDOCK:   -4.39 KCAL/MOL
REMARK 922        TOTAL FREE ENERGY PREDICTED BY IDOCK:   -5.91 KCAL/MOL
REMARK 923 INTER-LIGAND FREE ENERGY PREDICTED BY IDOCK:   -6.53 KCAL/MOL
REMARK 924 INTRA-LIGAND FREE ENERGY PREDICTED BY IDOCK:    0.63 KCAL/MOL
REMARK 927      BINDING AFFINITY PREDICTED BY RF-SCORE:    0.00 PKD
ROOT
HETATM    1  C   UNL     1     -10.762  18.529  66.552  1.00  0.00    -0.263 C  
HETATM    2  C   UNL     1      -9.988  17.263  66.990  1.00  0.00    -0.289 C  
HETATM    3  C   UNL     1     -10.223  16.215  65.881  1.00  0.00    -0.381 C  
HETATM    4  C   UNL     1      -8.491  17.536  67.293  1.00  0.00    -0.224 C  
HETATM    5  C   UNL     1      -8.567  18.477  68.529  1.00  0.00    -0.349 C  
HETATM    6  C   UNL     1      -9.829  17.986  69.302  1.00  0.00    -0.051 C  
HETATM    7  C   UNL     1     -10.299  16.777  68.455  1.00  0.00    -0.316 C  
HETATM    8  C   UNL     1      -6.939  15.458  67.494  1.00  0.00    -0.223 C  
HETATM    9  C   UNL     1      -9.168  15.783  68.685  1.00  0.00    -0.207 C  
HETATM   10  O   UNL     1      -9.125  14.950  69.575  1.00  0.00    -0.107 OA 
HETATM   11  C   UNL     1      -8.026  16.180  67.797  1.00  0.00    -0.155 C  
ENDROOT
BRANCH   7  12
HETATM   12  C   UNL     1     -11.694  16.216  68.654  1.00  0.00    -0.205 C  
HETATM   13  S   UNL     1     -12.133  15.608  70.278  1.00  0.00    -0.367 S  
HETATM   14  O   UNL     1     -13.534  15.244  70.241  1.00  0.00    -0.059 OA 
HETATM   15  O   UNL     1     -11.602  16.491  71.286  1.00  0.00    -0.350 OA 
HETATM   16  O   UNL     1     -11.288  14.234  70.314  1.00  0.00    -0.202 OA 
ENDBRANCH   7  12
BRANCH   8  17
HETATM   17  C   UNL     1      -6.667  14.144  68.090  1.00  0.00    -0.125 A  
HETATM   18  C   UNL     1      -7.138  12.965  67.499  1.00  0.00    -0.153 A  
HETATM   19  C   UNL     1      -6.991  11.738  68.160  1.00  0.00    -0.076 A  
HETATM   20  C   UNL     1      -6.376  11.677  69.414  1.00  0.00    -0.106 A  
HETATM   21  C   UNL     1      -6.010  14.075  69.325  1.00  0.00    -0.095 A  
HETATM   22  C   UNL     1      -5.864  12.848  69.982  1.00  0.00    -0.142 A  
BRANCH  20  23
HETATM   23  C   UNL     1      -6.305  10.411  70.142  1.00  0.00    -0.123 C  
HETATM   24  C   UNL     1      -7.234   9.460  70.043  1.00  0.00    -0.092 C  
HETATM   25  C   UNL     1      -8.523   9.368  69.263  1.00  0.00    -0.141 C  
HETATM   26  C   UNL     1      -8.248   8.353  68.133  1.00  0.00    -0.124 C  
HETATM   27  C   UNL     1      -8.177   6.991  68.876  1.00  0.00    -0.122 C  
HETATM   28  C   UNL     1      -8.444   7.367  70.358  1.00  0.00    -0.142 C  
HETATM   29  C   UNL     1      -9.445   8.574  70.230  1.00  0.00    -0.176 C  
HETATM   30  C   UNL     1     -10.815   8.231  69.609  1.00  0.00    -0.154 C  
HETATM   31  C   UNL     1      -7.203   8.148  70.784  1.00  0.00    -0.050 C  
HETATM   32  O   UNL     1      -6.351   7.816  71.583  1.00  0.00    -0.038 OA 
HETATM   33  C   UNL     1      -9.744   9.300  71.565  1.00  0.00    -0.210 C  
BRANCH  28  34
HETATM   34  C   UNL     1      -8.897   6.260  71.288  1.00  0.00    -0.139 C  
HETATM   35  S   UNL     1      -9.247   4.685  70.521  1.00  0.00    -0.144 S  
HETATM   36  O   UNL     1     -10.365   4.818  69.612  1.00  0.00    -0.217 OA 
HETATM   37  O   UNL     1      -9.869   3.971  71.833  1.00  0.00    -0.161 OA 
HETATM   38  O   UNL     1      -8.054   3.952  70.185  1.00  0.00    -0.056 OA 
ENDBRANCH  28  34
ENDBRANCH  20  23
ENDBRANCH   8  17
TORSDOF 4
ENDMDL
MODEL       64
REMARK 921   NORMALIZED FREE ENERGY PREDICTED BY IDOCK:   -4.20 KCAL/MOL
REMARK 922        TOTAL FREE ENERGY PREDICTED BY IDOCK:   -5.67 KCAL/MOL
REMARK 923 INTER-LIGAND FREE ENERGY PREDICTED BY IDOCK:   -4.84 KCAL/MOL
REMARK 924 INTRA-LIGAND FREE ENERGY PREDICTED BY IDOCK:   -0.83 KCAL/MOL
REMARK 927      BINDING AFFINITY PREDICTED BY RF-SCORE:    0.00 PKD
ROOT
HETATM    1  C   UNL     1      -6.777   2.652  71.046  1.00  0.00    -0.031 C  
HETATM    2  C   UNL     1      -6.962   3.857  70.093  1.00  0.00    -0.041 C  
HETATM    3  C   UNL     1      -5.617   4.614  70.097  1.00  0.00    -0.012 C  
HETATM    4  C   UNL     1      -7.453   3.450  68.679  1.00  0.00    -0.049 C  
HETATM    5  C   UNL     1      -8.869   2.874  68.970  1.00  0.00    -0.151 C  
HETATM    6  C   UNL     1      -9.385   3.727  70.169  1.00  0.00    -0.244 C  
HETATM    7  C   UNL     1      -8.234   4.738  70.389  1.00  0.00    -0.083 C  
HETATM    8  C   UNL     1      -7.282   5.255  66.814  1.00  0.00    -0.078 C  
HETATM    9  C   UNL     1      -8.315   5.579  69.121  1.00  0.00    -0.098 C  
HETATM   10  O   UNL     1      -8.977   6.593  68.983  1.00  0.00    -0.131 OA 
HETATM   11  C   UNL     1      -7.654   4.804  68.020  1.00  0.00    -0.082 C  
ENDROOT
BRANCH   7  12
HETATM   12  C   UNL     1      -8.167   5.534  71.679  1.00  0.00    -0.119 C  
HETATM   13  S   UNL     1      -9.512   5.360  72.845  1.00  0.00    -0.143 S  
HETATM   14  O   UNL     1      -9.159   6.114  74.030  1.00  0.00    -0.126 OA 
HETATM   15  O   UNL     1      -9.918   3.979  72.914  1.00  0.00    -0.136 OA 
HETATM   16  O   UNL     1     -10.668   6.189  72.084  1.00  0.00    -0.219 OA 
ENDBRANCH   7  12
BRANCH   8  17
HETATM   17  C   UNL     1      -7.564   6.621  66.356  1.00  0.00    -0.090 A  
HETATM   18  C   UNL     1      -6.682   7.675  66.624  1.00  0.00    -0.062 A  
HETATM   19  C   UNL     1      -7.040   8.992  66.304  1.00  0.00    -0.086 A  
HETATM   20  C   UNL     1      -8.280   9.268  65.718  1.00  0.00    -0.117 A  
HETATM   21  C   UNL     1      -8.786   6.894  65.726  1.00  0.00    -0.120 A  
HETATM   22  C   UNL     1      -9.140   8.210  65.407  1.00  0.00     0.051 A  
BRANCH  20  23
HETATM   23  C   UNL     1      -8.689  10.649  65.469  1.00  0.00    -0.199 C  
HETATM   24  C   UNL     1      -9.126  11.465  66.430  1.00  0.00    -0.201 C  
HETATM   25  C   UNL     1      -9.339  11.275  67.912  1.00  0.00    -0.161 C  
HETATM   26  C   UNL     1      -8.213  12.080  68.596  1.00  0.00    -0.052 C  
HETATM   27  C   UNL     1      -8.626  13.558  68.358  1.00  0.00    -0.142 C  
HETATM   28  C   UNL     1      -9.964  13.444  67.579  1.00  0.00    -0.230 C  
HETATM   29  C   UNL     1     -10.602  12.139  68.183  1.00  0.00    -0.236 C  
HETATM   30  C   UNL     1     -10.968  12.216  69.679  1.00  0.00     0.057 C  
HETATM   31  C   UNL     1      -9.566  12.889  66.213  1.00  0.00    -0.243 C  
HETATM   32  O   UNL     1      -9.610  13.452  65.138  1.00  0.00     0.008 OA 
HETATM   33  C   UNL     1     -11.876  11.653  67.450  1.00  0.00    -0.170 C  
BRANCH  28  34
HETATM   34  C   UNL     1     -10.875  14.655  67.576  1.00  0.00    -0.286 C  
HETATM   35  S   UNL     1     -10.063  16.246  67.604  1.00  0.00    -0.267 S  
HETATM   36  O   UNL     1      -9.327  16.402  68.840  1.00  0.00    -0.231 OA 
HETATM   37  O   UNL     1     -11.400  17.136  67.810  1.00  0.00    -0.051 OA 
HETATM   38  O   UNL     1      -9.521  16.617  66.323  1.00  0.00    -0.265 OA 
ENDBRANCH  28  34
ENDBRANCH  20  23
ENDBRANCH   8  17
TORSDOF 4
ENDMDL
MODEL       65
REMARK 921   NORMALIZED FREE ENERGY PREDICTED BY IDOCK:   -4.19 KCAL/MOL
REMARK 922        TOTAL FREE ENERGY PREDICTED BY IDOCK:   -5.66 KCAL/MOL
REMARK 923 INTER-LIGAND FREE ENERGY PREDICTED BY IDOCK:   -5.72 KCAL/MOL
REMARK 924 INTRA-LIGAND FREE ENERGY PREDICTED BY IDOCK:    0.06 KCAL/MOL
REMARK 927      BINDING AFFINITY PREDICTED BY RF-SCORE:    0.00 PKD
ROOT
HETATM    1  C   UNL     1      -7.001   1.555  64.505  1.00  0.00    -0.038 C  
HETATM    2  C   UNL     1      -7.002   3.096  64.643  1.00  0.00    -0.053 C  
HETATM    3  C   UNL     1      -5.523   3.512  64.785  1.00  0.00    -0.010 C  
HETATM    4  C   UNL     1      -7.751   3.814  63.488  1.00  0.00    -0.071 C  
HETATM    5  C   UNL     1      -9.216   3.334  63.692  1.00  0.00    -0.097 C  
HETATM    6  C   UNL     1      -9.354   3.184  65.238  1.00  0.00    -0.135 C  
HETATM    7  C   UNL     1      -7.971   3.656  65.751  1.00  0.00    -0.093 C  
HETATM    8  C   UNL     1      -7.376   6.378  63.264  1.00  0.00    -0.065 C  
HETATM    9  C   UNL     1      -8.002   5.138  65.400  1.00  0.00    -0.110 C  
HETATM   10  O   UNL     1      -8.406   6.030  66.125  1.00  0.00    -0.116 OA 
HETATM   11  C   UNL     1      -7.694   5.264  63.937  1.00  0.00    -0.081 C  
ENDROOT
BRANCH   7  12
HETATM   12  C   UNL     1      -7.551   3.345  67.176  1.00  0.00    -0.078 C  
HETATM   13  S   UNL     1      -8.774   2.653  68.282  1.00  0.00    -0.117 S  
HETATM   14  O   UNL     1      -8.104   2.336  69.526  1.00  0.00    -0.045 OA 
HETATM   15  O   UNL     1      -9.570   1.680  67.577  1.00  0.00    -0.058 OA 
HETATM   16  O   UNL     1      -9.690   3.952  68.554  1.00  0.00    -0.137 OA 
ENDBRANCH   7  12
BRANCH   8  17
HETATM   17  C   UNL     1      -7.369   7.708  63.887  1.00  0.00    -0.092 A  
HETATM   18  C   UNL     1      -6.410   8.057  64.845  1.00  0.00    -0.048 A  
HETATM   19  C   UNL     1      -6.510   9.277  65.528  1.00  0.00    -0.068 A  
HETATM   20  C   UNL     1      -7.566  10.154  65.265  1.00  0.00    -0.144 A  
HETATM   21  C   UNL     1      -8.401   8.608  63.590  1.00  0.00    -0.115 A  
HETATM   22  C   UNL     1      -8.497   9.825  64.274  1.00  0.00    -0.184 A  
BRANCH  20  23
HETATM   23  C   UNL     1      -7.720  11.382  66.043  1.00  0.00     0.155 C  
HETATM   24  C   UNL     1      -8.905  11.930  66.314  1.00  0.00    -0.111 C  
HETATM   25  C   UNL     1     -10.317  11.542  65.949  1.00  0.00    -0.293 C  
HETATM   26  C   UNL     1     -10.953  11.024  67.258  1.00  0.00    -0.356 C  
HETATM   27  C   UNL     1     -11.139  12.311  68.106  1.00  0.00    -0.285 C  
HETATM   28  C   UNL     1     -10.611  13.440  67.181  1.00  0.00    -0.259 C  
HETATM   29  C   UNL     1     -11.005  12.922  65.749  1.00  0.00    -0.303 C  
HETATM   30  C   UNL     1     -12.519  12.806  65.483  1.00  0.00    -0.419 C  
HETATM   31  C   UNL     1      -9.106  13.198  67.103  1.00  0.00    -0.230 C  
HETATM   32  O   UNL     1      -8.215  13.888  67.555  1.00  0.00    -0.163 OA 
HETATM   33  C   UNL     1     -10.422  13.759  64.584  1.00  0.00    -0.433 C  
BRANCH  28  34
HETATM   34  C   UNL     1     -11.052  14.857  67.488  1.00  0.00    -0.317 C  
HETATM   35  S   UNL     1     -10.975  15.348  69.204  1.00  0.00    -0.272 S  
HETATM   36  O   UNL     1     -11.895  14.549  69.985  1.00  0.00    -0.277 OA 
HETATM   37  O   UNL     1     -11.721  16.773  69.026  1.00  0.00     0.075 OA 
HETATM   38  O   UNL     1      -9.635  15.641  69.640  1.00  0.00    -0.277 OA 
ENDBRANCH  28  34
ENDBRANCH  20  23
ENDBRANCH   8  17
TORSDOF 4
ENDMDL
MODEL       66
REMARK 921   NORMALIZED FREE ENERGY PREDICTED BY IDOCK:   -4.15 KCAL/MOL
REMARK 922        TOTAL FREE ENERGY PREDICTED BY IDOCK:   -5.61 KCAL/MOL
REMARK 923 INTER-LIGAND FREE ENERGY PREDICTED BY IDOCK:   -9.95 KCAL/MOL
REMARK 924 INTRA-LIGAND FREE ENERGY PREDICTED BY IDOCK:    4.33 KCAL/MOL
REMARK 927      BINDING AFFINITY PREDICTED BY RF-SCORE:    0.00 PKD
ROOT
HETATM    1  C   UNL     1     -10.604   5.116  71.863  1.00  0.00    -0.256 C  
HETATM    2  C   UNL     1     -10.697   6.499  71.176  1.00  0.00    -0.285 C  
HETATM    3  C   UNL     1     -11.289   6.240  69.775  1.00  0.00    -0.506 C  
HETATM    4  C   UNL     1     -11.483   7.545  72.010  1.00  0.00    -0.319 C  
HETATM    5  C   UNL     1     -10.581   7.716  73.266  1.00  0.00    -0.411 C  
HETATM    6  C   UNL     1      -9.132   7.530  72.720  1.00  0.00    -0.200 C  
HETATM    7  C   UNL     1      -9.362   7.336  71.201  1.00  0.00    -0.156 C  
HETATM    8  C   UNL     1     -12.206   9.720  70.780  1.00  0.00    -0.342 C  
HETATM    9  C   UNL     1      -9.866   8.712  70.788  1.00  0.00    -0.192 C  
HETATM   10  O   UNL     1      -9.170   9.639  70.410  1.00  0.00    -0.250 OA 
HETATM   11  C   UNL     1     -11.314   8.800  71.170  1.00  0.00    -0.345 C  
ENDROOT
BRANCH   7  12
HETATM   12  C   UNL     1      -8.248   6.777  70.337  1.00  0.00    -0.125 C  
HETATM   13  S   UNL     1      -8.453   6.831  68.561  1.00  0.00    -0.122 S  
HETATM   14  O   UNL     1      -7.219   6.358  67.967  1.00  0.00    -0.082 OA 
HETATM   15  O   UNL     1      -9.047   8.087  68.180  1.00  0.00    -0.135 OA 
HETATM   16  O   UNL     1      -9.552   5.669  68.358  1.00  0.00    -0.118 OA 
ENDBRANCH   7  12
BRANCH   8  17
HETATM   17  C   UNL     1     -11.845  10.875  69.948  1.00  0.00    -0.427 A  
HETATM   18  C   UNL     1     -11.907  12.180  70.450  1.00  0.00    -0.277 A  
HETATM   19  C   UNL     1     -11.698  13.273  69.597  1.00  0.00    -0.369 A  
HETATM   20  C   UNL     1     -11.428  13.073  68.240  1.00  0.00    -0.347 A  
HETATM   21  C   UNL     1     -11.529  10.674  68.598  1.00  0.00    -0.332 A  
HETATM   22  C   UNL     1     -11.319  11.767  67.750  1.00  0.00    -0.358 A  
BRANCH  20  23
HETATM   23  C   UNL     1     -11.301  14.213  67.335  1.00  0.00    -0.346 C  
HETATM   24  C   UNL     1     -10.301  15.093  67.405  1.00  0.00    -0.244 C  
HETATM   25  C   UNL     1      -9.113  15.217  68.328  1.00  0.00    -0.183 C  
HETATM   26  C   UNL     1      -7.886  14.825  67.476  1.00  0.00    -0.208 C  
HETATM   27  C   UNL     1      -7.718  16.027  66.506  1.00  0.00    -0.167 C  
HETATM   28  C   UNL     1      -8.857  16.996  66.922  1.00  0.00    -0.251 C  
HETATM   29  C   UNL     1      -8.961  16.757  68.474  1.00  0.00    -0.244 C  
HETATM   30  C   UNL     1      -7.716  17.164  69.288  1.00  0.00     0.017 C  
HETATM   31  C   UNL     1     -10.140  16.285  66.498  1.00  0.00    -0.291 C  
HETATM   32  O   UNL     1     -10.916  16.607  65.621  1.00  0.00    -0.181 OA 
HETATM   33  C   UNL     1     -10.167  17.455  69.148  1.00  0.00    -0.273 C  
BRANCH  28  34
HETATM   34  C   UNL     1      -8.722  18.449  66.510  1.00  0.00    -0.278 C  
HETATM   35  S   UNL     1     -10.245  19.299  66.125  1.00  0.00    -0.467 S  
HETATM   36  O   UNL     1     -10.868  18.693  64.968  1.00  0.00    -0.546 OA 
HETATM   37  O   UNL     1      -9.566  20.656  65.560  1.00  0.00     0.134 OA 
HETATM   38  O   UNL     1     -10.986  19.674  67.301  1.00  0.00    -0.464 OA 
ENDBRANCH  28  34
ENDBRANCH  20  23
ENDBRANCH   8  17
TORSDOF 4
ENDMDL
MODEL       67
REMARK 921   NORMALIZED FREE ENERGY PREDICTED BY IDOCK:   -4.04 KCAL/MOL
REMARK 922        TOTAL FREE ENERGY PREDICTED BY IDOCK:   -5.47 KCAL/MOL
REMARK 923 INTER-LIGAND FREE ENERGY PREDICTED BY IDOCK:   -7.02 KCAL/MOL
REMARK 924 INTRA-LIGAND FREE ENERGY PREDICTED BY IDOCK:    1.54 KCAL/MOL
REMARK 927      BINDING AFFINITY PREDICTED BY RF-SCORE:    0.00 PKD
ROOT
HETATM    1  C   UNL     1     -11.355  16.971  67.477  1.00  0.00     0.312 C  
HETATM    2  C   UNL     1     -10.472  15.700  67.480  1.00  0.00    -0.285 C  
HETATM    3  C   UNL     1      -9.860  15.604  66.066  1.00  0.00    -0.362 C  
HETATM    4  C   UNL     1      -9.424  15.684  68.623  1.00  0.00    -0.204 C  
HETATM    5  C   UNL     1     -10.319  15.624  69.895  1.00  0.00    -0.322 C  
HETATM    6  C   UNL     1     -11.552  14.780  69.449  1.00  0.00    -0.342 C  
HETATM    7  C   UNL     1     -11.197  14.399  67.992  1.00  0.00    -0.298 C  
HETATM    8  C   UNL     1      -7.520  13.922  68.444  1.00  0.00    -0.117 C  
HETATM    9  C   UNL     1     -10.014  13.461  68.199  1.00  0.00    -0.237 C  
HETATM   10  O   UNL     1     -10.082  12.252  68.339  1.00  0.00    -0.214 OA 
HETATM   11  C   UNL     1      -8.803  14.309  68.454  1.00  0.00    -0.187 C  
ENDROOT
BRANCH   7  12
HETATM   12  C   UNL     1     -12.277  13.869  67.067  1.00  0.00    -0.355 C  
HETATM   13  S   UNL     1     -11.772  13.133  65.518  1.00  0.00    -0.379 S  
HETATM   14  O   UNL     1     -12.961  12.602  64.882  1.00  0.00    -0.830 OA 
HETATM   15  O   UNL     1     -10.596  12.326  65.726  1.00  0.00    -0.242 OA 
HETATM   16  O   UNL     1     -11.342  14.450  64.693  1.00  0.00    -0.376 OA 
ENDBRANCH   7  12
BRANCH   8  17
HETATM   17  C   UNL     1      -7.113  12.524  68.253  1.00  0.00    -0.104 A  
HETATM   18  C   UNL     1      -7.029  11.959  66.975  1.00  0.00    -0.116 A  
HETATM   19  C   UNL     1      -6.780  10.587  66.827  1.00  0.00    -0.091 A  
HETATM   20  C   UNL     1      -6.616   9.770  67.949  1.00  0.00    -0.061 A  
HETATM   21  C   UNL     1      -6.903  11.713  69.376  1.00  0.00    -0.086 A  
HETATM   22  C   UNL     1      -6.653  10.344  69.225  1.00  0.00    -0.056 A  
BRANCH  20  23
HETATM   23  C   UNL     1      -6.448   8.326  67.795  1.00  0.00    -0.057 C  
HETATM   24  C   UNL     1      -7.473   7.476  67.722  1.00  0.00    -0.101 C  
HETATM   25  C   UNL     1      -8.968   7.673  67.781  1.00  0.00    -0.131 C  
HETATM   26  C   UNL     1      -9.472   7.435  66.341  1.00  0.00    -0.194 C  
HETATM   27  C   UNL     1      -9.315   5.902  66.149  1.00  0.00    -0.150 C  
HETATM   28  C   UNL     1      -8.759   5.416  67.514  1.00  0.00    -0.107 C  
HETATM   29  C   UNL     1      -9.446   6.398  68.533  1.00  0.00    -0.120 C  
HETATM   30  C   UNL     1     -10.981   6.291  68.619  1.00  0.00    -0.423 C  
HETATM   31  C   UNL     1      -7.343   5.982  67.574  1.00  0.00    -0.077 C  
HETATM   32  O   UNL     1      -6.293   5.373  67.538  1.00  0.00    -0.036 OA 
HETATM   33  C   UNL     1      -8.921   6.282  69.985  1.00  0.00    -0.149 C  
BRANCH  28  34
HETATM   34  C   UNL     1      -8.912   3.945  67.846  1.00  0.00    -0.125 C  
HETATM   35  S   UNL     1      -8.623   2.804  66.503  1.00  0.00    -0.117 S  
HETATM   36  O   UNL     1      -9.611   3.003  65.466  1.00  0.00    -0.094 OA 
HETATM   37  O   UNL     1      -9.109   1.470  67.282  1.00  0.00    -0.120 OA 
HETATM   38  O   UNL     1      -7.223   2.622  66.219  1.00  0.00    -0.062 OA 
ENDBRANCH  28  34
ENDBRANCH  20  23
ENDBRANCH   8  17
TORSDOF 4
ENDMDL
MODEL       68
REMARK 921   NORMALIZED FREE ENERGY PREDICTED BY IDOCK:   -4.04 KCAL/MOL
REMARK 922        TOTAL FREE ENERGY PREDICTED BY IDOCK:   -5.47 KCAL/MOL
REMARK 923 INTER-LIGAND FREE ENERGY PREDICTED BY IDOCK:   -7.00 KCAL/MOL
REMARK 924 INTRA-LIGAND FREE ENERGY PREDICTED BY IDOCK:    1.53 KCAL/MOL
REMARK 927      BINDING AFFINITY PREDICTED BY RF-SCORE:    0.00 PKD
ROOT
HETATM    1  C   UNL     1      -8.399   2.643  74.271  1.00  0.00    -0.068 C  
HETATM    2  C   UNL     1      -8.954   3.867  73.506  1.00  0.00    -0.099 C  
HETATM    3  C   UNL     1     -10.486   3.823  73.687  1.00  0.00    -0.260 C  
HETATM    4  C   UNL     1      -8.306   5.208  73.941  1.00  0.00    -0.111 C  
HETATM    5  C   UNL     1      -6.826   5.022  73.497  1.00  0.00    -0.075 C  
HETATM    6  C   UNL     1      -6.925   4.155  72.204  1.00  0.00    -0.050 C  
HETATM    7  C   UNL     1      -8.454   3.994  72.018  1.00  0.00    -0.110 C  
HETATM    8  C   UNL     1      -9.497   7.389  73.174  1.00  0.00    -0.249 C  
HETATM    9  C   UNL     1      -8.875   5.419  71.682  1.00  0.00    -0.135 C  
HETATM   10  O   UNL     1      -8.941   5.895  70.562  1.00  0.00    -0.141 OA 
HETATM   11  C   UNL     1      -8.940   6.188  72.969  1.00  0.00    -0.131 C  
ENDROOT
BRANCH   7  12
HETATM   12  C   UNL     1      -8.989   2.931  71.077  1.00  0.00    -0.095 C  
HETATM   13  S   UNL     1      -8.429   2.952  69.378  1.00  0.00    -0.067 S  
HETATM   14  O   UNL     1      -8.979   1.782  68.725  1.00  0.00    -0.078 OA 
HETATM   15  O   UNL     1      -7.020   3.254  69.337  1.00  0.00    -0.040 OA 
HETATM   16  O   UNL     1      -9.236   4.231  68.819  1.00  0.00    -0.119 OA 
ENDBRANCH   7  12
BRANCH   8  17
HETATM   17  C   UNL     1     -10.074   8.193  72.089  1.00  0.00    -0.320 A  
HETATM   18  C   UNL     1      -9.262   8.808  71.128  1.00  0.00    -0.299 A  
HETATM   19  C   UNL     1      -9.823   9.685  70.190  1.00  0.00    -0.310 A  
HETATM   20  C   UNL     1     -11.194   9.958  70.205  1.00  0.00    -0.347 A  
HETATM   21  C   UNL     1     -11.454   8.431  72.073  1.00  0.00    -0.418 A  
HETATM   22  C   UNL     1     -12.011   9.308  71.135  1.00  0.00    -0.394 A  
BRANCH  20  23
HETATM   23  C   UNL     1     -11.763  10.943  69.286  1.00  0.00    -0.395 C  
HETATM   24  C   UNL     1     -11.137  11.359  68.184  1.00  0.00    -0.306 C  
HETATM   25  C   UNL     1      -9.795  11.021  67.583  1.00  0.00    -0.192 C  
HETATM   26  C   UNL     1     -10.107  10.165  66.336  1.00  0.00    -0.300 C  
HETATM   27  C   UNL     1     -10.706  11.189  65.333  1.00  0.00    -0.259 C  
HETATM   28  C   UNL     1     -10.651  12.535  66.105  1.00  0.00    -0.279 C  
HETATM   29  C   UNL     1      -9.348  12.379  66.972  1.00  0.00    -0.204 C  
HETATM   30  C   UNL     1      -8.033  12.276  66.174  1.00  0.00     0.687 C  
HETATM   31  C   UNL     1     -11.684  12.379  67.219  1.00  0.00    -0.349 C  
HETATM   32  O   UNL     1     -12.739  12.967  67.345  1.00  0.00     0.269 OA 
HETATM   33  C   UNL     1      -9.136  13.505  68.013  1.00  0.00    -0.201 C  
BRANCH  28  34
HETATM   34  C   UNL     1     -10.725  13.810  65.290  1.00  0.00    -0.339 C  
HETATM   35  S   UNL     1     -12.161  13.990  64.243  1.00  0.00    -0.394 S  
HETATM   36  O   UNL     1     -12.161  12.960  63.227  1.00  0.00    -0.561 OA 
HETATM   37  O   UNL     1     -11.665  15.325  63.472  1.00  0.00     0.189 OA 
HETATM   38  O   UNL     1     -13.343  14.359  64.977  1.00  0.00    -0.448 OA 
ENDBRANCH  28  34
ENDBRANCH  20  23
ENDBRANCH   8  17
TORSDOF 4
ENDMDL
MODEL       69
REMARK 921   NORMALIZED FREE ENERGY PREDICTED BY IDOCK:   -4.03 KCAL/MOL
REMARK 922        TOTAL FREE ENERGY PREDICTED BY IDOCK:   -5.46 KCAL/MOL
REMARK 923 INTER-LIGAND FREE ENERGY PREDICTED BY IDOCK:   -7.11 KCAL/MOL
REMARK 924 INTRA-LIGAND FREE ENERGY PREDICTED BY IDOCK:    1.65 KCAL/MOL
REMARK 927      BINDING AFFINITY PREDICTED BY RF-SCORE:    0.00 PKD
ROOT
HETATM    1  C   UNL     1      -7.831   2.646  71.002  1.00  0.00    -0.049 C  
HETATM    2  C   UNL     1      -8.286   4.006  70.422  1.00  0.00    -0.070 C  
HETATM    3  C   UNL     1      -9.663   3.753  69.773  1.00  0.00    -0.193 C  
HETATM    4  C   UNL     1      -8.282   5.151  71.469  1.00  0.00    -0.116 C  
HETATM    5  C   UNL     1      -6.771   5.282  71.815  1.00  0.00    -0.052 C  
HETATM    6  C   UNL     1      -6.046   4.941  70.477  1.00  0.00    -0.018 C  
HETATM    7  C   UNL     1      -7.225   4.714  69.498  1.00  0.00    -0.051 C  
HETATM    8  C   UNL     1      -9.532   7.338  70.820  1.00  0.00    -0.164 C  
HETATM    9  C   UNL     1      -7.811   6.117  69.392  1.00  0.00    -0.100 C  
HETATM   10  O   UNL     1      -7.490   6.960  68.572  1.00  0.00    -0.091 OA 
HETATM   11  C   UNL     1      -8.647   6.353  70.615  1.00  0.00    -0.139 C  
ENDROOT
BRANCH   7  12
HETATM   12  C   UNL     1      -6.978   4.023  68.171  1.00  0.00    -0.051 C  
HETATM   13  S   UNL     1      -6.188   4.959  66.868  1.00  0.00    -0.033 S  
HETATM   14  O   UNL     1      -5.957   4.054  65.761  1.00  0.00    -0.022 OA 
HETATM   15  O   UNL     1      -5.131   5.767  67.424  1.00  0.00    -0.004 OA 
HETATM   16  O   UNL     1      -7.396   5.936  66.436  1.00  0.00    -0.075 OA 
ENDBRANCH   7  12
BRANCH   8  17
HETATM   17  C   UNL     1      -9.750   8.423  69.855  1.00  0.00    -0.179 A  
HETATM   18  C   UNL     1     -10.621   8.266  68.769  1.00  0.00    -0.152 A  
HETATM   19  C   UNL     1     -10.703   9.260  67.784  1.00  0.00    -0.270 A  
HETATM   20  C   UNL     1      -9.918  10.413  67.872  1.00  0.00    -0.192 A  
HETATM   21  C   UNL     1      -8.999   9.600  69.966  1.00  0.00    -0.266 A  
HETATM   22  C   UNL     1      -9.084  10.590  68.981  1.00  0.00    -0.188 A  
BRANCH  20  23
HETATM   23  C   UNL     1      -9.937  11.405  66.798  1.00  0.00    -0.238 C  
HETATM   24  C   UNL     1      -9.931  12.720  67.019  1.00  0.00    -0.231 C  
HETATM   25  C   UNL     1      -9.920  13.543  68.284  1.00  0.00    -0.237 C  
HETATM   26  C   UNL     1      -8.501  14.147  68.370  1.00  0.00    -0.170 C  
HETATM   27  C   UNL     1      -8.493  15.216  67.243  1.00  0.00    -0.220 C  
HETATM   28  C   UNL     1      -9.922  15.128  66.642  1.00  0.00    -0.261 C  
HETATM   29  C   UNL     1     -10.798  14.766  67.897  1.00  0.00    -0.269 C  
HETATM   30  C   UNL     1     -10.849  15.842  69.000  1.00  0.00    -0.266 C  
HETATM   31  C   UNL     1      -9.960  13.773  65.941  1.00  0.00    -0.293 C  
HETATM   32  O   UNL     1     -10.027  13.551  64.749  1.00  0.00    -0.271 OA 
HETATM   33  C   UNL     1     -12.269  14.413  67.568  1.00  0.00    -0.210 C  
BRANCH  28  34
HETATM   34  C   UNL     1     -10.416  16.316  65.842  1.00  0.00    -0.345 C  
HETATM   35  S   UNL     1      -9.751  17.907  66.309  1.00  0.00    -0.228 S  
HETATM   36  O   UNL     1     -10.161  18.236  67.657  1.00  0.00    -0.323 OA 
HETATM   37  O   UNL     1     -10.714  18.799  65.360  1.00  0.00    -0.556 OA 
HETATM   38  O   UNL     1      -8.408  18.111  65.832  1.00  0.00    -0.513 OA 
ENDBRANCH  28  34
ENDBRANCH  20  23
ENDBRANCH   8  17
TORSDOF 4
ENDMDL
MODEL       70
REMARK 921   NORMALIZED FREE ENERGY PREDICTED BY IDOCK:   -3.95 KCAL/MOL
REMARK 922        TOTAL FREE ENERGY PREDICTED BY IDOCK:   -5.36 KCAL/MOL
REMARK 923 INTER-LIGAND FREE ENERGY PREDICTED BY IDOCK:   -7.28 KCAL/MOL
REMARK 924 INTRA-LIGAND FREE ENERGY PREDICTED BY IDOCK:    1.92 KCAL/MOL
REMARK 927      BINDING AFFINITY PREDICTED BY RF-SCORE:    0.00 PKD
ROOT
HETATM    1  C   UNL     1     -10.904  17.061  66.221  1.00  0.00     0.034 C  
HETATM    2  C   UNL     1     -10.150  15.760  66.587  1.00  0.00    -0.287 C  
HETATM    3  C   UNL     1      -9.639  15.174  65.253  1.00  0.00    -0.013 C  
HETATM    4  C   UNL     1      -9.038  15.974  67.648  1.00  0.00    -0.200 C  
HETATM    5  C   UNL     1      -9.854  16.400  68.903  1.00  0.00    -0.260 C  
HETATM    6  C   UNL     1     -11.188  15.603  68.775  1.00  0.00    -0.332 C  
HETATM    7  C   UNL     1     -10.963  14.763  67.495  1.00  0.00    -0.304 C  
HETATM    8  C   UNL     1      -7.328  14.039  67.961  1.00  0.00    -0.142 C  
HETATM    9  C   UNL     1      -9.866  13.806  67.944  1.00  0.00    -0.232 C  
HETATM   10  O   UNL     1     -10.042  12.711  68.449  1.00  0.00    -0.228 OA 
HETATM   11  C   UNL     1      -8.565  14.551  67.890  1.00  0.00    -0.161 C  
ENDROOT
BRANCH   7  12
HETATM   12  C   UNL     1     -12.145  14.102  66.810  1.00  0.00    -0.442 C  
HETATM   13  S   UNL     1     -11.824  13.073  65.383  1.00  0.00    -0.414 S  
HETATM   14  O   UNL     1     -13.081  12.469  64.992  1.00  0.00    -0.765 OA 
HETATM   15  O   UNL     1     -10.640  12.284  65.612  1.00  0.00    -0.246 OA 
HETATM   16  O   UNL     1     -11.477  14.198  64.282  1.00  0.00    -0.353 OA 
ENDBRANCH   7  12
BRANCH   8  17
HETATM   17  C   UNL     1      -7.071  12.612  68.196  1.00  0.00    -0.102 A  
HETATM   18  C   UNL     1      -7.384  11.648  67.230  1.00  0.00    -0.136 A  
HETATM   19  C   UNL     1      -7.264  10.285  67.532  1.00  0.00    -0.088 A  
HETATM   20  C   UNL     1      -6.836   9.873  68.798  1.00  0.00    -0.054 A  
HETATM   21  C   UNL     1      -6.598  12.199  69.448  1.00  0.00    -0.090 A  
HETATM   22  C   UNL     1      -6.479  10.838  69.746  1.00  0.00    -0.118 A  
BRANCH  20  23
HETATM   23  C   UNL     1      -6.800   8.452  69.141  1.00  0.00    -0.055 C  
HETATM   24  C   UNL     1      -7.587   7.906  70.069  1.00  0.00    -0.084 C  
HETATM   25  C   UNL     1      -8.640   8.483  70.983  1.00  0.00    -0.190 C  
HETATM   26  C   UNL     1      -9.989   7.976  70.428  1.00  0.00    -0.188 C  
HETATM   27  C   UNL     1      -9.986   6.465  70.787  1.00  0.00    -0.212 C  
HETATM   28  C   UNL     1      -8.640   6.268  71.535  1.00  0.00    -0.131 C  
HETATM   29  C   UNL     1      -8.457   7.643  72.278  1.00  0.00    -0.153 C  
HETATM   30  C   UNL     1      -9.517   7.957  73.353  1.00  0.00    -0.341 C  
HETATM   31  C   UNL     1      -7.573   6.450  70.458  1.00  0.00    -0.096 C  
HETATM   32  O   UNL     1      -6.824   5.611  70.001  1.00  0.00    -0.055 OA 
HETATM   33  C   UNL     1      -7.080   7.820  72.963  1.00  0.00    -0.097 C  
BRANCH  28  34
HETATM   34  C   UNL     1      -8.505   5.044  72.418  1.00  0.00    -0.121 C  
HETATM   35  S   UNL     1      -9.947   3.995  72.529  1.00  0.00    -0.165 S  
HETATM   36  O   UNL     1     -11.036   4.719  73.148  1.00  0.00    -0.269 OA 
HETATM   37  O   UNL     1      -9.384   3.026  73.697  1.00  0.00    -0.087 OA 
HETATM   38  O   UNL     1     -10.125   3.168  71.364  1.00  0.00    -0.101 OA 
ENDBRANCH  28  34
ENDBRANCH  20  23
ENDBRANCH   8  17
TORSDOF 4
ENDMDL
MODEL       71
REMARK 921   NORMALIZED FREE ENERGY PREDICTED BY IDOCK:   -3.88 KCAL/MOL
REMARK 922        TOTAL FREE ENERGY PREDICTED BY IDOCK:   -5.28 KCAL/MOL
REMARK 923 INTER-LIGAND FREE ENERGY PREDICTED BY IDOCK:   -6.58 KCAL/MOL
REMARK 924 INTRA-LIGAND FREE ENERGY PREDICTED BY IDOCK:    1.30 KCAL/MOL
REMARK 927      BINDING AFFINITY PREDICTED BY RF-SCORE:    0.00 PKD
ROOT
HETATM    1  C   UNL     1      -9.095  18.738  67.583  1.00  0.00    -0.304 C  
HETATM    2  C   UNL     1      -8.831  17.221  67.434  1.00  0.00    -0.222 C  
HETATM    3  C   UNL     1      -7.619  17.091  66.488  1.00  0.00    -0.326 C  
HETATM    4  C   UNL     1      -8.650  16.494  68.793  1.00  0.00    -0.262 C  
HETATM    5  C   UNL     1     -10.054  16.653  69.445  1.00  0.00    -0.204 C  
HETATM    6  C   UNL     1     -11.039  16.611  68.237  1.00  0.00    -0.295 C  
HETATM    7  C   UNL     1     -10.094  16.370  67.035  1.00  0.00    -0.272 C  
HETATM    8  C   UNL     1      -7.658  14.091  68.715  1.00  0.00    -0.113 C  
HETATM    9  C   UNL     1      -9.600  14.955  67.310  1.00  0.00    -0.215 C  
HETATM   10  O   UNL     1     -10.124  13.930  66.911  1.00  0.00    -0.252 OA 
HETATM   11  C   UNL     1      -8.528  15.045  68.355  1.00  0.00    -0.153 C  
ENDROOT
BRANCH   7  12
HETATM   12  C   UNL     1     -10.597  16.607  65.623  1.00  0.00    -0.270 C  
HETATM   13  S   UNL     1     -11.624  15.349  64.873  1.00  0.00    -0.180 S  
HETATM   14  O   UNL     1     -12.069  15.859  63.592  1.00  0.00    -0.682 OA 
HETATM   15  O   UNL     1     -12.550  14.833  65.850  1.00  0.00    -0.071 OA 
HETATM   16  O   UNL     1     -10.521  14.212  64.572  1.00  0.00    -0.408 OA 
ENDBRANCH   7  12
BRANCH   8  17
HETATM   17  C   UNL     1      -7.697  12.731  68.163  1.00  0.00    -0.137 A  
HETATM   18  C   UNL     1      -6.803  12.326  67.164  1.00  0.00    -0.101 A  
HETATM   19  C   UNL     1      -6.952  11.074  66.552  1.00  0.00    -0.138 A  
HETATM   20  C   UNL     1      -7.992  10.219  66.928  1.00  0.00    -0.112 A  
HETATM   21  C   UNL     1      -8.711  11.855  68.571  1.00  0.00    -0.108 A  
HETATM   22  C   UNL     1      -8.856  10.606  67.958  1.00  0.00    -0.130 A  
BRANCH  20  23
HETATM   23  C   UNL     1      -8.202   8.954  66.226  1.00  0.00    -0.111 C  
HETATM   24  C   UNL     1      -7.969   7.764  66.781  1.00  0.00    -0.107 C  
HETATM   25  C   UNL     1      -7.461   7.354  68.141  1.00  0.00    -0.105 C  
HETATM   26  C   UNL     1      -8.684   6.767  68.879  1.00  0.00    -0.129 C  
HETATM   27  C   UNL     1      -8.926   5.413  68.160  1.00  0.00    -0.111 C  
HETATM   28  C   UNL     1      -7.796   5.354  67.096  1.00  0.00    -0.101 C  
HETATM   29  C   UNL     1      -6.610   6.094  67.817  1.00  0.00    -0.059 C  
HETATM   30  C   UNL     1      -6.065   5.395  69.078  1.00  0.00    -0.025 C  
HETATM   31  C   UNL     1      -8.162   6.440  66.088  1.00  0.00    -0.122 C  
HETATM   32  O   UNL     1      -8.518   6.299  64.936  1.00  0.00    -0.112 OA 
HETATM   33  C   UNL     1      -5.385   6.369  66.911  1.00  0.00    -0.012 C  
BRANCH  28  34
HETATM   34  C   UNL     1      -7.445   3.994  66.526  1.00  0.00    -0.084 C  
HETATM   35  S   UNL     1      -8.806   2.857  66.316  1.00  0.00    -0.149 S  
HETATM   36  O   UNL     1      -9.375   2.527  67.605  1.00  0.00    -0.187 OA 
HETATM   37  O   UNL     1      -7.913   1.566  65.920  1.00  0.00    -0.066 OA 
HETATM   38  O   UNL     1      -9.614   3.162  65.164  1.00  0.00    -0.147 OA 
ENDBRANCH  28  34
ENDBRANCH  20  23
ENDBRANCH   8  17
TORSDOF 4
ENDMDL
MODEL       72
REMARK 921   NORMALIZED FREE ENERGY PREDICTED BY IDOCK:   -3.69 KCAL/MOL
REMARK 922        TOTAL FREE ENERGY PREDICTED BY IDOCK:   -5.04 KCAL/MOL
REMARK 923 INTER-LIGAND FREE ENERGY PREDICTED BY IDOCK:   -5.77 KCAL/MOL
REMARK 924 INTRA-LIGAND FREE ENERGY PREDICTED BY IDOCK:    0.73 KCAL/MOL
REMARK 927      BINDING AFFINITY PREDICTED BY RF-SCORE:    0.00 PKD
ROOT
HETATM    1  C   UNL     1     -12.879  16.349  72.976  1.00  0.00    -0.233 C  
HETATM    2  C   UNL     1     -12.358  15.059  72.300  1.00  0.00    -0.434 C  
HETATM    3  C   UNL     1     -11.307  14.468  73.263  1.00  0.00     1.040 C  
HETATM    4  C   UNL     1     -13.489  14.069  71.916  1.00  0.00    -0.506 C  
HETATM    5  C   UNL     1     -14.277  14.865  70.837  1.00  0.00    -0.031 C  
HETATM    6  C   UNL     1     -13.182  15.703  70.109  1.00  0.00     0.377 C  
HETATM    7  C   UNL     1     -11.880  15.245  70.811  1.00  0.00    -0.381 C  
HETATM    8  C   UNL     1     -12.766  11.649  71.293  1.00  0.00    -0.444 C  
HETATM    9  C   UNL     1     -11.774  13.797  70.349  1.00  0.00    -0.171 C  
HETATM   10  O   UNL     1     -11.192  13.412  69.350  1.00  0.00    -0.244 OA 
HETATM   11  C   UNL     1     -12.715  12.984  71.187  1.00  0.00    -0.372 C  
ENDROOT
BRANCH   7  12
HETATM   12  C   UNL     1     -10.611  16.062  70.650  1.00  0.00     0.102 C  
HETATM   13  S   UNL     1     -10.150  16.584  69.003  1.00  0.00    -0.291 S  
HETATM   14  O   UNL     1      -8.988  17.440  69.128  1.00  0.00    -0.117 OA 
HETATM   15  O   UNL     1     -11.326  17.000  68.280  1.00  0.00    -0.174 OA 
HETATM   16  O   UNL     1      -9.644  15.185  68.382  1.00  0.00    -0.202 OA 
ENDBRANCH   7  12
BRANCH   8  17
HETATM   17  C   UNL     1     -11.916  10.755  70.496  1.00  0.00    -0.456 A  
HETATM   18  C   UNL     1     -10.932   9.960  71.097  1.00  0.00    -0.298 A  
HETATM   19  C   UNL     1     -10.040   9.226  70.303  1.00  0.00    -0.262 A  
HETATM   20  C   UNL     1     -10.120   9.281  68.909  1.00  0.00    -0.207 A  
HETATM   21  C   UNL     1     -12.025  10.773  69.100  1.00  0.00    -0.302 A  
HETATM   22  C   UNL     1     -11.133  10.038  68.311  1.00  0.00    -0.247 A  
BRANCH  20  23
HETATM   23  C   UNL     1      -9.131   8.589  68.083  1.00  0.00    -0.138 C  
HETATM   24  C   UNL     1      -9.147   7.271  67.878  1.00  0.00    -0.132 C  
HETATM   25  C   UNL     1     -10.056   6.172  68.370  1.00  0.00    -0.186 C  
HETATM   26  C   UNL     1     -10.892   5.748  67.143  1.00  0.00    -0.308 C  
HETATM   27  C   UNL     1      -9.869   4.998  66.247  1.00  0.00    -0.217 C  
HETATM   28  C   UNL     1      -8.553   5.050  67.070  1.00  0.00    -0.105 C  
HETATM   29  C   UNL     1      -9.073   4.980  68.553  1.00  0.00    -0.136 C  
HETATM   30  C   UNL     1      -9.785   3.669  68.941  1.00  0.00    -0.058 C  
HETATM   31  C   UNL     1      -8.142   6.520  67.043  1.00  0.00    -0.113 C  
HETATM   32  O   UNL     1      -7.183   7.016  66.488  1.00  0.00    -0.078 OA 
HETATM   33  C   UNL     1      -7.981   5.215  69.624  1.00  0.00    -0.079 C  
BRANCH  28  34
HETATM   34  C   UNL     1      -7.475   4.041  66.726  1.00  0.00    -0.073 C  
HETATM   35  S   UNL     1      -7.767   3.047  65.271  1.00  0.00    -0.082 S  
HETATM   36  O   UNL     1      -8.933   2.214  65.470  1.00  0.00    -0.125 OA 
HETATM   37  O   UNL     1      -6.510   2.046  65.472  1.00  0.00    -0.023 OA 
HETATM   38  O   UNL     1      -7.523   3.766  64.048  1.00  0.00    -0.061 OA 
ENDBRANCH  28  34
ENDBRANCH  20  23
ENDBRANCH   8  17
TORSDOF 4
ENDMDL
MODEL       73
REMARK 921   NORMALIZED FREE ENERGY PREDICTED BY IDOCK:   -3.60 KCAL/MOL
REMARK 922        TOTAL FREE ENERGY PREDICTED BY IDOCK:   -4.92 KCAL/MOL
REMARK 923 INTER-LIGAND FREE ENERGY PREDICTED BY IDOCK:   -6.73 KCAL/MOL
REMARK 924 INTRA-LIGAND FREE ENERGY PREDICTED BY IDOCK:    1.80 KCAL/MOL
REMARK 927      BINDING AFFINITY PREDICTED BY RF-SCORE:    0.00 PKD
ROOT
HETATM    1  C   UNL     1     -10.518  17.500  66.873  1.00  0.00    -0.285 C  
HETATM    2  C   UNL     1      -9.675  16.206  66.964  1.00  0.00    -0.236 C  
HETATM    3  C   UNL     1      -8.399  16.471  66.136  1.00  0.00    -0.305 C  
HETATM    4  C   UNL     1      -9.398  15.756  68.423  1.00  0.00    -0.196 C  
HETATM    5  C   UNL     1     -10.824  15.411  68.941  1.00  0.00    -0.251 C  
HETATM    6  C   UNL     1     -11.560  14.857  67.683  1.00  0.00    -0.357 C  
HETATM    7  C   UNL     1     -10.454  14.887  66.600  1.00  0.00    -0.292 C  
HETATM    8  C   UNL     1      -7.556  13.951  68.763  1.00  0.00    -0.108 C  
HETATM    9  C   UNL     1      -9.492  13.822  67.112  1.00  0.00    -0.244 C  
HETATM   10  O   UNL     1      -9.528  12.637  66.826  1.00  0.00    -0.224 OA 
HETATM   11  C   UNL     1      -8.674  14.438  68.208  1.00  0.00    -0.180 C  
ENDROOT
BRANCH   7  12
HETATM   12  C   UNL     1     -10.831  14.757  65.136  1.00  0.00    -0.404 C  
HETATM   13  S   UNL     1     -12.323  13.859  64.728  1.00  0.00    -0.377 S  
HETATM   14  O   UNL     1     -12.525  13.980  63.299  1.00  0.00    -0.795 OA 
HETATM   15  O   UNL     1     -13.360  14.187  65.674  1.00  0.00    -0.602 OA 
HETATM   16  O   UNL     1     -11.840  12.346  65.011  1.00  0.00    -0.366 OA 
ENDBRANCH   7  12
BRANCH   8  17
HETATM   17  C   UNL     1      -7.001  12.638  68.411  1.00  0.00    -0.094 A  
HETATM   18  C   UNL     1      -7.314  12.019  67.195  1.00  0.00    -0.134 A  
HETATM   19  C   UNL     1      -6.889  10.707  66.944  1.00  0.00    -0.099 A  
HETATM   20  C   UNL     1      -6.154  10.003  67.903  1.00  0.00    -0.053 A  
HETATM   21  C   UNL     1      -6.225  11.949  69.351  1.00  0.00    -0.108 A  
HETATM   22  C   UNL     1      -5.802  10.640  69.097  1.00  0.00    -0.040 A  
BRANCH  20  23
HETATM   23  C   UNL     1      -5.791   8.605  67.677  1.00  0.00    -0.043 C  
HETATM   24  C   UNL     1      -6.427   7.584  68.254  1.00  0.00    -0.049 C  
HETATM   25  C   UNL     1      -7.579   7.517  69.226  1.00  0.00    -0.100 C  
HETATM   26  C   UNL     1      -8.779   6.995  68.407  1.00  0.00    -0.125 C  
HETATM   27  C   UNL     1      -8.428   5.502  68.159  1.00  0.00    -0.098 C  
HETATM   28  C   UNL     1      -7.068   5.319  68.886  1.00  0.00    -0.061 C  
HETATM   29  C   UNL     1      -7.202   6.296  70.112  1.00  0.00    -0.080 C  
HETATM   30  C   UNL     1      -8.300   5.930  71.130  1.00  0.00    -0.124 C  
HETATM   31  C   UNL     1      -6.078   6.132  68.056  1.00  0.00    -0.024 C  
HETATM   32  O   UNL     1      -5.159   5.720  67.378  1.00  0.00    -0.004 OA 
HETATM   33  C   UNL     1      -5.898   6.480  70.926  1.00  0.00    -0.027 C  
BRANCH  28  34
HETATM   34  C   UNL     1      -6.652   3.906  69.241  1.00  0.00    -0.037 C  
HETATM   35  S   UNL     1      -7.969   2.704  69.348  1.00  0.00    -0.040 S  
HETATM   36  O   UNL     1      -8.868   3.054  70.426  1.00  0.00    -0.068 OA 
HETATM   37  O   UNL     1      -7.072   1.494  69.940  1.00  0.00    -0.033 OA 
HETATM   38  O   UNL     1      -8.435   2.271  68.056  1.00  0.00    -0.066 OA 
ENDBRANCH  28  34
ENDBRANCH  20  23
ENDBRANCH   8  17
TORSDOF 4
ENDMDL
MODEL       74
REMARK 921   NORMALIZED FREE ENERGY PREDICTED BY IDOCK:   -3.58 KCAL/MOL
REMARK 922        TOTAL FREE ENERGY PREDICTED BY IDOCK:   -4.90 KCAL/MOL
REMARK 923 INTER-LIGAND FREE ENERGY PREDICTED BY IDOCK:   -7.18 KCAL/MOL
REMARK 924 INTRA-LIGAND FREE ENERGY PREDICTED BY IDOCK:    2.27 KCAL/MOL
REMARK 927      BINDING AFFINITY PREDICTED BY RF-SCORE:    0.00 PKD
ROOT
HETATM    1  C   UNL     1      -6.612  20.880  66.536  1.00  0.00    -0.327 C  
HETATM    2  C   UNL     1      -7.292  19.506  66.748  1.00  0.00    -0.242 C  
HETATM    3  C   UNL     1      -8.694  19.622  66.114  1.00  0.00    -0.361 C  
HETATM    4  C   UNL     1      -6.453  18.317  66.209  1.00  0.00    -0.249 C  
HETATM    5  C   UNL     1      -5.196  18.354  67.125  1.00  0.00    -0.139 C  
HETATM    6  C   UNL     1      -5.744  18.849  68.499  1.00  0.00    -0.213 C  
HETATM    7  C   UNL     1      -7.263  18.981  68.233  1.00  0.00    -0.306 C  
HETATM    8  C   UNL     1      -7.672  16.031  65.978  1.00  0.00     0.786 C  
HETATM    9  C   UNL     1      -7.670  17.525  68.042  1.00  0.00    -0.211 C  
HETATM   10  O   UNL     1      -8.043  16.772  68.924  1.00  0.00    -0.243 OA 
HETATM   11  C   UNL     1      -7.286  17.126  66.648  1.00  0.00    -0.285 C  
ENDROOT
BRANCH   7  12
HETATM   12  C   UNL     1      -8.131  19.766  69.199  1.00  0.00    -0.020 C  
HETATM   13  S   UNL     1      -9.904  19.711  68.973  1.00  0.00    -0.301 S  
HETATM   14  O   UNL     1     -10.505  20.428  70.078  1.00  0.00     0.153 OA 
HETATM   15  O   UNL     1     -10.307  18.370  68.627  1.00  0.00    -0.363 OA 
HETATM   16  O   UNL     1     -10.062  20.639  67.664  1.00  0.00    -0.368 OA 
ENDBRANCH   7  12
BRANCH   8  17
HETATM   17  C   UNL     1      -8.498  14.979  66.583  1.00  0.00    -0.192 A  
HETATM   18  C   UNL     1      -9.896  15.048  66.558  1.00  0.00    -0.276 A  
HETATM   19  C   UNL     1     -10.660  14.110  67.266  1.00  0.00    -0.277 A  
HETATM   20  C   UNL     1     -10.037  13.100  68.005  1.00  0.00    -0.232 A  
HETATM   21  C   UNL     1      -7.876  13.940  67.286  1.00  0.00    -0.134 A  
HETATM   22  C   UNL     1      -8.642  13.004  67.991  1.00  0.00    -0.186 A  
BRANCH  20  23
HETATM   23  C   UNL     1     -10.832  12.179  68.816  1.00  0.00    -0.265 C  
HETATM   24  C   UNL     1     -10.434  10.942  69.116  1.00  0.00    -0.248 C  
HETATM   25  C   UNL     1      -9.198  10.153  68.761  1.00  0.00    -0.164 C  
HETATM   26  C   UNL     1      -8.374  10.068  70.064  1.00  0.00    -0.137 C  
HETATM   27  C   UNL     1      -9.190   9.085  70.947  1.00  0.00    -0.320 C  
HETATM   28  C   UNL     1     -10.389   8.688  70.044  1.00  0.00    -0.213 C  
HETATM   29  C   UNL     1      -9.754   8.709  68.605  1.00  0.00    -0.171 C  
HETATM   30  C   UNL     1      -8.650   7.663  68.356  1.00  0.00    -0.124 C  
HETATM   31  C   UNL     1     -11.227   9.960  69.940  1.00  0.00    -0.250 C  
HETATM   32  O   UNL     1     -12.333  10.164  70.397  1.00  0.00    -0.257 OA 
HETATM   33  C   UNL     1     -10.777   8.542  67.454  1.00  0.00    -0.215 C  
BRANCH  28  34
HETATM   34  C   UNL     1     -11.134   7.416  70.393  1.00  0.00    -0.265 C  
HETATM   35  S   UNL     1     -11.275   7.042  72.134  1.00  0.00    -0.265 S  
HETATM   36  O   UNL     1      -9.962   6.808  72.695  1.00  0.00    -0.168 OA 
HETATM   37  O   UNL     1     -11.913   5.564  71.957  1.00  0.00     0.024 OA 
HETATM   38  O   UNL     1     -12.273   7.840  72.796  1.00  0.00    -0.156 OA 
ENDBRANCH  28  34
ENDBRANCH  20  23
ENDBRANCH   8  17
TORSDOF 4
ENDMDL
MODEL       75
REMARK 921   NORMALIZED FREE ENERGY PREDICTED BY IDOCK:   -3.15 KCAL/MOL
REMARK 922        TOTAL FREE ENERGY PREDICTED BY IDOCK:   -4.37 KCAL/MOL
REMARK 923 INTER-LIGAND FREE ENERGY PREDICTED BY IDOCK:   -6.77 KCAL/MOL
REMARK 924 INTRA-LIGAND FREE ENERGY PREDICTED BY IDOCK:    2.40 KCAL/MOL
REMARK 927      BINDING AFFINITY PREDICTED BY RF-SCORE:    0.00 PKD
ROOT
HETATM    1  C   UNL     1     -10.595  17.991  67.635  1.00  0.00    -0.413 C  
HETATM    2  C   UNL     1     -10.395  16.469  67.832  1.00  0.00    -0.294 C  
HETATM    3  C   UNL     1     -10.480  16.222  69.353  1.00  0.00    -0.292 C  
HETATM    4  C   UNL     1     -11.379  15.609  66.996  1.00  0.00    -0.051 C  
HETATM    5  C   UNL     1     -10.957  15.943  65.537  1.00  0.00    -0.248 C  
HETATM    6  C   UNL     1      -9.417  16.169  65.631  1.00  0.00    -0.136 C  
HETATM    7  C   UNL     1      -9.120  15.877  67.122  1.00  0.00    -0.226 C  
HETATM    8  C   UNL     1     -11.556  13.090  67.621  1.00  0.00    -0.403 C  
HETATM    9  C   UNL     1      -9.399  14.382  67.206  1.00  0.00    -0.208 C  
HETATM   10  O   UNL     1      -8.581  13.496  67.026  1.00  0.00    -0.208 OA 
HETATM   11  C   UNL     1     -10.886  14.203  67.289  1.00  0.00    -0.288 C  
ENDROOT
BRANCH   7  12
HETATM   12  C   UNL     1      -7.798  16.315  67.725  1.00  0.00    -0.142 C  
HETATM   13  S   UNL     1      -6.887  15.129  68.706  1.00  0.00    -0.115 S  
HETATM   14  O   UNL     1      -5.622  15.739  69.060  1.00  0.00    -0.103 OA 
HETATM   15  O   UNL     1      -6.957  13.830  68.084  1.00  0.00    -0.091 OA 
HETATM   16  O   UNL     1      -7.789  15.099  70.042  1.00  0.00    -0.056 OA 
ENDBRANCH   7  12
BRANCH   8  17
HETATM   17  C   UNL     1     -10.888  11.808  67.879  1.00  0.00    -0.255 A  
HETATM   18  C   UNL     1     -10.202  11.573  69.077  1.00  0.00    -0.109 A  
HETATM   19  C   UNL     1      -9.453  10.400  69.240  1.00  0.00    -0.214 A  
HETATM   20  C   UNL     1      -9.380   9.455  68.212  1.00  0.00    -0.140 A  
HETATM   21  C   UNL     1     -10.852  10.840  66.867  1.00  0.00    -0.288 A  
HETATM   22  C   UNL     1     -10.104   9.669  67.034  1.00  0.00    -0.275 A  
BRANCH  20  23
HETATM   23  C   UNL     1      -8.525   8.277  68.349  1.00  0.00    -0.129 C  
HETATM   24  C   UNL     1      -8.891   7.185  69.020  1.00  0.00    -0.131 C  
HETATM   25  C   UNL     1     -10.140   6.828  69.788  1.00  0.00    -0.198 C  
HETATM   26  C   UNL     1     -10.875   5.786  68.918  1.00  0.00    -0.305 C  
HETATM   27  C   UNL     1      -9.994   4.514  69.051  1.00  0.00    -0.151 C  
HETATM   28  C   UNL     1      -8.854   4.956  70.007  1.00  0.00    -0.126 C  
HETATM   29  C   UNL     1      -9.582   5.974  70.961  1.00  0.00    -0.197 C  
HETATM   30  C   UNL     1     -10.691   5.370  71.846  1.00  0.00    -0.275 C  
HETATM   31  C   UNL     1      -8.036   5.956  69.192  1.00  0.00    -0.106 C  
HETATM   32  O   UNL     1      -6.904   5.827  68.772  1.00  0.00    -0.061 OA 
HETATM   33  C   UNL     1      -8.636   6.743  71.915  1.00  0.00    -0.120 C  
BRANCH  28  34
HETATM   34  C   UNL     1      -8.075   3.866  70.715  1.00  0.00    -0.062 C  
HETATM   35  S   UNL     1      -8.911   2.298  70.898  1.00  0.00    -0.089 S  
HETATM   36  O   UNL     1     -10.078   2.457  71.739  1.00  0.00    -0.161 OA 
HETATM   37  O   UNL     1      -7.806   1.606  71.858  1.00  0.00    -0.040 OA 
HETATM   38  O   UNL     1      -8.930   1.531  69.679  1.00  0.00    -0.065 OA 
ENDBRANCH  28  34
ENDBRANCH  20  23
ENDBRANCH   8  17
TORSDOF 4
ENDMDL
MODEL       76
REMARK 921   NORMALIZED FREE ENERGY PREDICTED BY IDOCK:   -3.08 KCAL/MOL
REMARK 922        TOTAL FREE ENERGY PREDICTED BY IDOCK:   -4.29 KCAL/MOL
REMARK 923 INTER-LIGAND FREE ENERGY PREDICTED BY IDOCK:   -4.60 KCAL/MOL
REMARK 924 INTRA-LIGAND FREE ENERGY PREDICTED BY IDOCK:    0.31 KCAL/MOL
REMARK 927      BINDING AFFINITY PREDICTED BY RF-SCORE:    0.00 PKD
ROOT
HETATM    1  C   UNL     1      -8.460   6.057  64.791  1.00  0.00    -0.032 C  
HETATM    2  C   UNL     1      -8.157   7.301  65.660  1.00  0.00    -0.133 C  
HETATM    3  C   UNL     1      -9.291   7.377  66.704  1.00  0.00    -0.215 C  
HETATM    4  C   UNL     1      -6.733   7.285  66.276  1.00  0.00    -0.053 C  
HETATM    5  C   UNL     1      -5.824   7.373  65.016  1.00  0.00    -0.037 C  
HETATM    6  C   UNL     1      -6.641   8.254  64.021  1.00  0.00    -0.071 C  
HETATM    7  C   UNL     1      -7.898   8.624  64.846  1.00  0.00    -0.116 C  
HETATM    8  C   UNL     1      -6.262   8.989  68.184  1.00  0.00    -0.054 C  
HETATM    9  C   UNL     1      -7.306   9.525  65.922  1.00  0.00    -0.097 C  
HETATM   10  O   UNL     1      -7.185  10.735  65.847  1.00  0.00    -0.144 OA 
HETATM   11  C   UNL     1      -6.676   8.641  66.958  1.00  0.00    -0.062 C  
ENDROOT
BRANCH   7  12
HETATM   12  C   UNL     1      -9.120   9.185  64.144  1.00  0.00     0.112 C  
HETATM   13  S   UNL     1      -8.930  10.692  63.199  1.00  0.00    -0.265 S  
HETATM   14  O   UNL     1     -10.191  10.950  62.535  1.00  0.00     0.016 OA 
HETATM   15  O   UNL     1      -7.683  10.656  62.476  1.00  0.00    -0.157 OA 
HETATM   16  O   UNL     1      -8.792  11.769  64.390  1.00  0.00     0.383 OA 
ENDBRANCH   7  12
BRANCH   8  17
HETATM   17  C   UNL     1      -6.295  10.373  68.671  1.00  0.00    -0.051 A  
HETATM   18  C   UNL     1      -7.486  10.958  69.120  1.00  0.00    -0.130 A  
HETATM   19  C   UNL     1      -7.523  12.321  69.443  1.00  0.00     0.368 A  
HETATM   20  C   UNL     1      -6.376  13.111  69.318  1.00  0.00    -0.106 A  
HETATM   21  C   UNL     1      -5.136  11.155  68.591  1.00  0.00    -0.040 A  
HETATM   22  C   UNL     1      -5.176  12.516  68.915  1.00  0.00    -0.055 A  
BRANCH  20  23
HETATM   23  C   UNL     1      -6.438  14.551  69.567  1.00  0.00    -0.134 C  
HETATM   24  C   UNL     1      -7.326  15.354  68.981  1.00  0.00    -0.159 C  
HETATM   25  C   UNL     1      -8.424  15.103  67.976  1.00  0.00    -0.148 C  
HETATM   26  C   UNL     1      -9.744  15.244  68.765  1.00  0.00    -0.212 C  
HETATM   27  C   UNL     1      -9.845  16.769  69.037  1.00  0.00    -0.260 C  
HETATM   28  C   UNL     1      -8.578  17.349  68.351  1.00  0.00    -0.270 C  
HETATM   29  C   UNL     1      -8.392  16.396  67.113  1.00  0.00    -0.214 C  
HETATM   30  C   UNL     1      -9.523  16.448  66.066  1.00  0.00    -0.345 C  
HETATM   31  C   UNL     1      -7.416  16.842  69.203  1.00  0.00    -0.180 C  
HETATM   32  O   UNL     1      -6.673  17.490  69.912  1.00  0.00    -0.020 OA 
HETATM   33  C   UNL     1      -7.071  16.610  66.336  1.00  0.00    -0.117 C  
BRANCH  28  34
HETATM   34  C   UNL     1      -8.578  18.828  68.022  1.00  0.00    -0.297 C  
HETATM   35  S   UNL     1     -10.133  19.680  68.239  1.00  0.00    -0.459 S  
HETATM   36  O   UNL     1     -11.118  19.147  67.323  1.00  0.00    -0.417 OA 
HETATM   37  O   UNL     1      -9.674  21.083  67.575  1.00  0.00    -0.385 OA 
HETATM   38  O   UNL     1     -10.427  19.960  69.620  1.00  0.00    -0.045 OA 
ENDBRANCH  28  34
ENDBRANCH  20  23
ENDBRANCH   8  17
TORSDOF 4
ENDMDL
MODEL       77
REMARK 921   NORMALIZED FREE ENERGY PREDICTED BY IDOCK:   -2.85 KCAL/MOL
REMARK 922        TOTAL FREE ENERGY PREDICTED BY IDOCK:   -4.00 KCAL/MOL
REMARK 923 INTER-LIGAND FREE ENERGY PREDICTED BY IDOCK:   -6.15 KCAL/MOL
REMARK 924 INTRA-LIGAND FREE ENERGY PREDICTED BY IDOCK:    2.15 KCAL/MOL
REMARK 927      BINDING AFFINITY PREDICTED BY RF-SCORE:    0.00 PKD
ROOT
HETATM    1  C   UNL     1      -9.833   6.360  71.214  1.00  0.00    -0.200 C  
HETATM    2  C   UNL     1      -9.150   7.659  70.726  1.00  0.00    -0.153 C  
HETATM    3  C   UNL     1      -9.371   8.702  71.843  1.00  0.00    -0.357 C  
HETATM    4  C   UNL     1      -7.661   7.460  70.336  1.00  0.00    -0.093 C  
HETATM    5  C   UNL     1      -7.763   6.507  69.111  1.00  0.00    -0.102 C  
HETATM    6  C   UNL     1      -9.091   6.930  68.412  1.00  0.00    -0.126 C  
HETATM    7  C   UNL     1      -9.570   8.119  69.280  1.00  0.00    -0.164 C  
HETATM    8  C   UNL     1      -6.230   9.611  70.035  1.00  0.00    -0.055 C  
HETATM    9  C   UNL     1      -8.506   9.167  68.979  1.00  0.00    -0.132 C  
HETATM   10  O   UNL     1      -8.557   9.995  68.086  1.00  0.00    -0.117 OA 
HETATM   11  C   UNL     1      -7.296   8.833  69.800  1.00  0.00    -0.052 C  
ENDROOT
BRANCH   7  12
HETATM   12  C   UNL     1     -11.001   8.609  69.161  1.00  0.00     0.063 C  
HETATM   13  S   UNL     1     -11.410  10.193  69.883  1.00  0.00    -0.270 S  
HETATM   14  O   UNL     1     -12.785  10.487  69.534  1.00  0.00    -0.174 OA 
HETATM   15  O   UNL     1     -10.345  11.130  69.631  1.00  0.00    -0.073 OA 
HETATM   16  O   UNL     1     -11.390   9.815  71.450  1.00  0.00    -0.369 OA 
ENDBRANCH   7  12
BRANCH   8  17
HETATM   17  C   UNL     1      -6.059  10.933  69.419  1.00  0.00    -0.056 A  
HETATM   18  C   UNL     1      -6.333  12.107  70.131  1.00  0.00     0.026 A  
HETATM   19  C   UNL     1      -6.302  13.348  69.479  1.00  0.00    -0.106 A  
HETATM   20  C   UNL     1      -6.002  13.427  68.116  1.00  0.00    -0.112 A  
HETATM   21  C   UNL     1      -5.713  11.017  68.065  1.00  0.00    -0.042 A  
HETATM   22  C   UNL     1      -5.682  12.257  67.417  1.00  0.00    -0.139 A  
BRANCH  20  23
HETATM   23  C   UNL     1      -6.060  14.710  67.418  1.00  0.00     0.197 C  
HETATM   24  C   UNL     1      -7.122  15.515  67.460  1.00  0.00    -0.220 C  
HETATM   25  C   UNL     1      -8.466  15.398  68.136  1.00  0.00    -0.147 C  
HETATM   26  C   UNL     1      -8.430  16.409  69.303  1.00  0.00    -0.092 C  
HETATM   27  C   UNL     1      -8.501  17.788  68.592  1.00  0.00    -0.271 C  
HETATM   28  C   UNL     1      -8.595  17.421  67.086  1.00  0.00    -0.233 C  
HETATM   29  C   UNL     1      -9.418  16.080  67.112  1.00  0.00    -0.225 C  
HETATM   30  C   UNL     1     -10.866  16.204  67.627  1.00  0.00    -0.297 C  
HETATM   31  C   UNL     1      -7.225  16.839  66.747  1.00  0.00    -0.235 C  
HETATM   32  O   UNL     1      -6.371  17.313  66.026  1.00  0.00    -0.175 OA 
HETATM   33  C   UNL     1      -9.504  15.358  65.745  1.00  0.00    -0.325 C  
BRANCH  28  34
HETATM   34  C   UNL     1      -9.132  18.478  66.143  1.00  0.00    -0.114 C  
HETATM   35  S   UNL     1     -10.075  19.796  66.896  1.00  0.00    -0.473 S  
HETATM   36  O   UNL     1     -11.278  19.260  67.495  1.00  0.00    -0.326 OA 
HETATM   37  O   UNL     1     -10.574  20.481  65.517  1.00  0.00    -0.082 OA 
HETATM   38  O   UNL     1      -9.243  20.768  67.557  1.00  0.00    -0.325 OA 
ENDBRANCH  28  34
ENDBRANCH  20  23
ENDBRANCH   8  17
TORSDOF 4
ENDMDL
MODEL       78
REMARK 921   NORMALIZED FREE ENERGY PREDICTED BY IDOCK:   -2.81 KCAL/MOL
REMARK 922        TOTAL FREE ENERGY PREDICTED BY IDOCK:   -3.96 KCAL/MOL
REMARK 923 INTER-LIGAND FREE ENERGY PREDICTED BY IDOCK:   -4.40 KCAL/MOL
REMARK 924 INTRA-LIGAND FREE ENERGY PREDICTED BY IDOCK:    0.45 KCAL/MOL
REMARK 927      BINDING AFFINITY PREDICTED BY RF-SCORE:    0.00 PKD
ROOT
HETATM    1  C   UNL     1      -8.972   2.970  68.312  1.00  0.00    -0.190 C  
HETATM    2  C   UNL     1      -8.987   4.492  68.036  1.00  0.00    -0.136 C  
HETATM    3  C   UNL     1      -8.190   4.696  66.730  1.00  0.00    -0.106 C  
HETATM    4  C   UNL     1     -10.416   5.095  68.003  1.00  0.00    -0.088 C  
HETATM    5  C   UNL     1     -10.898   4.890  69.468  1.00  0.00     0.742 C  
HETATM    6  C   UNL     1      -9.600   5.045  70.319  1.00  0.00    -0.255 C  
HETATM    7  C   UNL     1      -8.531   5.385  69.251  1.00  0.00    -0.099 C  
HETATM    8  C   UNL     1     -10.656   7.489  67.013  1.00  0.00    -0.409 C  
HETATM    9  C   UNL     1      -8.982   6.766  68.793  1.00  0.00    -0.130 C  
HETATM   10  O   UNL     1      -8.621   7.826  69.273  1.00  0.00    -0.136 OA 
HETATM   11  C   UNL     1     -10.123   6.576  67.838  1.00  0.00    -0.170 C  
ENDROOT
BRANCH   7  12
HETATM   12  C   UNL     1      -7.059   5.276  69.600  1.00  0.00    -0.059 C  
HETATM   13  S   UNL     1      -6.617   5.010  71.313  1.00  0.00    -0.040 S  
HETATM   14  O   UNL     1      -5.182   4.821  71.367  1.00  0.00    -0.004 OA 
HETATM   15  O   UNL     1      -7.531   4.067  71.908  1.00  0.00    -0.057 OA 
HETATM   16  O   UNL     1      -6.927   6.469  71.925  1.00  0.00    -0.069 OA 
ENDBRANCH   7  12
BRANCH   8  17
HETATM   17  C   UNL     1     -10.225   8.892  66.996  1.00  0.00    -0.345 A  
HETATM   18  C   UNL     1      -9.000   9.269  66.433  1.00  0.00    -0.185 A  
HETATM   19  C   UNL     1      -8.546  10.590  66.557  1.00  0.00    -0.140 A  
HETATM   20  C   UNL     1      -9.307  11.541  67.243  1.00  0.00    -0.170 A  
HETATM   21  C   UNL     1     -11.008   9.857  67.642  1.00  0.00    -0.263 A  
HETATM   22  C   UNL     1     -10.552  11.174  67.763  1.00  0.00    -0.248 A  
BRANCH  20  23
HETATM   23  C   UNL     1      -8.790  12.893  67.450  1.00  0.00    -0.199 C  
HETATM   24  C   UNL     1      -9.505  13.992  67.209  1.00  0.00    -0.231 C  
HETATM   25  C   UNL     1     -10.906  14.205  66.692  1.00  0.00    -0.299 C  
HETATM   26  C   UNL     1     -11.726  14.688  67.908  1.00  0.00    -0.379 C  
HETATM   27  C   UNL     1     -11.205  16.131  68.148  1.00  0.00    -0.311 C  
HETATM   28  C   UNL     1     -10.154  16.334  67.024  1.00  0.00    -0.270 C  
HETATM   29  C   UNL     1     -10.757  15.496  65.837  1.00  0.00    -0.346 C  
HETATM   30  C   UNL     1     -12.100  16.009  65.282  1.00  0.00     1.003 C  
HETATM   31  C   UNL     1      -9.006  15.401  67.400  1.00  0.00    -0.191 C  
HETATM   32  O   UNL     1      -7.887  15.703  67.761  1.00  0.00    -0.130 OA 
HETATM   33  C   UNL     1      -9.813  15.346  64.618  1.00  0.00     0.943 C  
BRANCH  28  34
HETATM   34  C   UNL     1      -9.778  17.759  66.670  1.00  0.00    -0.313 C  
HETATM   35  S   UNL     1      -8.840  18.651  67.901  1.00  0.00    -0.294 S  
HETATM   36  O   UNL     1      -9.633  18.817  69.099  1.00  0.00    -0.277 OA 
HETATM   37  O   UNL     1      -8.896  20.095  67.170  1.00  0.00    -0.329 OA 
HETATM   38  O   UNL     1      -7.453  18.264  67.933  1.00  0.00    -0.224 OA 
ENDBRANCH  28  34
ENDBRANCH  20  23
ENDBRANCH   8  17
TORSDOF 4
ENDMDL
MODEL       79
REMARK 921   NORMALIZED FREE ENERGY PREDICTED BY IDOCK:   -2.75 KCAL/MOL
REMARK 922        TOTAL FREE ENERGY PREDICTED BY IDOCK:   -3.89 KCAL/MOL
REMARK 923 INTER-LIGAND FREE ENERGY PREDICTED BY IDOCK:   -4.47 KCAL/MOL
REMARK 924 INTRA-LIGAND FREE ENERGY PREDICTED BY IDOCK:    0.58 KCAL/MOL
REMARK 927      BINDING AFFINITY PREDICTED BY RF-SCORE:    0.00 PKD
ROOT
HETATM    1  C   UNL     1      -8.915   2.837  73.862  1.00  0.00    -0.077 C  
HETATM    2  C   UNL     1      -9.000   4.184  73.108  1.00  0.00    -0.113 C  
HETATM    3  C   UNL     1     -10.492   4.391  72.771  1.00  0.00    -0.253 C  
HETATM    4  C   UNL     1      -8.360   5.364  73.886  1.00  0.00    -0.114 C  
HETATM    5  C   UNL     1      -6.859   4.958  73.933  1.00  0.00    -0.075 C  
HETATM    6  C   UNL     1      -6.629   4.206  72.586  1.00  0.00    -0.036 C  
HETATM    7  C   UNL     1      -8.008   4.320  71.892  1.00  0.00    -0.088 C  
HETATM    8  C   UNL     1      -8.902   7.762  73.035  1.00  0.00    -0.247 C  
HETATM    9  C   UNL     1      -8.087   5.815  71.608  1.00  0.00    -0.118 C  
HETATM   10  O   UNL     1      -7.699   6.366  70.592  1.00  0.00    -0.100 OA 
HETATM   11  C   UNL     1      -8.481   6.498  72.883  1.00  0.00    -0.120 C  
ENDROOT
BRANCH   7  12
HETATM   12  C   UNL     1      -8.331   3.427  70.708  1.00  0.00    -0.064 C  
HETATM   13  S   UNL     1      -7.069   2.294  70.141  1.00  0.00    -0.033 S  
HETATM   14  O   UNL     1      -7.655   1.479  69.096  1.00  0.00    -0.042 OA 
HETATM   15  O   UNL     1      -6.398   1.709  71.275  1.00  0.00    -0.017 OA 
HETATM   16  O   UNL     1      -6.052   3.321  69.426  1.00  0.00    -0.023 OA 
ENDBRANCH   7  12
BRANCH   8  17
HETATM   17  C   UNL     1      -8.956   8.720  71.924  1.00  0.00    -0.254 A  
HETATM   18  C   UNL     1     -10.179   9.180  71.419  1.00  0.00    -0.402 A  
HETATM   19  C   UNL     1     -10.209   9.979  70.268  1.00  0.00    -0.266 A  
HETATM   20  C   UNL     1      -9.023  10.324  69.612  1.00  0.00    -0.140 A  
HETATM   21  C   UNL     1      -7.767   9.104  71.292  1.00  0.00    -0.065 A  
HETATM   22  C   UNL     1      -7.800   9.903  70.144  1.00  0.00    -0.186 A  
BRANCH  20  23
HETATM   23  C   UNL     1      -9.063  11.080  68.361  1.00  0.00    -0.161 C  
HETATM   24  C   UNL     1      -8.703  12.361  68.272  1.00  0.00    -0.175 C  
HETATM   25  C   UNL     1      -8.209  13.356  69.293  1.00  0.00     0.635 C  
HETATM   26  C   UNL     1      -6.710  13.556  68.982  1.00  0.00    -0.112 C  
HETATM   27  C   UNL     1      -6.717  14.368  67.658  1.00  0.00    -0.188 C  
HETATM   28  C   UNL     1      -8.227  14.571  67.361  1.00  0.00    -0.220 C  
HETATM   29  C   UNL     1      -8.848  14.686  68.802  1.00  0.00    -0.166 C  
HETATM   30  C   UNL     1      -8.391  15.910  69.620  1.00  0.00     0.064 C  
HETATM   31  C   UNL     1      -8.738  13.177  67.006  1.00  0.00    -0.189 C  
HETATM   32  O   UNL     1      -9.130  12.778  65.928  1.00  0.00     0.019 OA 
HETATM   33  C   UNL     1     -10.395  14.697  68.832  1.00  0.00    -0.245 C  
BRANCH  28  34
HETATM   34  C   UNL     1      -8.607  15.691  66.413  1.00  0.00    -0.284 C  
HETATM   35  S   UNL     1      -7.577  17.149  66.469  1.00  0.00    -0.312 S  
HETATM   36  O   UNL     1      -7.685  17.778  67.768  1.00  0.00    -0.207 OA 
HETATM   37  O   UNL     1      -8.492  18.063  65.495  1.00  0.00    -0.154 OA 
HETATM   38  O   UNL     1      -6.318  16.968  65.794  1.00  0.00     0.057 OA 
ENDBRANCH  28  34
ENDBRANCH  20  23
ENDBRANCH   8  17
TORSDOF 4
ENDMDL
MODEL       80
REMARK 921   NORMALIZED FREE ENERGY PREDICTED BY IDOCK:   -2.60 KCAL/MOL
REMARK 922        TOTAL FREE ENERGY PREDICTED BY IDOCK:   -3.70 KCAL/MOL
REMARK 923 INTER-LIGAND FREE ENERGY PREDICTED BY IDOCK:   -5.43 KCAL/MOL
REMARK 924 INTRA-LIGAND FREE ENERGY PREDICTED BY IDOCK:    1.73 KCAL/MOL
REMARK 927      BINDING AFFINITY PREDICTED BY RF-SCORE:    0.00 PKD
ROOT
HETATM    1  C   UNL     1     -12.705  15.464  64.858  1.00  0.00     0.578 C  
HETATM    2  C   UNL     1     -11.973  14.243  65.463  1.00  0.00    -0.386 C  
HETATM    3  C   UNL     1     -12.906  13.034  65.240  1.00  0.00    -0.284 C  
HETATM    4  C   UNL     1     -10.540  14.047  64.899  1.00  0.00    -0.442 C  
HETATM    5  C   UNL     1      -9.805  15.321  65.407  1.00  0.00    -0.318 C  
HETATM    6  C   UNL     1     -10.472  15.618  66.785  1.00  0.00    -0.297 C  
HETATM    7  C   UNL     1     -11.470  14.445  66.941  1.00  0.00    -0.379 C  
HETATM    8  C   UNL     1      -9.395  11.761  65.378  1.00  0.00    -0.095 C  
HETATM    9  C   UNL     1     -10.529  13.258  67.101  1.00  0.00    -0.248 C  
HETATM   10  O   UNL     1     -10.096  12.832  68.158  1.00  0.00    -0.226 OA 
HETATM   11  C   UNL     1     -10.037  12.883  65.735  1.00  0.00    -0.294 C  
ENDROOT
BRANCH   7  12
HETATM   12  C   UNL     1     -12.574  14.529  67.980  1.00  0.00     0.574 C  
HETATM   13  S   UNL     1     -12.102  14.701  69.696  1.00  0.00    -0.293 S  
HETATM   14  O   UNL     1     -13.317  14.881  70.464  1.00  0.00    -0.270 OA 
HETATM   15  O   UNL     1     -10.991  15.613  69.805  1.00  0.00    -0.252 OA 
HETATM   16  O   UNL     1     -11.565  13.212  70.003  1.00  0.00    -0.238 OA 
ENDBRANCH   7  12
BRANCH   8  17
HETATM   17  C   UNL     1      -8.994  10.734  66.347  1.00  0.00    -0.179 A  
HETATM   18  C   UNL     1      -9.853   9.683  66.691  1.00  0.00    -0.285 A  
HETATM   19  C   UNL     1      -9.506   8.799  67.722  1.00  0.00    -0.164 A  
HETATM   20  C   UNL     1      -8.304   8.957  68.418  1.00  0.00    -0.125 A  
HETATM   21  C   UNL     1      -7.769  10.863  67.014  1.00  0.00    -0.129 A  
HETATM   22  C   UNL     1      -7.425   9.978  68.042  1.00  0.00    -0.088 A  
BRANCH  20  23
HETATM   23  C   UNL     1      -7.987   8.091  69.552  1.00  0.00    -0.115 C  
HETATM   24  C   UNL     1      -8.019   6.759  69.485  1.00  0.00    -0.125 C  
HETATM   25  C   UNL     1      -8.364   5.801  68.371  1.00  0.00    -0.107 C  
HETATM   26  C   UNL     1      -7.021   5.172  67.939  1.00  0.00    -0.062 C  
HETATM   27  C   UNL     1      -6.661   4.235  69.124  1.00  0.00    -0.041 C  
HETATM   28  C   UNL     1      -7.852   4.408  70.104  1.00  0.00    -0.056 C  
HETATM   29  C   UNL     1      -9.065   4.640  69.131  1.00  0.00    -0.166 C  
HETATM   30  C   UNL     1      -9.416   3.449  68.217  1.00  0.00    -0.210 C  
HETATM   31  C   UNL     1      -7.709   5.833  70.632  1.00  0.00    -0.093 C  
HETATM   32  O   UNL     1      -7.428   6.186  71.760  1.00  0.00    -0.091 OA 
HETATM   33  C   UNL     1     -10.382   5.047  69.838  1.00  0.00    -0.298 C  
BRANCH  28  34
HETATM   34  C   UNL     1      -8.065   3.322  71.140  1.00  0.00    -0.062 C  
HETATM   35  S   UNL     1      -7.135   3.490  72.655  1.00  0.00    -0.045 S  
HETATM   36  O   UNL     1      -5.718   3.392  72.376  1.00  0.00    -0.007 OA 
HETATM   37  O   UNL     1      -7.529   2.049  73.279  1.00  0.00    -0.035 OA 
HETATM   38  O   UNL     1      -7.687   4.482  73.541  1.00  0.00    -0.084 OA 
ENDBRANCH  28  34
ENDBRANCH  20  23
ENDBRANCH   8  17
TORSDOF 4
ENDMDL
MODEL       81
REMARK 921   NORMALIZED FREE ENERGY PREDICTED BY IDOCK:   -2.46 KCAL/MOL
REMARK 922        TOTAL FREE ENERGY PREDICTED BY IDOCK:   -3.53 KCAL/MOL
REMARK 923 INTER-LIGAND FREE ENERGY PREDICTED BY IDOCK:   -7.80 KCAL/MOL
REMARK 924 INTRA-LIGAND FREE ENERGY PREDICTED BY IDOCK:    4.27 KCAL/MOL
REMARK 927      BINDING AFFINITY PREDICTED BY RF-SCORE:    0.00 PKD
ROOT
HETATM    1  C   UNL     1      -9.214   5.590  70.969  1.00  0.00    -0.174 C  
HETATM    2  C   UNL     1      -9.375   6.850  70.086  1.00  0.00    -0.159 C  
HETATM    3  C   UNL     1      -8.102   6.927  69.216  1.00  0.00    -0.120 C  
HETATM    4  C   UNL     1     -10.697   6.863  69.272  1.00  0.00    -0.265 C  
HETATM    5  C   UNL     1     -11.775   6.945  70.390  1.00  0.00    -0.377 C  
HETATM    6  C   UNL     1     -11.100   7.800  71.506  1.00  0.00    -0.270 C  
HETATM    7  C   UNL     1      -9.734   8.165  70.876  1.00  0.00    -0.191 C  
HETATM    8  C   UNL     1     -10.870   8.601  67.344  1.00  0.00    -0.083 C  
HETATM    9  C   UNL     1     -10.155   9.089  69.741  1.00  0.00    -0.200 C  
HETATM   10  O   UNL     1     -10.272  10.300  69.818  1.00  0.00    -0.236 OA 
HETATM   11  C   UNL     1     -10.640   8.229  68.611  1.00  0.00    -0.144 C  
ENDROOT
BRANCH   7  12
HETATM   12  C   UNL     1      -8.619   8.700  71.755  1.00  0.00    -0.173 C  
HETATM   13  S   UNL     1      -7.168   9.375  70.957  1.00  0.00     0.037 S  
HETATM   14  O   UNL     1      -6.317   9.923  71.993  1.00  0.00    -0.212 OA 
HETATM   15  O   UNL     1      -7.565  10.152  69.809  1.00  0.00    -0.141 OA 
HETATM   16  O   UNL     1      -6.465   8.022  70.433  1.00  0.00    -0.036 OA 
ENDBRANCH   7  12
BRANCH   8  17
HETATM   17  C   UNL     1     -10.751   9.992  66.890  1.00  0.00    -0.211 A  
HETATM   18  C   UNL     1      -9.693  10.401  66.069  1.00  0.00    -0.265 A  
HETATM   19  C   UNL     1      -9.521  11.759  65.767  1.00  0.00    -0.232 A  
HETATM   20  C   UNL     1     -10.399  12.718  66.284  1.00  0.00    -0.271 A  
HETATM   21  C   UNL     1     -11.656  10.948  67.368  1.00  0.00    -0.027 A  
HETATM   22  C   UNL     1     -11.482  12.303  67.065  1.00  0.00    -0.419 A  
BRANCH  20  23
HETATM   23  C   UNL     1     -10.164  14.141  66.044  1.00  0.00    -0.318 C  
HETATM   24  C   UNL     1      -9.275  14.859  66.730  1.00  0.00    -0.281 C  
HETATM   25  C   UNL     1      -8.332  14.512  67.856  1.00  0.00    -0.159 C  
HETATM   26  C   UNL     1      -6.922  14.511  67.228  1.00  0.00     0.055 C  
HETATM   27  C   UNL     1      -6.638  16.016  66.969  1.00  0.00    -0.088 C  
HETATM   28  C   UNL     1      -7.911  16.726  67.502  1.00  0.00    -0.189 C  
HETATM   29  C   UNL     1      -8.334  15.811  68.709  1.00  0.00    -0.195 C  
HETATM   30  C   UNL     1      -7.334  15.762  69.882  1.00  0.00     0.118 C  
HETATM   31  C   UNL     1      -9.011  16.328  66.521  1.00  0.00    -0.278 C  
HETATM   32  O   UNL     1      -9.598  17.038  65.730  1.00  0.00    -0.525 OA 
HETATM   33  C   UNL     1      -9.709  16.164  69.327  1.00  0.00    -0.242 C  
BRANCH  28  34
HETATM   34  C   UNL     1      -7.802  18.202  67.829  1.00  0.00    -0.235 C  
HETATM   35  S   UNL     1      -9.249  19.191  67.486  1.00  0.00    -0.301 S  
HETATM   36  O   UNL     1      -9.514  19.197  66.064  1.00  0.00    -0.437 OA 
HETATM   37  O   UNL     1      -8.567  20.630  67.781  1.00  0.00    -0.174 OA 
HETATM   38  O   UNL     1     -10.285  19.022  68.471  1.00  0.00    -0.383 OA 
ENDBRANCH  28  34
ENDBRANCH  20  23
ENDBRANCH   8  17
TORSDOF 4
ENDMDL
MODEL       82
REMARK 921   NORMALIZED FREE ENERGY PREDICTED BY IDOCK:   -2.28 KCAL/MOL
REMARK 922        TOTAL FREE ENERGY PREDICTED BY IDOCK:   -3.30 KCAL/MOL
REMARK 923 INTER-LIGAND FREE ENERGY PREDICTED BY IDOCK:   -4.60 KCAL/MOL
REMARK 924 INTRA-LIGAND FREE ENERGY PREDICTED BY IDOCK:    1.30 KCAL/MOL
REMARK 927      BINDING AFFINITY PREDICTED BY RF-SCORE:    0.00 PKD
ROOT
HETATM    1  C   UNL     1     -12.837  16.816  72.792  1.00  0.00     0.952 C  
HETATM    2  C   UNL     1     -12.531  15.324  72.522  1.00  0.00    -0.449 C  
HETATM    3  C   UNL     1     -11.728  14.826  73.743  1.00  0.00     0.024 C  
HETATM    4  C   UNL     1     -13.800  14.484  72.218  1.00  0.00    -0.587 C  
HETATM    5  C   UNL     1     -14.294  15.100  70.877  1.00  0.00    -0.078 C  
HETATM    6  C   UNL     1     -12.981  15.513  70.144  1.00  0.00    -0.035 C  
HETATM    7  C   UNL     1     -11.879  15.029  71.119  1.00  0.00    -0.382 C  
HETATM    8  C   UNL     1     -13.539  11.897  72.295  1.00  0.00    -0.109 C  
HETATM    9  C   UNL     1     -12.032  13.516  71.031  1.00  0.00     0.008 C  
HETATM   10  O   UNL     1     -11.447  12.788  70.248  1.00  0.00    -0.060 OA 
HETATM   11  C   UNL     1     -13.201  13.128  71.887  1.00  0.00    -0.526 C  
ENDROOT
BRANCH   7  12
HETATM   12  C   UNL     1     -10.458  15.538  70.961  1.00  0.00     0.327 C  
HETATM   13  S   UNL     1      -9.788  15.663  69.308  1.00  0.00    -0.284 S  
HETATM   14  O   UNL     1      -8.482  16.280  69.414  1.00  0.00    -0.200 OA 
HETATM   15  O   UNL     1     -10.798  16.169  68.412  1.00  0.00    -0.286 OA 
HETATM   16  O   UNL     1      -9.549  14.104  68.971  1.00  0.00    -0.109 OA 
ENDBRANCH   7  12
BRANCH   8  17
HETATM   17  C   UNL     1     -12.820  10.691  71.865  1.00  0.00    -0.487 A  
HETATM   18  C   UNL     1     -12.473  10.491  70.523  1.00  0.00    -0.433 A  
HETATM   19  C   UNL     1     -11.916   9.271  70.114  1.00  0.00     0.164 A  
HETATM   20  C   UNL     1     -11.705   8.243  71.038  1.00  0.00    -0.293 A  
HETATM   21  C   UNL     1     -12.565   9.677  72.797  1.00  0.00     0.483 A  
HETATM   22  C   UNL     1     -12.009   8.461  72.386  1.00  0.00    -0.451 A  
BRANCH  20  23
HETATM   23  C   UNL     1     -11.212   6.940  70.594  1.00  0.00    -0.346 C  
HETATM   24  C   UNL     1     -10.083   6.395  71.048  1.00  0.00    -0.212 C  
HETATM   25  C   UNL     1      -9.045   6.869  72.035  1.00  0.00    -0.141 C  
HETATM   26  C   UNL     1      -9.243   5.997  73.293  1.00  0.00    -0.132 C  
HETATM   27  C   UNL     1      -8.717   4.602  72.856  1.00  0.00    -0.116 C  
HETATM   28  C   UNL     1      -8.247   4.829  71.394  1.00  0.00    -0.103 C  
HETATM   29  C   UNL     1      -7.725   6.313  71.429  1.00  0.00    -0.100 C  
HETATM   30  C   UNL     1      -6.498   6.560  72.329  1.00  0.00    -0.058 C  
HETATM   31  C   UNL     1      -9.535   5.061  70.609  1.00  0.00    -0.169 C  
HETATM   32  O   UNL     1     -10.036   4.342  69.768  1.00  0.00    -0.214 OA 
HETATM   33  C   UNL     1      -7.368   6.897  70.040  1.00  0.00    -0.082 C  
BRANCH  28  34
HETATM   34  C   UNL     1      -7.272   3.826  70.811  1.00  0.00    -0.037 C  
HETATM   35  S   UNL     1      -6.781   2.491  71.891  1.00  0.00    -0.019 S  
HETATM   36  O   UNL     1      -6.056   3.019  73.027  1.00  0.00    -0.008 OA 
HETATM   37  O   UNL     1      -5.636   1.878  70.924  1.00  0.00    -0.011 OA 
HETATM   38  O   UNL     1      -7.793   1.475  72.017  1.00  0.00    -0.040 OA 
ENDBRANCH  28  34
ENDBRANCH  20  23
ENDBRANCH   8  17
TORSDOF 4
ENDMDL
MODEL       83
REMARK 921   NORMALIZED FREE ENERGY PREDICTED BY IDOCK:   -2.17 KCAL/MOL
REMARK 922        TOTAL FREE ENERGY PREDICTED BY IDOCK:   -3.17 KCAL/MOL
REMARK 923 INTER-LIGAND FREE ENERGY PREDICTED BY IDOCK:   -2.47 KCAL/MOL
REMARK 924 INTRA-LIGAND FREE ENERGY PREDICTED BY IDOCK:   -0.69 KCAL/MOL
REMARK 927      BINDING AFFINITY PREDICTED BY RF-SCORE:    0.00 PKD
ROOT
HETATM    1  C   UNL     1      -8.582  19.660  68.919  1.00  0.00    -0.227 C  
HETATM    2  C   UNL     1      -8.350  18.148  68.694  1.00  0.00    -0.289 C  
HETATM    3  C   UNL     1      -7.329  17.709  69.765  1.00  0.00     0.671 C  
HETATM    4  C   UNL     1      -9.662  17.319  68.696  1.00  0.00    -0.301 C  
HETATM    5  C   UNL     1     -10.401  17.861  67.440  1.00  0.00    -0.383 C  
HETATM    6  C   UNL     1      -9.252  18.198  66.441  1.00  0.00    -0.267 C  
HETATM    7  C   UNL     1      -7.986  17.752  67.213  1.00  0.00    -0.223 C  
HETATM    8  C   UNL     1      -9.417  14.737  68.891  1.00  0.00    -0.191 C  
HETATM    9  C   UNL     1      -8.168  16.240  67.255  1.00  0.00    -0.172 C  
HETATM   10  O   UNL     1      -7.754  15.452  66.423  1.00  0.00     0.115 OA 
HETATM   11  C   UNL     1      -9.152  15.932  68.346  1.00  0.00    -0.189 C  
ENDROOT
BRANCH   7  12
HETATM   12  C   UNL     1      -6.619  18.218  66.750  1.00  0.00    -0.188 C  
HETATM   13  S   UNL     1      -6.535  19.295  65.324  1.00  0.00    -0.252 S  
HETATM   14  O   UNL     1      -5.151  19.692  65.161  1.00  0.00    -0.152 OA 
HETATM   15  O   UNL     1      -7.602  20.262  65.385  1.00  0.00    -0.213 OA 
HETATM   16  O   UNL     1      -6.869  18.246  64.146  1.00  0.00     1.870 OA 
ENDBRANCH   7  12
BRANCH   8  17
HETATM   17  C   UNL     1      -8.807  13.491  68.410  1.00  0.00    -0.146 A  
HETATM   18  C   UNL     1      -9.500  12.624  67.556  1.00  0.00    -0.186 A  
HETATM   19  C   UNL     1      -8.955  11.375  67.227  1.00  0.00    -0.159 A  
HETATM   20  C   UNL     1      -7.719  10.981  67.747  1.00  0.00    -0.108 A  
HETATM   21  C   UNL     1      -7.547  13.114  68.893  1.00  0.00     0.040 A  
HETATM   22  C   UNL     1      -7.005  11.867  68.561  1.00  0.00    -0.085 A  
BRANCH  20  23
HETATM   23  C   UNL     1      -7.195   9.643  67.477  1.00  0.00    -0.090 C  
HETATM   24  C   UNL     1      -7.591   8.557  68.142  1.00  0.00    -0.098 C  
HETATM   25  C   UNL     1      -8.574   8.351  69.268  1.00  0.00    -0.130 C  
HETATM   26  C   UNL     1      -9.790   7.645  68.629  1.00  0.00    -0.175 C  
HETATM   27  C   UNL     1      -9.267   6.212  68.338  1.00  0.00    -0.111 C  
HETATM   28  C   UNL     1      -7.807   6.240  68.866  1.00  0.00    -0.105 C  
HETATM   29  C   UNL     1      -7.906   7.217  70.095  1.00  0.00    -0.108 C  
HETATM   30  C   UNL     1      -8.786   6.723  71.260  1.00  0.00    -0.128 C  
HETATM   31  C   UNL     1      -7.069   7.164  67.901  1.00  0.00    -0.085 C  
HETATM   32  O   UNL     1      -6.205   6.870  67.100  1.00  0.00    -0.036 OA 
HETATM   33  C   UNL     1      -6.540   7.602  70.715  1.00  0.00    -0.038 C  
BRANCH  28  34
HETATM   34  C   UNL     1      -7.147   4.908  69.163  1.00  0.00    -0.052 C  
HETATM   35  S   UNL     1      -7.730   3.514  68.209  1.00  0.00    -0.060 S  
HETATM   36  O   UNL     1      -9.121   3.258  68.513  1.00  0.00    -0.124 OA 
HETATM   37  O   UNL     1      -6.917   2.376  69.024  1.00  0.00    -0.039 OA 
HETATM   38  O   UNL     1      -7.212   3.503  66.866  1.00  0.00    -0.061 OA 
ENDBRANCH  28  34
ENDBRANCH  20  23
ENDBRANCH   8  17
TORSDOF 4
ENDMDL
MODEL       84
REMARK 921   NORMALIZED FREE ENERGY PREDICTED BY IDOCK:   -2.14 KCAL/MOL
REMARK 922        TOTAL FREE ENERGY PREDICTED BY IDOCK:   -3.12 KCAL/MOL
REMARK 923 INTER-LIGAND FREE ENERGY PREDICTED BY IDOCK:   -5.45 KCAL/MOL
REMARK 924 INTRA-LIGAND FREE ENERGY PREDICTED BY IDOCK:    2.32 KCAL/MOL
REMARK 927      BINDING AFFINITY PREDICTED BY RF-SCORE:    0.00 PKD
ROOT
HETATM    1  C   UNL     1     -10.602  20.628  69.223  1.00  0.00     0.532 C  
HETATM    2  C   UNL     1     -10.194  19.164  68.936  1.00  0.00    -0.306 C  
HETATM    3  C   UNL     1     -10.194  18.446  70.303  1.00  0.00     1.482 C  
HETATM    4  C   UNL     1     -11.083  18.479  67.864  1.00  0.00     0.107 C  
HETATM    5  C   UNL     1     -10.758  19.305  66.586  1.00  0.00    -0.504 C  
HETATM    6  C   UNL     1      -9.260  19.699  66.761  1.00  0.00    -0.438 C  
HETATM    7  C   UNL     1      -8.876  19.003  68.089  1.00  0.00    -0.353 C  
HETATM    8  C   UNL     1     -10.900  15.892  67.668  1.00  0.00    -0.312 C  
HETATM    9  C   UNL     1      -8.951  17.532  67.698  1.00  0.00    -0.231 C  
HETATM   10  O   UNL     1      -8.029  16.867  67.259  1.00  0.00    -0.164 OA 
HETATM   11  C   UNL     1     -10.397  17.133  67.708  1.00  0.00    -0.347 C  
ENDROOT
BRANCH   7  12
HETATM   12  C   UNL     1      -7.605  19.408  68.811  1.00  0.00    -0.363 C  
HETATM   13  S   UNL     1      -6.388  20.355  67.905  1.00  0.00    -0.286 S  
HETATM   14  O   UNL     1      -5.339  20.718  68.836  1.00  0.00    -0.276 OA 
HETATM   15  O   UNL     1      -7.051  21.339  67.086  1.00  0.00    -0.491 OA 
HETATM   16  O   UNL     1      -5.789  19.213  66.938  1.00  0.00    -0.157 OA 
ENDBRANCH   7  12
BRANCH   8  17
HETATM   17  C   UNL     1     -10.060  14.698  67.519  1.00  0.00    -0.224 A  
HETATM   18  C   UNL     1     -10.270  13.786  66.477  1.00  0.00    -0.284 A  
HETATM   19  C   UNL     1      -9.552  12.583  66.439  1.00  0.00    -0.247 A  
HETATM   20  C   UNL     1      -8.622  12.279  67.438  1.00  0.00    -0.178 A  
HETATM   21  C   UNL     1      -9.094  14.413  68.493  1.00  0.00    -0.193 A  
HETATM   22  C   UNL     1      -8.378  13.212  68.451  1.00  0.00    -0.122 A  
BRANCH  20  23
HETATM   23  C   UNL     1      -7.941  10.985  67.446  1.00  0.00    -0.119 C  
HETATM   24  C   UNL     1      -8.549   9.844  67.772  1.00  0.00    -0.121 C  
HETATM   25  C   UNL     1      -9.959   9.525  68.204  1.00  0.00    -0.191 C  
HETATM   26  C   UNL     1     -10.605   8.805  67.000  1.00  0.00    -0.283 C  
HETATM   27  C   UNL     1      -9.908   7.418  66.988  1.00  0.00    -0.273 C  
HETATM   28  C   UNL     1      -8.947   7.479  68.207  1.00  0.00    -0.130 C  
HETATM   29  C   UNL     1      -9.745   8.373  69.226  1.00  0.00    -0.177 C  
HETATM   30  C   UNL     1     -11.068   7.770  69.738  1.00  0.00    -0.095 C  
HETATM   31  C   UNL     1      -7.881   8.493  67.803  1.00  0.00    -0.103 C  
HETATM   32  O   UNL     1      -6.706   8.289  67.570  1.00  0.00    -0.060 OA 
HETATM   33  C   UNL     1      -8.939   8.781  70.484  1.00  0.00    -0.203 C  
BRANCH  28  34
HETATM   34  C   UNL     1      -8.449   6.163  68.769  1.00  0.00    -0.118 C  
HETATM   35  S   UNL     1      -7.077   6.266  69.908  1.00  0.00    -0.074 S  
HETATM   36  O   UNL     1      -5.911   6.787  69.228  1.00  0.00    -0.017 OA 
HETATM   37  O   UNL     1      -6.807   4.674  70.022  1.00  0.00    -0.042 OA 
HETATM   38  O   UNL     1      -7.474   6.707  71.220  1.00  0.00    -0.082 OA 
ENDBRANCH  28  34
ENDBRANCH  20  23
ENDBRANCH   8  17
TORSDOF 4
ENDMDL
MODEL       85
REMARK 921   NORMALIZED FREE ENERGY PREDICTED BY IDOCK:   -1.88 KCAL/MOL
REMARK 922        TOTAL FREE ENERGY PREDICTED BY IDOCK:   -2.81 KCAL/MOL
REMARK 923 INTER-LIGAND FREE ENERGY PREDICTED BY IDOCK:   -3.33 KCAL/MOL
REMARK 924 INTRA-LIGAND FREE ENERGY PREDICTED BY IDOCK:    0.52 KCAL/MOL
REMARK 927      BINDING AFFINITY PREDICTED BY RF-SCORE:    0.00 PKD
ROOT
HETATM    1  C   UNL     1      -6.909   3.774  62.545  1.00  0.00    -0.031 C  
HETATM    2  C   UNL     1      -7.023   5.179  63.183  1.00  0.00    -0.042 C  
HETATM    3  C   UNL     1      -5.601   5.779  63.149  1.00  0.00    -0.017 C  
HETATM    4  C   UNL     1      -8.100   6.071  62.511  1.00  0.00    -0.100 C  
HETATM    5  C   UNL     1      -9.416   5.309  62.840  1.00  0.00     0.500 C  
HETATM    6  C   UNL     1      -9.149   4.682  64.243  1.00  0.00    -0.112 C  
HETATM    7  C   UNL     1      -7.734   5.207  64.588  1.00  0.00    -0.086 C  
HETATM    8  C   UNL     1      -8.039   8.609  63.077  1.00  0.00    -0.174 C  
HETATM    9  C   UNL     1      -7.992   6.698  64.762  1.00  0.00    -0.118 C  
HETATM   10  O   UNL     1      -8.287   7.250  65.808  1.00  0.00    -0.128 OA 
HETATM   11  C   UNL     1      -8.072   7.307  63.393  1.00  0.00    -0.003 C  
ENDROOT
BRANCH   7  12
HETATM   12  C   UNL     1      -6.945   4.560  65.711  1.00  0.00    -0.063 C  
HETATM   13  S   UNL     1      -7.818   4.119  67.208  1.00  0.00    -0.092 S  
HETATM   14  O   UNL     1      -6.885   3.417  68.064  1.00  0.00    -0.048 OA 
HETATM   15  O   UNL     1      -9.106   3.566  66.872  1.00  0.00    -0.141 OA 
HETATM   16  O   UNL     1      -8.047   5.579  67.854  1.00  0.00    -0.100 OA 
ENDBRANCH   7  12
BRANCH   8  17
HETATM   17  C   UNL     1      -8.005   9.672  64.089  1.00  0.00    -0.143 A  
HETATM   18  C   UNL     1      -6.830   9.970  64.791  1.00  0.00    -0.133 A  
HETATM   19  C   UNL     1      -6.857  10.887  65.851  1.00  0.00    -0.032 A  
HETATM   20  C   UNL     1      -8.053  11.510  66.220  1.00  0.00    -0.014 A  
HETATM   21  C   UNL     1      -9.192  10.332  64.430  1.00  0.00    -0.296 A  
HETATM   22  C   UNL     1      -9.215  11.248  65.488  1.00  0.00    -0.220 A  
BRANCH  20  23
HETATM   23  C   UNL     1      -8.097  12.395  67.383  1.00  0.00    -0.177 C  
HETATM   24  C   UNL     1      -9.219  12.967  67.821  1.00  0.00    -0.200 C  
HETATM   25  C   UNL     1     -10.646  12.924  67.332  1.00  0.00    -0.242 C  
HETATM   26  C   UNL     1     -11.411  12.070  68.366  1.00  0.00    -0.332 C  
HETATM   27  C   UNL     1     -11.484  12.989  69.615  1.00  0.00    -0.253 C  
HETATM   28  C   UNL     1     -10.772  14.290  69.156  1.00  0.00    -0.239 C  
HETATM   29  C   UNL     1     -11.148  14.365  67.630  1.00  0.00    -0.311 C  
HETATM   30  C   UNL     1     -12.648  14.554  67.329  1.00  0.00     0.488 C  
HETATM   31  C   UNL     1      -9.306  13.892  69.008  1.00  0.00     0.188 C  
HETATM   32  O   UNL     1      -8.363  14.253  69.683  1.00  0.00     0.341 OA 
HETATM   33  C   UNL     1     -10.405  15.473  66.843  1.00  0.00    -0.290 C  
BRANCH  28  34
HETATM   34  C   UNL     1     -11.052  15.555  69.943  1.00  0.00    -0.310 C  
HETATM   35  S   UNL     1     -11.914  15.338  71.492  1.00  0.00    -0.409 S  
HETATM   36  O   UNL     1     -13.240  14.812  71.248  1.00  0.00    -0.342 OA 
HETATM   37  O   UNL     1     -12.148  16.911  71.798  1.00  0.00     0.317 OA 
HETATM   38  O   UNL     1     -11.061  14.842  72.540  1.00  0.00     0.032 OA 
ENDBRANCH  28  34
ENDBRANCH  20  23
ENDBRANCH   8  17
TORSDOF 4
ENDMDL
MODEL       86
REMARK 921   NORMALIZED FREE ENERGY PREDICTED BY IDOCK:   -1.87 KCAL/MOL
REMARK 922        TOTAL FREE ENERGY PREDICTED BY IDOCK:   -2.79 KCAL/MOL
REMARK 923 INTER-LIGAND FREE ENERGY PREDICTED BY IDOCK:   -4.69 KCAL/MOL
REMARK 924 INTRA-LIGAND FREE ENERGY PREDICTED BY IDOCK:    1.90 KCAL/MOL
REMARK 927      BINDING AFFINITY PREDICTED BY RF-SCORE:    0.00 PKD
ROOT
HETATM    1  C   UNL     1      -8.623  16.946  67.030  1.00  0.00    -0.229 C  
HETATM    2  C   UNL     1      -8.527  15.406  67.146  1.00  0.00    -0.241 C  
HETATM    3  C   UNL     1      -9.529  14.838  66.119  1.00  0.00    -0.324 C  
HETATM    4  C   UNL     1      -7.080  14.869  66.980  1.00  0.00     0.289 C  
HETATM    5  C   UNL     1      -6.357  15.468  68.220  1.00  0.00    -0.121 C  
HETATM    6  C   UNL     1      -7.459  15.493  69.324  1.00  0.00    -0.212 C  
HETATM    7  C   UNL     1      -8.672  14.847  68.611  1.00  0.00    -0.177 C  
HETATM    8  C   UNL     1      -6.818  12.310  66.591  1.00  0.00     0.379 C  
HETATM    9  C   UNL     1      -8.194  13.412  68.431  1.00  0.00    -0.139 C  
HETATM   10  O   UNL     1      -8.367  12.502  69.223  1.00  0.00     0.477 OA 
HETATM   11  C   UNL     1      -7.269  13.386  67.251  1.00  0.00    -0.023 C  
ENDROOT
BRANCH   7  12
HETATM   12  C   UNL     1     -10.059  14.989  69.209  1.00  0.00    -0.233 C  
HETATM   13  S   UNL     1     -11.370  13.969  68.544  1.00  0.00    -0.298 S  
HETATM   14  O   UNL     1     -12.550  14.198  69.353  1.00  0.00    -0.192 OA 
HETATM   15  O   UNL     1     -10.869  12.642  68.288  1.00  0.00    -0.221 OA 
HETATM   16  O   UNL     1     -11.618  14.698  67.128  1.00  0.00    -0.363 OA 
ENDBRANCH   7  12
BRANCH   8  17
HETATM   17  C   UNL     1      -7.121  10.936  67.011  1.00  0.00    -0.109 A  
HETATM   18  C   UNL     1      -8.394  10.383  66.826  1.00  0.00    -0.126 A  
HETATM   19  C   UNL     1      -8.699   9.125  67.363  1.00  0.00    -0.118 A  
HETATM   20  C   UNL     1      -7.741   8.412  68.090  1.00  0.00    -0.103 A  
HETATM   21  C   UNL     1      -6.148  10.201  67.699  1.00  0.00    -0.057 A  
HETATM   22  C   UNL     1      -6.456   8.945  68.234  1.00  0.00    -0.059 A  
BRANCH  20  23
HETATM   23  C   UNL     1      -8.089   7.143  68.728  1.00  0.00    -0.121 C  
HETATM   24  C   UNL     1      -8.482   7.049  69.999  1.00  0.00    -0.140 C  
HETATM   25  C   UNL     1      -8.666   8.076  71.089  1.00  0.00    -0.149 C  
HETATM   26  C   UNL     1     -10.193   8.210  71.275  1.00  0.00    -0.240 C  
HETATM   27  C   UNL     1     -10.594   6.877  71.963  1.00  0.00    -0.238 C  
HETATM   28  C   UNL     1      -9.245   6.125  72.121  1.00  0.00    -0.142 C  
HETATM   29  C   UNL     1      -8.225   7.298  72.361  1.00  0.00    -0.113 C  
HETATM   30  C   UNL     1      -8.438   8.101  73.661  1.00  0.00    -0.308 C  
HETATM   31  C   UNL     1      -8.839   5.762  70.695  1.00  0.00    -0.140 C  
HETATM   32  O   UNL     1      -8.780   4.657  70.195  1.00  0.00    -0.079 OA 
HETATM   33  C   UNL     1      -6.739   6.864  72.358  1.00  0.00    -0.061 C  
BRANCH  28  34
HETATM   34  C   UNL     1      -9.184   5.009  73.145  1.00  0.00    -0.122 C  
HETATM   35  S   UNL     1     -10.451   3.757  73.017  1.00  0.00    -0.167 S  
HETATM   36  O   UNL     1     -11.751   4.345  73.260  1.00  0.00    -0.226 OA 
HETATM   37  O   UNL     1     -10.090   2.981  74.391  1.00  0.00    -0.118 OA 
HETATM   38  O   UNL     1     -10.207   2.825  71.947  1.00  0.00    -0.129 OA 
ENDBRANCH  28  34
ENDBRANCH  20  23
ENDBRANCH   8  17
TORSDOF 4
ENDMDL
MODEL       87
REMARK 921   NORMALIZED FREE ENERGY PREDICTED BY IDOCK:   -1.84 KCAL/MOL
REMARK 922        TOTAL FREE ENERGY PREDICTED BY IDOCK:   -2.76 KCAL/MOL
REMARK 923 INTER-LIGAND FREE ENERGY PREDICTED BY IDOCK:   -5.03 KCAL/MOL
REMARK 924 INTRA-LIGAND FREE ENERGY PREDICTED BY IDOCK:    2.27 KCAL/MOL
REMARK 927      BINDING AFFINITY PREDICTED BY RF-SCORE:    0.00 PKD
ROOT
HETATM    1  C   UNL     1      -7.965   1.548  66.542  1.00  0.00    -0.072 C  
HETATM    2  C   UNL     1      -7.847   3.079  66.734  1.00  0.00    -0.076 C  
HETATM    3  C   UNL     1      -9.264   3.647  66.506  1.00  0.00    -0.183 C  
HETATM    4  C   UNL     1      -7.219   3.478  68.096  1.00  0.00    -0.051 C  
HETATM    5  C   UNL     1      -5.772   2.919  67.972  1.00  0.00    -0.019 C  
HETATM    6  C   UNL     1      -5.435   3.072  66.457  1.00  0.00    -0.017 C  
HETATM    7  C   UNL     1      -6.703   3.760  65.894  1.00  0.00    -0.045 C  
HETATM    8  C   UNL     1      -7.458   5.968  68.811  1.00  0.00    -0.086 C  
HETATM    9  C   UNL     1      -6.627   5.132  66.552  1.00  0.00    -0.049 C  
HETATM   10  O   UNL     1      -6.072   6.113  66.087  1.00  0.00    -0.027 OA 
HETATM   11  C   UNL     1      -7.122   4.988  67.960  1.00  0.00    -0.062 C  
ENDROOT
BRANCH   7  12
HETATM   12  C   UNL     1      -6.944   3.783  64.396  1.00  0.00    -0.046 C  
HETATM   13  S   UNL     1      -8.303   4.767  63.777  1.00  0.00    -0.128 S  
HETATM   14  O   UNL     1      -8.248   4.722  62.330  1.00  0.00    -0.072 OA 
HETATM   15  O   UNL     1      -8.365   6.014  64.497  1.00  0.00    -0.123 OA 
HETATM   16  O   UNL     1      -9.554   3.857  64.232  1.00  0.00    -0.149 OA 
ENDBRANCH   7  12
BRANCH   8  17
HETATM   17  C   UNL     1      -7.296   7.391  68.488  1.00  0.00    -0.100 A  
HETATM   18  C   UNL     1      -6.249   8.145  69.032  1.00  0.00    -0.040 A  
HETATM   19  C   UNL     1      -6.199   9.531  68.825  1.00  0.00    -0.043 A  
HETATM   20  C   UNL     1      -7.191  10.173  68.078  1.00  0.00    -0.085 A  
HETATM   21  C   UNL     1      -8.263   8.029  67.701  1.00  0.00    -0.124 A  
HETATM   22  C   UNL     1      -8.210   9.412  67.496  1.00  0.00    -0.117 A  
BRANCH  20  23
HETATM   23  C   UNL     1      -7.187  11.629  67.941  1.00  0.00    -0.083 C  
HETATM   24  C   UNL     1      -8.295  12.346  67.747  1.00  0.00    -0.164 C  
HETATM   25  C   UNL     1      -9.747  11.962  67.604  1.00  0.00    -0.186 C  
HETATM   26  C   UNL     1     -10.425  12.418  68.915  1.00  0.00    -0.118 C  
HETATM   27  C   UNL     1     -10.446  13.966  68.795  1.00  0.00    -0.229 C  
HETATM   28  C   UNL     1      -9.797  14.236  67.410  1.00  0.00    -0.235 C  
HETATM   29  C   UNL     1     -10.267  12.995  66.565  1.00  0.00    -0.270 C  
HETATM   30  C   UNL     1     -11.787  12.897  66.327  1.00  0.00    -0.477 C  
HETATM   31  C   UNL     1      -8.332  13.844  67.591  1.00  0.00    -0.181 C  
HETATM   32  O   UNL     1      -7.360  14.571  67.587  1.00  0.00    -0.152 OA 
HETATM   33  C   UNL     1      -9.602  12.884  65.171  1.00  0.00     0.147 C  
BRANCH  28  34
HETATM   34  C   UNL     1     -10.061  15.582  66.766  1.00  0.00    -0.264 C  
HETATM   35  S   UNL     1     -10.243  16.963  67.884  1.00  0.00    -0.322 S  
HETATM   36  O   UNL     1     -11.411  16.772  68.717  1.00  0.00    -0.221 OA 
HETATM   37  O   UNL     1     -10.707  18.045  66.772  1.00  0.00    -0.299 OA 
HETATM   38  O   UNL     1      -8.984  17.429  68.404  1.00  0.00    -0.262 OA 
ENDBRANCH  28  34
ENDBRANCH  20  23
ENDBRANCH   8  17
TORSDOF 4
ENDMDL
MODEL       88
REMARK 921   NORMALIZED FREE ENERGY PREDICTED BY IDOCK:   -1.45 KCAL/MOL
REMARK 922        TOTAL FREE ENERGY PREDICTED BY IDOCK:   -2.28 KCAL/MOL
REMARK 923 INTER-LIGAND FREE ENERGY PREDICTED BY IDOCK:   -6.21 KCAL/MOL
REMARK 924 INTRA-LIGAND FREE ENERGY PREDICTED BY IDOCK:    3.93 KCAL/MOL
REMARK 927      BINDING AFFINITY PREDICTED BY RF-SCORE:    0.00 PKD
ROOT
HETATM    1  C   UNL     1      -6.781   1.508  69.931  1.00  0.00    -0.029 C  
HETATM    2  C   UNL     1      -7.431   2.904  70.081  1.00  0.00    -0.043 C  
HETATM    3  C   UNL     1      -8.950   2.687  69.913  1.00  0.00    -0.163 C  
HETATM    4  C   UNL     1      -7.038   3.624  71.398  1.00  0.00    -0.032 C  
HETATM    5  C   UNL     1      -5.510   3.847  71.213  1.00  0.00    -0.008 C  
HETATM    6  C   UNL     1      -5.344   4.077  69.680  1.00  0.00    -0.008 C  
HETATM    7  C   UNL     1      -6.804   4.022  69.166  1.00  0.00    -0.046 C  
HETATM    8  C   UNL     1      -8.456   5.700  72.066  1.00  0.00    -0.126 C  
HETATM    9  C   UNL     1      -7.396   5.281  69.787  1.00  0.00    -0.064 C  
HETATM   10  O   UNL     1      -7.416   6.385  69.270  1.00  0.00    -0.089 OA 
HETATM   11  C   UNL     1      -7.708   4.976  71.222  1.00  0.00    -0.092 C  
ENDROOT
BRANCH   7  12
HETATM   12  C   UNL     1      -7.074   3.853  67.683  1.00  0.00    -0.056 C  
HETATM   13  S   UNL     1      -6.548   5.158  66.578  1.00  0.00    -0.050 S  
HETATM   14  O   UNL     1      -6.804   4.710  65.224  1.00  0.00    -0.057 OA 
HETATM   15  O   UNL     1      -5.253   5.645  66.985  1.00  0.00    -0.005 OA 
HETATM   16  O   UNL     1      -7.644   6.290  66.918  1.00  0.00    -0.095 OA 
ENDBRANCH   7  12
BRANCH   8  17
HETATM   17  C   UNL     1      -9.032   7.001  71.701  1.00  0.00    -0.134 A  
HETATM   18  C   UNL     1     -10.022   7.604  72.486  1.00  0.00    -0.263 A  
HETATM   19  C   UNL     1     -10.658   8.772  72.043  1.00  0.00    -0.414 A  
HETATM   20  C   UNL     1     -10.313   9.345  70.815  1.00  0.00    -0.366 A  
HETATM   21  C   UNL     1      -8.655   7.602  70.493  1.00  0.00    -0.137 A  
HETATM   22  C   UNL     1      -9.291   8.768  70.054  1.00  0.00    -0.175 A  
BRANCH  20  23
HETATM   23  C   UNL     1     -11.040  10.509  70.312  1.00  0.00    -0.359 C  
HETATM   24  C   UNL     1     -10.859  11.011  69.090  1.00  0.00    -0.283 C  
HETATM   25  C   UNL     1      -9.950  10.619  67.950  1.00  0.00    -0.189 C  
HETATM   26  C   UNL     1     -10.874   9.994  66.883  1.00  0.00    -0.152 C  
HETATM   27  C   UNL     1     -11.657  11.212  66.320  1.00  0.00     0.411 C  
HETATM   28  C   UNL     1     -11.078  12.416  67.111  1.00  0.00    -0.328 C  
HETATM   29  C   UNL     1      -9.579  11.995  67.328  1.00  0.00    -0.185 C  
HETATM   30  C   UNL     1      -8.737  11.866  66.043  1.00  0.00     0.056 C  
HETATM   31  C   UNL     1     -11.580  12.213  68.538  1.00  0.00    -0.315 C  
HETATM   32  O   UNL     1     -12.383  12.888  69.150  1.00  0.00    -0.114 OA 
HETATM   33  C   UNL     1      -8.785  12.927  68.275  1.00  0.00    -0.168 C  
BRANCH  28  34
HETATM   34  C   UNL     1     -11.272  13.797  66.517  1.00  0.00    -0.312 C  
HETATM   35  S   UNL     1     -11.640  13.856  64.771  1.00  0.00    -0.394 S  
HETATM   36  O   UNL     1     -10.522  13.335  64.014  1.00  0.00    -0.374 OA 
HETATM   37  O   UNL     1     -11.531  15.463  64.609  1.00  0.00    -0.408 OA 
HETATM   38  O   UNL     1     -13.007  13.509  64.478  1.00  0.00    -0.643 OA 
ENDBRANCH  28  34
ENDBRANCH  20  23
ENDBRANCH   8  17
TORSDOF 4
ENDMDL
MODEL       89
REMARK 921   NORMALIZED FREE ENERGY PREDICTED BY IDOCK:   -1.37 KCAL/MOL
REMARK 922        TOTAL FREE ENERGY PREDICTED BY IDOCK:   -2.17 KCAL/MOL
REMARK 923 INTER-LIGAND FREE ENERGY PREDICTED BY IDOCK:   -3.12 KCAL/MOL
REMARK 924 INTRA-LIGAND FREE ENERGY PREDICTED BY IDOCK:    0.95 KCAL/MOL
REMARK 927      BINDING AFFINITY PREDICTED BY RF-SCORE:    0.00 PKD
ROOT
HETATM    1  C   UNL     1      -8.220  17.820  68.174  1.00  0.00    -0.260 C  
HETATM    2  C   UNL     1      -8.174  16.325  67.779  1.00  0.00    -0.158 C  
HETATM    3  C   UNL     1      -8.438  16.277  66.259  1.00  0.00    -0.369 C  
HETATM    4  C   UNL     1      -6.864  15.616  68.214  1.00  0.00    -0.122 C  
HETATM    5  C   UNL     1      -6.951  15.678  69.766  1.00  0.00    -0.119 C  
HETATM    6  C   UNL     1      -8.478  15.565  70.065  1.00  0.00     0.410 C  
HETATM    7  C   UNL     1      -9.089  15.387  68.653  1.00  0.00    -0.195 C  
HETATM    8  C   UNL     1      -6.385  13.287  67.158  1.00  0.00     0.387 C  
HETATM    9  C   UNL     1      -8.565  14.011  68.262  1.00  0.00    -0.180 C  
HETATM   10  O   UNL     1      -9.127  12.950  68.474  1.00  0.00    -0.155 OA 
HETATM   11  C   UNL     1      -7.144  14.177  67.813  1.00  0.00    -0.185 C  
ENDROOT
BRANCH   7  12
HETATM   12  C   UNL     1     -10.579  15.585  68.448  1.00  0.00    -0.252 C  
HETATM   13  S   UNL     1     -11.677  15.170  69.798  1.00  0.00    -0.342 S  
HETATM   14  O   UNL     1     -13.015  15.559  69.404  1.00  0.00     0.278 OA 
HETATM   15  O   UNL     1     -11.096  15.602  71.045  1.00  0.00    -0.340 OA 
HETATM   16  O   UNL     1     -11.615  13.560  69.743  1.00  0.00    -0.279 OA 
ENDBRANCH   7  12
BRANCH   8  17
HETATM   17  C   UNL     1      -6.844  11.927  66.851  1.00  0.00    -0.075 A  
HETATM   18  C   UNL     1      -7.672  11.669  65.752  1.00  0.00     0.603 A  
HETATM   19  C   UNL     1      -8.213  10.390  65.563  1.00  0.00    -0.162 A  
HETATM   20  C   UNL     1      -7.935   9.361  66.468  1.00  0.00    -0.108 A  
HETATM   21  C   UNL     1      -6.529  10.883  67.731  1.00  0.00    -0.063 A  
HETATM   22  C   UNL     1      -7.070   9.607  67.539  1.00  0.00    -0.088 A  
BRANCH  20  23
HETATM   23  C   UNL     1      -8.573   8.053  66.321  1.00  0.00    -0.156 C  
HETATM   24  C   UNL     1      -7.987   7.020  65.716  1.00  0.00    -0.116 C  
HETATM   25  C   UNL     1      -6.645   6.856  65.044  1.00  0.00    -0.043 C  
HETATM   26  C   UNL     1      -5.811   5.975  65.998  1.00  0.00    -0.024 C  
HETATM   27  C   UNL     1      -6.460   4.571  65.856  1.00  0.00    -0.037 C  
HETATM   28  C   UNL     1      -7.588   4.791  64.812  1.00  0.00    -0.077 C  
HETATM   29  C   UNL     1      -6.972   5.890  63.870  1.00  0.00    -0.050 C  
HETATM   30  C   UNL     1      -5.720   5.457  63.082  1.00  0.00    -0.014 C  
HETATM   31  C   UNL     1      -8.613   5.661  65.535  1.00  0.00    -0.151 C  
HETATM   32  O   UNL     1      -9.735   5.357  65.886  1.00  0.00    -0.144 OA 
HETATM   33  C   UNL     1      -7.962   6.466  62.829  1.00  0.00    -0.096 C  
BRANCH  28  34
HETATM   34  C   UNL     1      -8.125   3.568  64.097  1.00  0.00    -0.086 C  
HETATM   35  S   UNL     1      -9.577   2.814  64.814  1.00  0.00    -0.030 S  
HETATM   36  O   UNL     1      -9.267   2.305  66.132  1.00  0.00    -0.092 OA 
HETATM   37  O   UNL     1      -9.598   1.504  63.864  1.00  0.00    -0.119 OA 
HETATM   38  O   UNL     1     -10.784   3.546  64.527  1.00  0.00    -0.112 OA 
ENDBRANCH  28  34
ENDBRANCH  20  23
ENDBRANCH   8  17
TORSDOF 4
ENDMDL
MODEL       90
REMARK 921   NORMALIZED FREE ENERGY PREDICTED BY IDOCK:   -1.25 KCAL/MOL
REMARK 922        TOTAL FREE ENERGY PREDICTED BY IDOCK:   -2.03 KCAL/MOL
REMARK 923 INTER-LIGAND FREE ENERGY PREDICTED BY IDOCK:   -4.26 KCAL/MOL
REMARK 924 INTRA-LIGAND FREE ENERGY PREDICTED BY IDOCK:    2.23 KCAL/MOL
REMARK 927      BINDING AFFINITY PREDICTED BY RF-SCORE:    0.00 PKD
ROOT
HETATM    1  C   UNL     1      -8.048  17.320  67.909  1.00  0.00    -0.210 C  
HETATM    2  C   UNL     1      -7.831  15.814  67.630  1.00  0.00    -0.168 C  
HETATM    3  C   UNL     1      -8.182  15.601  66.142  1.00  0.00     0.251 C  
HETATM    4  C   UNL     1      -6.414  15.316  68.021  1.00  0.00    -0.152 C  
HETATM    5  C   UNL     1      -6.410  15.501  69.565  1.00  0.00    -0.155 C  
HETATM    6  C   UNL     1      -7.887  15.223  69.984  1.00  0.00     0.221 C  
HETATM    7  C   UNL     1      -8.557  14.847  68.639  1.00  0.00    -0.168 C  
HETATM    8  C   UNL     1      -5.701  12.984  67.117  1.00  0.00     0.298 C  
HETATM    9  C   UNL     1      -7.882  13.519  68.319  1.00  0.00    -0.145 C  
HETATM   10  O   UNL     1      -8.286  12.419  68.654  1.00  0.00    -0.107 OA 
HETATM   11  C   UNL     1      -6.526  13.825  67.754  1.00  0.00    -0.178 C  
ENDROOT
BRANCH   7  12
HETATM   12  C   UNL     1     -10.070  14.837  68.530  1.00  0.00    -0.230 C  
HETATM   13  S   UNL     1     -10.983  16.126  69.370  1.00  0.00    -0.350 S  
HETATM   14  O   UNL     1     -12.379  15.971  69.016  1.00  0.00    -0.092 OA 
HETATM   15  O   UNL     1     -10.295  17.384  69.218  1.00  0.00    -0.334 OA 
HETATM   16  O   UNL     1     -10.826  15.647  70.901  1.00  0.00    -0.315 OA 
ENDBRANCH   7  12
BRANCH   8  17
HETATM   17  C   UNL     1      -5.994  11.555  66.951  1.00  0.00    -0.136 A  
HETATM   18  C   UNL     1      -6.970  11.112  66.049  1.00  0.00     0.057 A  
HETATM   19  C   UNL     1      -7.333   9.759  66.013  1.00  0.00    -0.102 A  
HETATM   20  C   UNL     1      -6.730   8.839  66.876  1.00  0.00    -0.069 A  
HETATM   21  C   UNL     1      -5.358  10.624  67.782  1.00  0.00    -0.040 A  
HETATM   22  C   UNL     1      -5.722   9.274  67.743  1.00  0.00    -0.038 A  
BRANCH  20  23
HETATM   23  C   UNL     1      -7.175   7.446  66.901  1.00  0.00    -0.088 C  
HETATM   24  C   UNL     1      -8.052   6.977  67.789  1.00  0.00    -0.114 C  
HETATM   25  C   UNL     1      -8.786   7.623  68.938  1.00  0.00    -0.135 C  
HETATM   26  C   UNL     1     -10.255   7.738  68.476  1.00  0.00    -0.227 C  
HETATM   27  C   UNL     1     -10.761   6.271  68.502  1.00  0.00    -0.354 C  
HETATM   28  C   UNL     1      -9.531   5.466  69.002  1.00  0.00    -0.176 C  
HETATM   29  C   UNL     1      -8.840   6.478  69.989  1.00  0.00    -0.144 C  
HETATM   30  C   UNL     1      -9.663   6.846  71.239  1.00  0.00    -0.175 C  
HETATM   31  C   UNL     1      -8.528   5.549  67.854  1.00  0.00    -0.098 C  
HETATM   32  O   UNL     1      -8.145   4.650  67.132  1.00  0.00    -0.101 OA 
HETATM   33  C   UNL     1      -7.453   6.021  70.503  1.00  0.00    -0.090 C  
BRANCH  28  34
HETATM   34  C   UNL     1      -9.786   4.088  69.578  1.00  0.00    -0.157 C  
HETATM   35  S   UNL     1      -8.399   3.309  70.390  1.00  0.00    -0.053 S  
HETATM   36  O   UNL     1      -7.341   3.066  69.433  1.00  0.00    -0.044 OA 
HETATM   37  O   UNL     1      -9.095   1.863  70.607  1.00  0.00    -0.072 OA 
HETATM   38  O   UNL     1      -8.152   3.842  71.705  1.00  0.00    -0.071 OA 
ENDBRANCH  28  34
ENDBRANCH  20  23
ENDBRANCH   8  17
TORSDOF 4
ENDMDL
MODEL       91
REMARK 921   NORMALIZED FREE ENERGY PREDICTED BY IDOCK:   -1.14 KCAL/MOL
REMARK 922        TOTAL FREE ENERGY PREDICTED BY IDOCK:   -1.89 KCAL/MOL
REMARK 923 INTER-LIGAND FREE ENERGY PREDICTED BY IDOCK:   -2.87 KCAL/MOL
REMARK 924 INTRA-LIGAND FREE ENERGY PREDICTED BY IDOCK:    0.98 KCAL/MOL
REMARK 927      BINDING AFFINITY PREDICTED BY RF-SCORE:    0.00 PKD
ROOT
HETATM    1  C   UNL     1     -10.807  15.620  65.404  1.00  0.00    -0.394 C  
HETATM    2  C   UNL     1      -9.864  14.580  66.055  1.00  0.00    -0.342 C  
HETATM    3  C   UNL     1      -9.648  13.479  64.995  1.00  0.00     0.250 C  
HETATM    4  C   UNL     1      -8.549  15.201  66.597  1.00  0.00    -0.279 C  
HETATM    5  C   UNL     1      -9.063  16.129  67.735  1.00  0.00    -0.197 C  
HETATM    6  C   UNL     1     -10.305  15.376  68.305  1.00  0.00    -0.238 C  
HETATM    7  C   UNL     1     -10.325  14.071  67.472  1.00  0.00    -0.245 C  
HETATM    8  C   UNL     1      -6.636  13.547  67.205  1.00  0.00     0.175 C  
HETATM    9  C   UNL     1      -9.063  13.373  67.963  1.00  0.00    -0.205 C  
HETATM   10  O   UNL     1      -9.001  12.595  68.899  1.00  0.00     0.107 OA 
HETATM   11  C   UNL     1      -7.895  14.003  67.264  1.00  0.00    -0.143 C  
ENDROOT
BRANCH   7  12
HETATM   12  C   UNL     1     -11.571  13.206  67.460  1.00  0.00    -0.352 C  
HETATM   13  S   UNL     1     -11.776  12.008  68.773  1.00  0.00    -0.320 S  
HETATM   14  O   UNL     1     -13.081  11.403  68.609  1.00  0.00     1.272 OA 
HETATM   15  O   UNL     1     -11.357  12.586  70.025  1.00  0.00    -0.088 OA 
HETATM   16  O   UNL     1     -10.684  10.905  68.336  1.00  0.00    -0.178 OA 
ENDBRANCH   7  12
BRANCH   8  17
HETATM   17  C   UNL     1      -6.192  12.347  67.926  1.00  0.00    -0.093 A  
HETATM   18  C   UNL     1      -6.234  11.082  67.328  1.00  0.00    -0.068 A  
HETATM   19  C   UNL     1      -5.942   9.937  68.082  1.00  0.00    -0.043 A  
HETATM   20  C   UNL     1      -5.610  10.044  69.435  1.00  0.00    -0.038 A  
HETATM   21  C   UNL     1      -5.814  12.457  69.270  1.00  0.00    -0.085 A  
HETATM   22  C   UNL     1      -5.522  11.312  70.020  1.00  0.00    -0.080 A  
BRANCH  20  23
HETATM   23  C   UNL     1      -5.396   8.843  70.242  1.00  0.00    -0.027 C  
HETATM   24  C   UNL     1      -6.393   8.090  70.707  1.00  0.00    -0.037 C  
HETATM   25  C   UNL     1      -7.894   8.200  70.595  1.00  0.00    -0.091 C  
HETATM   26  C   UNL     1      -8.320   7.074  69.628  1.00  0.00    -0.133 C  
HETATM   27  C   UNL     1      -8.113   5.781  70.462  1.00  0.00    -0.110 C  
HETATM   28  C   UNL     1      -7.611   6.305  71.835  1.00  0.00    -0.096 C  
HETATM   29  C   UNL     1      -8.374   7.674  71.978  1.00  0.00    -0.129 C  
HETATM   30  C   UNL     1      -9.908   7.566  72.081  1.00  0.00    -0.209 C  
HETATM   31  C   UNL     1      -6.215   6.853  71.549  1.00  0.00    -0.038 C  
HETATM   32  O   UNL     1      -5.149   6.416  71.932  1.00  0.00    -0.024 OA 
HETATM   33  C   UNL     1      -7.918   8.536  73.180  1.00  0.00    -0.069 C  
BRANCH  28  34
HETATM   34  C   UNL     1      -7.741   5.377  73.026  1.00  0.00    -0.098 C  
HETATM   35  S   UNL     1      -7.666   3.629  72.670  1.00  0.00    -0.062 S  
HETATM   36  O   UNL     1      -8.789   3.246  71.841  1.00  0.00    -0.086 OA 
HETATM   37  O   UNL     1      -8.060   3.117  74.154  1.00  0.00    -0.068 OA 
HETATM   38  O   UNL     1      -6.324   3.168  72.423  1.00  0.00    -0.013 OA 
ENDBRANCH  28  34
ENDBRANCH  20  23
ENDBRANCH   8  17
TORSDOF 4
ENDMDL
MODEL       92
REMARK 921   NORMALIZED FREE ENERGY PREDICTED BY IDOCK:   -1.08 KCAL/MOL
REMARK 922        TOTAL FREE ENERGY PREDICTED BY IDOCK:   -1.83 KCAL/MOL
REMARK 923 INTER-LIGAND FREE ENERGY PREDICTED BY IDOCK:   -6.27 KCAL/MOL
REMARK 924 INTRA-LIGAND FREE ENERGY PREDICTED BY IDOCK:    4.44 KCAL/MOL
REMARK 927      BINDING AFFINITY PREDICTED BY RF-SCORE:    0.00 PKD
ROOT
HETATM    1  C   UNL     1     -10.721  17.116  66.149  1.00  0.00    -0.094 C  
HETATM    2  C   UNL     1     -10.170  15.699  66.435  1.00  0.00    -0.300 C  
HETATM    3  C   UNL     1      -9.549  15.208  65.110  1.00  0.00     0.134 C  
HETATM    4  C   UNL     1      -9.197  15.652  67.643  1.00  0.00    -0.193 C  
HETATM    5  C   UNL     1     -10.124  16.033  68.833  1.00  0.00    -0.229 C  
HETATM    6  C   UNL     1     -11.507  15.428  68.443  1.00  0.00    -0.365 C  
HETATM    7  C   UNL     1     -11.202  14.715  67.103  1.00  0.00    -0.349 C  
HETATM    8  C   UNL     1      -7.765  13.497  67.912  1.00  0.00    -0.153 C  
HETATM    9  C   UNL     1     -10.287  13.585  67.556  1.00  0.00    -0.237 C  
HETATM   10  O   UNL     1     -10.648  12.471  67.893  1.00  0.00    -0.209 OA 
HETATM   11  C   UNL     1      -8.918  14.164  67.757  1.00  0.00    -0.187 C  
ENDROOT
BRANCH   7  12
HETATM   12  C   UNL     1     -12.345  14.288  66.200  1.00  0.00    -0.387 C  
HETATM   13  S   UNL     1     -12.200  12.727  65.339  1.00  0.00    -0.459 S  
HETATM   14  O   UNL     1     -13.452  12.492  64.651  1.00  0.00    -0.639 OA 
HETATM   15  O   UNL     1     -11.618  11.742  66.217  1.00  0.00    -0.441 OA 
HETATM   16  O   UNL     1     -11.108  13.112  64.217  1.00  0.00    -0.362 OA 
ENDBRANCH   7  12
BRANCH   8  17
HETATM   17  C   UNL     1      -7.699  12.033  67.993  1.00  0.00    -0.132 A  
HETATM   18  C   UNL     1      -7.781  11.236  66.845  1.00  0.00    -0.152 A  
HETATM   19  C   UNL     1      -7.861   9.842  66.959  1.00  0.00    -0.102 A  
HETATM   20  C   UNL     1      -7.863   9.232  68.218  1.00  0.00    -0.098 A  
HETATM   21  C   UNL     1      -7.654  11.418  69.251  1.00  0.00     0.024 A  
HETATM   22  C   UNL     1      -7.733  10.026  69.362  1.00  0.00    -0.129 A  
BRANCH  20  23
HETATM   23  C   UNL     1      -8.039   7.786  68.339  1.00  0.00    -0.124 C  
HETATM   24  C   UNL     1      -7.452   6.909  67.523  1.00  0.00    -0.097 C  
HETATM   25  C   UNL     1      -6.536   7.073  66.336  1.00  0.00    -0.051 C  
HETATM   26  C   UNL     1      -5.145   6.612  66.822  1.00  0.00    -0.009 C  
HETATM   27  C   UNL     1      -5.296   5.072  66.952  1.00  0.00    -0.012 C  
HETATM   28  C   UNL     1      -6.758   4.808  66.501  1.00  0.00    -0.054 C  
HETATM   29  C   UNL     1      -6.982   5.912  65.403  1.00  0.00    -0.063 C  
HETATM   30  C   UNL     1      -6.102   5.780  64.144  1.00  0.00    -0.025 C  
HETATM   31  C   UNL     1      -7.616   5.413  67.609  1.00  0.00    -0.088 C  
HETATM   32  O   UNL     1      -8.326   4.832  68.405  1.00  0.00    -0.090 OA 
HETATM   33  C   UNL     1      -8.442   6.026  64.901  1.00  0.00    -0.060 C  
BRANCH  28  34
HETATM   34  C   UNL     1      -7.110   3.399  66.067  1.00  0.00    -0.063 C  
HETATM   35  S   UNL     1      -8.735   3.180  65.358  1.00  0.00    -0.125 S  
HETATM   36  O   UNL     1      -9.748   3.473  66.349  1.00  0.00    -0.143 OA 
HETATM   37  O   UNL     1      -8.692   1.563  65.284  1.00  0.00    -0.103 OA 
HETATM   38  O   UNL     1      -8.817   3.648  63.999  1.00  0.00    -0.099 OA 
ENDBRANCH  28  34
ENDBRANCH  20  23
ENDBRANCH   8  17
TORSDOF 4
ENDMDL
MODEL       93
REMARK 921   NORMALIZED FREE ENERGY PREDICTED BY IDOCK:   -0.79 KCAL/MOL
REMARK 922        TOTAL FREE ENERGY PREDICTED BY IDOCK:   -1.46 KCAL/MOL
REMARK 923 INTER-LIGAND FREE ENERGY PREDICTED BY IDOCK:   -4.05 KCAL/MOL
REMARK 924 INTRA-LIGAND FREE ENERGY PREDICTED BY IDOCK:    2.59 KCAL/MOL
REMARK 927      BINDING AFFINITY PREDICTED BY RF-SCORE:    0.00 PKD
ROOT
HETATM    1  C   UNL     1     -10.595  20.544  69.395  1.00  0.00     0.487 C  
HETATM    2  C   UNL     1     -10.117  19.108  69.072  1.00  0.00    -0.365 C  
HETATM    3  C   UNL     1     -10.179  18.329  70.403  1.00  0.00     1.706 C  
HETATM    4  C   UNL     1     -10.909  18.444  67.915  1.00  0.00    -0.234 C  
HETATM    5  C   UNL     1     -10.533  19.337  66.698  1.00  0.00    -0.541 C  
HETATM    6  C   UNL     1      -9.064  19.773  66.988  1.00  0.00    -0.428 C  
HETATM    7  C   UNL     1      -8.742  19.030  68.308  1.00  0.00    -0.366 C  
HETATM    8  C   UNL     1     -10.621  15.876  67.620  1.00  0.00    -0.307 C  
HETATM    9  C   UNL     1      -8.738  17.577  67.850  1.00  0.00    -0.247 C  
HETATM   10  O   UNL     1      -7.766  16.964  67.444  1.00  0.00    -0.162 OA 
HETATM   11  C   UNL     1     -10.166  17.130  67.746  1.00  0.00    -0.324 C  
ENDROOT
BRANCH   7  12
HETATM   12  C   UNL     1      -7.536  19.444  69.130  1.00  0.00    -0.307 C  
HETATM   13  S   UNL     1      -6.241  20.370  68.315  1.00  0.00    -0.317 S  
HETATM   14  O   UNL     1      -5.274  20.746  69.326  1.00  0.00    -0.283 OA 
HETATM   15  O   UNL     1      -6.826  21.341  67.424  1.00  0.00    -0.497 OA 
HETATM   16  O   UNL     1      -5.566  19.208  67.424  1.00  0.00    -0.165 OA 
ENDBRANCH   7  12
BRANCH   8  17
HETATM   17  C   UNL     1      -9.729  14.718  67.475  1.00  0.00    -0.213 A  
HETATM   18  C   UNL     1      -9.835  13.852  66.380  1.00  0.00    -0.304 A  
HETATM   19  C   UNL     1      -9.073  12.676  66.336  1.00  0.00    -0.114 A  
HETATM   20  C   UNL     1      -8.203  12.355  67.383  1.00  0.00    -0.180 A  
HETATM   21  C   UNL     1      -8.824  14.419  68.500  1.00  0.00    -0.182 A  
HETATM   22  C   UNL     1      -8.064  13.245  68.453  1.00  0.00    -0.134 A  
BRANCH  20  23
HETATM   23  C   UNL     1      -7.479  11.085  67.380  1.00  0.00    -0.106 C  
HETATM   24  C   UNL     1      -7.405  10.290  66.312  1.00  0.00    -0.118 C  
HETATM   25  C   UNL     1      -7.979  10.394  64.920  1.00  0.00    -0.115 C  
HETATM   26  C   UNL     1      -6.778  10.704  64.001  1.00  0.00     0.220 C  
HETATM   27  C   UNL     1      -5.990   9.366  63.969  1.00  0.00    -0.082 C  
HETATM   28  C   UNL     1      -6.840   8.418  64.857  1.00  0.00    -0.071 C  
HETATM   29  C   UNL     1      -8.307   8.913  64.580  1.00  0.00    -0.178 C  
HETATM   30  C   UNL     1      -8.804   8.724  63.133  1.00  0.00     0.123 C  
HETATM   31  C   UNL     1      -6.678   8.971  66.271  1.00  0.00    -0.070 C  
HETATM   32  O   UNL     1      -6.104   8.460  67.211  1.00  0.00    -0.052 OA 
HETATM   33  C   UNL     1      -9.380   8.273  65.494  1.00  0.00     0.086 C  
BRANCH  28  34
HETATM   34  C   UNL     1      -6.628   6.927  64.688  1.00  0.00    -0.042 C  
HETATM   35  S   UNL     1      -6.401   5.991  66.192  1.00  0.00    -0.043 S  
HETATM   36  O   UNL     1      -5.187   6.413  66.856  1.00  0.00    -0.008 OA 
HETATM   37  O   UNL     1      -6.013   4.588  65.484  1.00  0.00    -0.022 OA 
HETATM   38  O   UNL     1      -7.635   5.763  66.898  1.00  0.00    -0.096 OA 
ENDBRANCH  28  34
ENDBRANCH  20  23
ENDBRANCH   8  17
TORSDOF 4
ENDMDL
MODEL       94
REMARK 921   NORMALIZED FREE ENERGY PREDICTED BY IDOCK:   -0.73 KCAL/MOL
REMARK 922        TOTAL FREE ENERGY PREDICTED BY IDOCK:   -1.39 KCAL/MOL
REMARK 923 INTER-LIGAND FREE ENERGY PREDICTED BY IDOCK:   -5.10 KCAL/MOL
REMARK 924 INTRA-LIGAND FREE ENERGY PREDICTED BY IDOCK:    3.71 KCAL/MOL
REMARK 927      BINDING AFFINITY PREDICTED BY RF-SCORE:    0.00 PKD
ROOT
HETATM    1  C   UNL     1      -9.592  18.927  65.993  1.00  0.00    -0.140 C  
HETATM    2  C   UNL     1     -10.086  17.613  66.644  1.00  0.00    -0.335 C  
HETATM    3  C   UNL     1     -11.617  17.589  66.447  1.00  0.00     1.843 C  
HETATM    4  C   UNL     1      -9.361  16.352  66.104  1.00  0.00    -0.360 C  
HETATM    5  C   UNL     1      -7.898  16.579  66.582  1.00  0.00    -0.321 C  
HETATM    6  C   UNL     1      -8.055  17.325  67.942  1.00  0.00    -0.210 C  
HETATM    7  C   UNL     1      -9.592  17.386  68.122  1.00  0.00    -0.287 C  
HETATM    8  C   UNL     1     -10.436  14.051  66.666  1.00  0.00    -0.272 C  
HETATM    9  C   UNL     1      -9.937  15.916  68.329  1.00  0.00    -0.222 C  
HETATM   10  O   UNL     1      -9.986  15.343  69.404  1.00  0.00    -0.239 OA 
HETATM   11  C   UNL     1      -9.948  15.259  66.981  1.00  0.00    -0.235 C  
ENDROOT
BRANCH   7  12
HETATM   12  C   UNL     1     -10.193  18.333  69.144  1.00  0.00    -0.080 C  
HETATM   13  S   UNL     1      -9.734  20.059  69.063  1.00  0.00    -0.004 S  
HETATM   14  O   UNL     1     -10.524  20.765  70.051  1.00  0.00     0.409 OA 
HETATM   15  O   UNL     1      -9.683  20.483  67.686  1.00  0.00    -0.411 OA 
HETATM   16  O   UNL     1      -8.225  19.988  69.626  1.00  0.00     0.229 OA 
ENDBRANCH   7  12
BRANCH   8  17
HETATM   17  C   UNL     1     -10.977  13.127  67.671  1.00  0.00    -0.282 A  
HETATM   18  C   UNL     1     -10.691  13.284  69.032  1.00  0.00    -0.156 A  
HETATM   19  C   UNL     1     -11.098  12.309  69.954  1.00  0.00     0.193 A  
HETATM   20  C   UNL     1     -11.790  11.172  69.526  1.00  0.00    -0.423 A  
HETATM   21  C   UNL     1     -11.710  12.010  67.249  1.00  0.00    -0.339 A  
HETATM   22  C   UNL     1     -12.116  11.040  68.172  1.00  0.00     0.135 A  
BRANCH  20  23
HETATM   23  C   UNL     1     -12.133  10.114  70.474  1.00  0.00    -0.380 C  
HETATM   24  C   UNL     1     -11.332   9.080  70.734  1.00  0.00    -0.329 C  
HETATM   25  C   UNL     1      -9.977   8.679  70.203  1.00  0.00    -0.193 C  
HETATM   26  C   UNL     1      -8.988   8.940  71.359  1.00  0.00    -0.300 C  
HETATM   27  C   UNL     1      -9.321   7.821  72.383  1.00  0.00    -0.224 C  
HETATM   28  C   UNL     1     -10.455   7.017  71.692  1.00  0.00    -0.219 C  
HETATM   29  C   UNL     1     -10.075   7.127  70.170  1.00  0.00    -0.195 C  
HETATM   30  C   UNL     1      -8.749   6.449  69.771  1.00  0.00    -0.138 C  
HETATM   31  C   UNL     1     -11.652   7.965  71.695  1.00  0.00    -0.272 C  
HETATM   32  O   UNL     1     -12.688   7.856  72.320  1.00  0.00    -0.256 OA 
HETATM   33  C   UNL     1     -11.151   6.578  69.202  1.00  0.00    -0.387 C  
BRANCH  28  34
HETATM   34  C   UNL     1     -10.710   5.606  72.184  1.00  0.00    -0.234 C  
HETATM   35  S   UNL     1      -9.305   4.755  72.886  1.00  0.00    -0.127 S  
HETATM   36  O   UNL     1      -8.290   4.563  71.873  1.00  0.00    -0.104 OA 
HETATM   37  O   UNL     1     -10.016   3.308  73.032  1.00  0.00    -0.125 OA 
HETATM   38  O   UNL     1      -8.998   5.195  74.222  1.00  0.00    -0.115 OA 
ENDBRANCH  28  34
ENDBRANCH  20  23
ENDBRANCH   8  17
TORSDOF 4
ENDMDL
MODEL       95
REMARK 921   NORMALIZED FREE ENERGY PREDICTED BY IDOCK:   -0.57 KCAL/MOL
REMARK 922        TOTAL FREE ENERGY PREDICTED BY IDOCK:   -1.19 KCAL/MOL
REMARK 923 INTER-LIGAND FREE ENERGY PREDICTED BY IDOCK:   -7.66 KCAL/MOL
REMARK 924 INTRA-LIGAND FREE ENERGY PREDICTED BY IDOCK:    6.47 KCAL/MOL
REMARK 927      BINDING AFFINITY PREDICTED BY RF-SCORE:    0.00 PKD
ROOT
HETATM    1  C   UNL     1      -8.806   2.762  72.885  1.00  0.00    -0.091 C  
HETATM    2  C   UNL     1      -9.328   4.122  72.365  1.00  0.00    -0.164 C  
HETATM    3  C   UNL     1     -10.272   3.795  71.189  1.00  0.00     0.130 C  
HETATM    4  C   UNL     1      -9.979   4.993  73.473  1.00  0.00    -0.180 C  
HETATM    5  C   UNL     1      -8.775   5.291  74.412  1.00  0.00    -0.115 C  
HETATM    6  C   UNL     1      -7.554   5.378  73.446  1.00  0.00    -0.096 C  
HETATM    7  C   UNL     1      -8.205   5.182  72.055  1.00  0.00    -0.117 C  
HETATM    8  C   UNL     1     -11.387   7.033  72.685  1.00  0.00    -0.290 C  
HETATM    9  C   UNL     1      -9.027   6.457  71.917  1.00  0.00    -0.138 C  
HETATM   10  O   UNL     1      -8.640   7.501  71.421  1.00  0.00    -0.118 OA 
HETATM   11  C   UNL     1     -10.281   6.276  72.720  1.00  0.00    -0.202 C  
ENDROOT
BRANCH   7  12
HETATM   12  C   UNL     1      -7.334   4.850  70.857  1.00  0.00    -0.064 C  
HETATM   13  S   UNL     1      -7.976   5.208  69.226  1.00  0.00    -0.081 S  
HETATM   14  O   UNL     1      -6.924   4.920  68.273  1.00  0.00    -0.055 OA 
HETATM   15  O   UNL     1      -8.660   6.476  69.243  1.00  0.00    -0.125 OA 
HETATM   16  O   UNL     1      -9.078   4.040  69.082  1.00  0.00    -0.110 OA 
ENDBRANCH   7  12
BRANCH   8  17
HETATM   17  C   UNL     1     -11.491   8.252  71.875  1.00  0.00    -0.372 A  
HETATM   18  C   UNL     1     -10.349   8.953  71.466  1.00  0.00    -0.394 A  
HETATM   19  C   UNL     1     -10.477  10.189  70.818  1.00  0.00     0.022 A  
HETATM   20  C   UNL     1     -11.741  10.737  70.576  1.00  0.00    -0.449 A  
HETATM   21  C   UNL     1     -12.757   8.779  71.590  1.00  0.00    -0.394 A  
HETATM   22  C   UNL     1     -12.881  10.013  70.942  1.00  0.00    -0.408 A  
BRANCH  20  23
HETATM   23  C   UNL     1     -11.870  12.067  69.983  1.00  0.00    -0.392 C  
HETATM   24  C   UNL     1     -11.423  12.369  68.764  1.00  0.00    -0.350 C  
HETATM   25  C   UNL     1     -10.708  11.561  67.709  1.00  0.00    -0.249 C  
HETATM   26  C   UNL     1     -11.749  11.324  66.594  1.00  0.00     0.322 C  
HETATM   27  C   UNL     1     -11.902  12.723  65.937  1.00  0.00    -0.490 C  
HETATM   28  C   UNL     1     -10.909  13.613  66.732  1.00  0.00    -0.291 C  
HETATM   29  C   UNL     1      -9.749  12.608  67.076  1.00  0.00    -0.225 C  
HETATM   30  C   UNL     1      -8.973  12.056  65.863  1.00  0.00     0.035 C  
HETATM   31  C   UNL     1     -11.528  13.729  68.122  1.00  0.00    -0.313 C  
HETATM   32  O   UNL     1     -11.998  14.716  68.650  1.00  0.00    -0.315 OA 
HETATM   33  C   UNL     1      -8.686  13.169  68.052  1.00  0.00    -0.190 C  
BRANCH  28  34
HETATM   34  C   UNL     1     -10.459  14.907  66.083  1.00  0.00    -0.306 C  
HETATM   35  S   UNL     1     -10.161  16.276  67.191  1.00  0.00    -0.274 S  
HETATM   36  O   UNL     1     -11.393  16.657  67.845  1.00  0.00    -0.199 OA 
HETATM   37  O   UNL     1      -9.941  17.399  66.045  1.00  0.00    -0.434 OA 
HETATM   38  O   UNL     1      -8.909  16.162  67.894  1.00  0.00    -0.180 OA 
ENDBRANCH  28  34
ENDBRANCH  20  23
ENDBRANCH   8  17
TORSDOF 4
ENDMDL
MODEL       96
REMARK 921   NORMALIZED FREE ENERGY PREDICTED BY IDOCK:   -0.51 KCAL/MOL
REMARK 922        TOTAL FREE ENERGY PREDICTED BY IDOCK:   -1.12 KCAL/MOL
REMARK 923 INTER-LIGAND FREE ENERGY PREDICTED BY IDOCK:   -5.41 KCAL/MOL
REMARK 924 INTRA-LIGAND FREE ENERGY PREDICTED BY IDOCK:    4.29 KCAL/MOL
REMARK 927      BINDING AFFINITY PREDICTED BY RF-SCORE:    0.00 PKD
ROOT
HETATM    1  C   UNL     1     -10.556  18.755  66.940  1.00  0.00    -0.472 C  
HETATM    2  C   UNL     1      -9.762  17.496  67.360  1.00  0.00    -0.274 C  
HETATM    3  C   UNL     1      -9.065  16.986  66.080  1.00  0.00    -0.239 C  
HETATM    4  C   UNL     1      -8.795  17.749  68.546  1.00  0.00    -0.284 C  
HETATM    5  C   UNL     1      -9.773  18.082  69.709  1.00  0.00     0.712 C  
HETATM    6  C   UNL     1     -11.028  17.205  69.410  1.00  0.00     0.163 C  
HETATM    7  C   UNL     1     -10.602  16.420  68.145  1.00  0.00    -0.318 C  
HETATM    8  C   UNL     1      -7.002  15.921  69.008  1.00  0.00    -0.156 C  
HETATM    9  C   UNL     1      -9.500  15.524  68.695  1.00  0.00    -0.204 C  
HETATM   10  O   UNL     1      -9.657  14.405  69.152  1.00  0.00    -0.112 OA 
HETATM   11  C   UNL     1      -8.255  16.354  68.808  1.00  0.00    -0.234 C  
ENDROOT
BRANCH   7  12
HETATM   12  C   UNL     1     -11.652  15.705  67.314  1.00  0.00     0.065 C  
HETATM   13  S   UNL     1     -11.123  14.886  65.815  1.00  0.00    -0.341 S  
HETATM   14  O   UNL     1     -12.271  14.185  65.276  1.00  0.00    -0.396 OA 
HETATM   15  O   UNL     1      -9.865  14.221  66.045  1.00  0.00    -0.302 OA 
HETATM   16  O   UNL     1     -10.856  16.159  64.863  1.00  0.00    -0.582 OA 
ENDBRANCH   7  12
BRANCH   8  17
HETATM   17  C   UNL     1      -6.677  14.508  69.239  1.00  0.00    -0.127 A  
HETATM   18  C   UNL     1      -6.852  13.548  68.235  1.00  0.00    -0.108 A  
HETATM   19  C   UNL     1      -6.673  12.188  68.522  1.00  0.00    -0.071 A  
HETATM   20  C   UNL     1      -6.320  11.776  69.810  1.00  0.00    -0.125 A  
HETATM   21  C   UNL     1      -6.278  14.097  70.517  1.00  0.00    -0.138 A  
HETATM   22  C   UNL     1      -6.099  12.739  70.801  1.00  0.00     0.256 A  
BRANCH  20  23
HETATM   23  C   UNL     1      -6.223  10.352  70.131  1.00  0.00    -0.108 C  
HETATM   24  C   UNL     1      -7.242   9.503  69.994  1.00  0.00    -0.101 C  
HETATM   25  C   UNL     1      -8.669   9.685  69.538  1.00  0.00    -0.191 C  
HETATM   26  C   UNL     1      -8.742   9.028  68.142  1.00  0.00    -0.130 C  
HETATM   27  C   UNL     1      -8.651   7.508  68.450  1.00  0.00    -0.124 C  
HETATM   28  C   UNL     1      -8.560   7.452  69.999  1.00  0.00    -0.140 C  
HETATM   29  C   UNL     1      -9.441   8.679  70.438  1.00  0.00    -0.192 C  
HETATM   30  C   UNL     1     -10.937   8.578  70.081  1.00  0.00    -0.221 C  
HETATM   31  C   UNL     1      -7.185   8.033  70.323  1.00  0.00    -0.053 C  
HETATM   32  O   UNL     1      -6.221   7.456  70.782  1.00  0.00    -0.035 OA 
HETATM   33  C   UNL     1      -9.377   9.002  71.951  1.00  0.00    -0.145 C  
BRANCH  28  34
HETATM   34  C   UNL     1      -8.914   6.141  70.672  1.00  0.00    -0.147 C  
HETATM   35  S   UNL     1      -9.052   6.186  72.452  1.00  0.00    -0.134 S  
HETATM   36  O   UNL     1      -7.769   6.511  73.038  1.00  0.00    -0.096 OA 
HETATM   37  O   UNL     1      -9.208   4.589  72.669  1.00  0.00    -0.124 OA 
HETATM   38  O   UNL     1     -10.285   6.780  72.900  1.00  0.00    -0.182 OA 
ENDBRANCH  28  34
ENDBRANCH  20  23
ENDBRANCH   8  17
TORSDOF 4
ENDMDL
MODEL       97
REMARK 921   NORMALIZED FREE ENERGY PREDICTED BY IDOCK:   -0.14 KCAL/MOL
REMARK 922        TOTAL FREE ENERGY PREDICTED BY IDOCK:   -0.66 KCAL/MOL
REMARK 923 INTER-LIGAND FREE ENERGY PREDICTED BY IDOCK:   -5.03 KCAL/MOL
REMARK 924 INTRA-LIGAND FREE ENERGY PREDICTED BY IDOCK:    4.37 KCAL/MOL
REMARK 927      BINDING AFFINITY PREDICTED BY RF-SCORE:    0.00 PKD
ROOT
HETATM    1  C   UNL     1      -9.561   3.375  66.277  1.00  0.00    -0.066 C  
HETATM    2  C   UNL     1      -9.570   4.919  66.175  1.00  0.00    -0.183 C  
HETATM    3  C   UNL     1     -10.329   5.256  64.874  1.00  0.00     0.877 C  
HETATM    4  C   UNL     1     -10.143   5.613  67.439  1.00  0.00    -0.206 C  
HETATM    5  C   UNL     1      -9.103   5.231  68.530  1.00  0.00    -0.127 C  
HETATM    6  C   UNL     1      -7.748   5.176  67.759  1.00  0.00    -0.088 C  
HETATM    7  C   UNL     1      -8.155   5.595  66.325  1.00  0.00    -0.107 C  
HETATM    8  C   UNL     1     -10.743   8.135  67.220  1.00  0.00    -0.263 C  
HETATM    9  C   UNL     1      -8.541   7.054  66.528  1.00  0.00    -0.129 C  
HETATM   10  O   UNL     1      -7.789   8.008  66.431  1.00  0.00    -0.093 OA 
HETATM   11  C   UNL     1      -9.923   7.080  67.112  1.00  0.00    -0.248 C  
ENDROOT
BRANCH   7  12
HETATM   12  C   UNL     1      -7.205   5.340  65.169  1.00  0.00    -0.067 C  
HETATM   13  S   UNL     1      -6.181   6.695  64.608  1.00  0.00    -0.039 S  
HETATM   14  O   UNL     1      -5.289   6.173  63.593  1.00  0.00    -0.017 OA 
HETATM   15  O   UNL     1      -5.692   7.435  65.744  1.00  0.00    -0.035 OA 
HETATM   16  O   UNL     1      -7.281   7.599  63.851  1.00  0.00    -0.071 OA 
ENDBRANCH   7  12
BRANCH   8  17
HETATM   17  C   UNL     1     -10.343   9.495  66.838  1.00  0.00    -0.307 A  
HETATM   18  C   UNL     1      -9.670  10.334  67.734  1.00  0.00    -0.178 A  
HETATM   19  C   UNL     1      -9.427  11.673  67.397  1.00  0.00    -0.171 A  
HETATM   20  C   UNL     1      -9.855  12.185  66.168  1.00  0.00    -0.254 A  
HETATM   21  C   UNL     1     -10.729   9.996  65.588  1.00  0.00     0.283 A  
HETATM   22  C   UNL     1     -10.485  11.333  65.255  1.00  0.00    -0.341 A  
BRANCH  20  23
HETATM   23  C   UNL     1      -9.683  13.603  65.857  1.00  0.00    -0.206 C  
HETATM   24  C   UNL     1      -9.040  14.453  66.659  1.00  0.00    -0.265 C  
HETATM   25  C   UNL     1      -8.367  14.282  67.998  1.00  0.00    -0.157 C  
HETATM   26  C   UNL     1      -6.852  14.375  67.712  1.00  0.00    -0.194 C  
HETATM   27  C   UNL     1      -6.634  15.877  67.387  1.00  0.00    -0.222 C  
HETATM   28  C   UNL     1      -8.050  16.496  67.544  1.00  0.00    -0.171 C  
HETATM   29  C   UNL     1      -8.673  15.634  68.703  1.00  0.00    -0.193 C  
HETATM   30  C   UNL     1      -7.978  15.769  70.073  1.00  0.00     0.523 C  
HETATM   31  C   UNL     1      -8.851  15.921  66.379  1.00  0.00    -0.333 C  
HETATM   32  O   UNL     1      -9.289  16.511  65.412  1.00  0.00    -0.371 OA 
HETATM   33  C   UNL     1     -10.178  15.894  68.954  1.00  0.00    -0.226 C  
BRANCH  28  34
HETATM   34  C   UNL     1      -8.137  17.995  67.749  1.00  0.00    -0.237 C  
HETATM   35  S   UNL     1      -9.757  18.641  68.136  1.00  0.00    -0.356 S  
HETATM   36  O   UNL     1     -10.655  18.416  67.024  1.00  0.00    -0.395 OA 
HETATM   37  O   UNL     1      -9.364  20.208  68.035  1.00  0.00    -0.316 OA 
HETATM   38  O   UNL     1     -10.138  18.405  69.504  1.00  0.00    -0.082 OA 
ENDBRANCH  28  34
ENDBRANCH  20  23
ENDBRANCH   8  17
TORSDOF 4
ENDMDL
MODEL       98
REMARK 921   NORMALIZED FREE ENERGY PREDICTED BY IDOCK:   -0.01 KCAL/MOL
REMARK 922        TOTAL FREE ENERGY PREDICTED BY IDOCK:   -0.50 KCAL/MOL
REMARK 923 INTER-LIGAND FREE ENERGY PREDICTED BY IDOCK:   -3.38 KCAL/MOL
REMARK 924 INTRA-LIGAND FREE ENERGY PREDICTED BY IDOCK:    2.88 KCAL/MOL
REMARK 927      BINDING AFFINITY PREDICTED BY RF-SCORE:    0.00 PKD
ROOT
HETATM    1  C   UNL     1      -7.325  20.594  67.779  1.00  0.00    -0.276 C  
HETATM    2  C   UNL     1      -7.137  19.075  68.007  1.00  0.00    -0.263 C  
HETATM    3  C   UNL     1      -6.747  18.484  66.635  1.00  0.00    -0.218 C  
HETATM    4  C   UNL     1      -6.135  18.745  69.144  1.00  0.00    -0.252 C  
HETATM    5  C   UNL     1      -6.857  19.312  70.400  1.00  0.00     0.411 C  
HETATM    6  C   UNL     1      -8.371  19.091  70.097  1.00  0.00     1.530 C  
HETATM    7  C   UNL     1      -8.343  18.365  68.729  1.00  0.00    -0.255 C  
HETATM    8  C   UNL     1      -5.288  16.290  69.284  1.00  0.00    -0.114 C  
HETATM    9  C   UNL     1      -7.720  17.026  69.103  1.00  0.00    -0.114 C  
HETATM   10  O   UNL     1      -8.332  16.030  69.448  1.00  0.00    -0.241 OA 
HETATM   11  C   UNL     1      -6.239  17.232  69.218  1.00  0.00    -0.237 C  
ENDROOT
BRANCH   7  12
HETATM   12  C   UNL     1      -9.612  18.271  67.902  1.00  0.00    -0.289 C  
HETATM   13  S   UNL     1      -9.504  17.528  66.279  1.00  0.00    -0.175 S  
HETATM   14  O   UNL     1     -10.850  17.446  65.749  1.00  0.00    -0.219 OA 
HETATM   15  O   UNL     1      -8.634  16.380  66.328  1.00  0.00    -0.296 OA 
HETATM   16  O   UNL     1      -8.748  18.700  65.470  1.00  0.00    -0.043 OA 
ENDBRANCH   7  12
BRANCH   8  17
HETATM   17  C   UNL     1      -5.593  14.855  69.339  1.00  0.00    -0.095 A  
HETATM   18  C   UNL     1      -6.263  14.213  68.291  1.00  0.00    -0.117 A  
HETATM   19  C   UNL     1      -6.671  12.879  68.428  1.00  0.00    -0.092 A  
HETATM   20  C   UNL     1      -6.416  12.177  69.611  1.00  0.00    -0.082 A  
HETATM   21  C   UNL     1      -5.298  14.137  70.505  1.00  0.00    -0.115 A  
HETATM   22  C   UNL     1      -5.705  12.805  70.639  1.00  0.00    -0.156 A  
BRANCH  20  23
HETATM   23  C   UNL     1      -6.922  10.817  69.787  1.00  0.00    -0.141 C  
HETATM   24  C   UNL     1      -7.165   9.991  68.769  1.00  0.00    -0.076 C  
HETATM   25  C   UNL     1      -7.038  10.149  67.274  1.00  0.00    -0.088 C  
HETATM   26  C   UNL     1      -5.820   9.290  66.871  1.00  0.00    -0.051 C  
HETATM   27  C   UNL     1      -6.330   7.833  67.039  1.00  0.00    -0.054 C  
HETATM   28  C   UNL     1      -7.802   8.010  67.500  1.00  0.00    -0.118 C  
HETATM   29  C   UNL     1      -8.242   9.319  66.745  1.00  0.00    -0.115 C  
HETATM   30  C   UNL     1      -8.271   9.215  65.207  1.00  0.00    -0.135 C  
HETATM   31  C   UNL     1      -7.696   8.588  68.909  1.00  0.00    -0.100 C  
HETATM   32  O   UNL     1      -7.997   8.055  69.958  1.00  0.00    -0.102 OA 
HETATM   33  C   UNL     1      -9.627   9.865  67.168  1.00  0.00    -0.201 C  
BRANCH  28  34
HETATM   34  C   UNL     1      -8.736   6.830  67.323  1.00  0.00    -0.119 C  
HETATM   35  S   UNL     1      -8.023   5.217  67.610  1.00  0.00    -0.099 S  
HETATM   36  O   UNL     1      -6.987   4.956  66.634  1.00  0.00    -0.064 OA 
HETATM   37  O   UNL     1      -9.295   4.356  67.097  1.00  0.00    -0.133 OA 
HETATM   38  O   UNL     1      -7.867   4.918  69.009  1.00  0.00    -0.075 OA 
ENDBRANCH  28  34
ENDBRANCH  20  23
ENDBRANCH   8  17
TORSDOF 4
ENDMDL
MODEL       99
REMARK 921   NORMALIZED FREE ENERGY PREDICTED BY IDOCK:    0.16 KCAL/MOL
REMARK 922        TOTAL FREE ENERGY PREDICTED BY IDOCK:   -0.29 KCAL/MOL
REMARK 923 INTER-LIGAND FREE ENERGY PREDICTED BY IDOCK:   -2.50 KCAL/MOL
REMARK 924 INTRA-LIGAND FREE ENERGY PREDICTED BY IDOCK:    2.20 KCAL/MOL
REMARK 927      BINDING AFFINITY PREDICTED BY RF-SCORE:    0.00 PKD
ROOT
HETATM    1  C   UNL     1     -10.213   2.894  66.010  1.00  0.00     1.240 C  
HETATM    2  C   UNL     1      -9.957   4.401  66.253  1.00  0.00    -0.255 C  
HETATM    3  C   UNL     1     -10.838   5.153  65.233  1.00  0.00     0.469 C  
HETATM    4  C   UNL     1     -10.189   4.832  67.725  1.00  0.00    -0.077 C  
HETATM    5  C   UNL     1      -9.076   4.050  68.481  1.00  0.00    -0.189 C  
HETATM    6  C   UNL     1      -7.893   4.001  67.467  1.00  0.00    -0.090 C  
HETATM    7  C   UNL     1      -8.437   4.815  66.267  1.00  0.00    -0.111 C  
HETATM    8  C   UNL     1     -10.348   7.387  68.187  1.00  0.00    -0.235 C  
HETATM    9  C   UNL     1      -8.516   6.217  66.857  1.00  0.00    -0.109 C  
HETATM   10  O   UNL     1      -7.628   7.051  66.826  1.00  0.00    -0.087 OA 
HETATM   11  C   UNL     1      -9.760   6.289  67.692  1.00  0.00    -0.126 C  
ENDROOT
BRANCH   7  12
HETATM   12  C   UNL     1      -7.744   4.726  64.921  1.00  0.00    -0.078 C  
HETATM   13  S   UNL     1      -6.337   5.791  64.627  1.00  0.00    -0.034 S  
HETATM   14  O   UNL     1      -5.785   5.435  63.336  1.00  0.00    -0.014 OA 
HETATM   15  O   UNL     1      -5.521   5.854  65.813  1.00  0.00    -0.009 OA 
HETATM   16  O   UNL     1      -7.078   7.212  64.449  1.00  0.00    -0.053 OA 
ENDBRANCH   7  12
BRANCH   8  17
HETATM   17  C   UNL     1      -9.773   8.730  68.041  1.00  0.00    -0.183 A  
HETATM   18  C   UNL     1      -9.483   9.264  66.779  1.00  0.00    -0.228 A  
HETATM   19  C   UNL     1      -8.804  10.485  66.670  1.00  0.00    -0.145 A  
HETATM   20  C   UNL     1      -8.406  11.180  67.816  1.00  0.00    -0.123 A  
HETATM   21  C   UNL     1      -9.415   9.451  69.188  1.00  0.00    -0.163 A  
HETATM   22  C   UNL     1      -8.738  10.670  69.076  1.00  0.00    -0.152 A  
BRANCH  20  23
HETATM   23  C   UNL     1      -7.618  12.406  67.702  1.00  0.00    -0.141 C  
HETATM   24  C   UNL     1      -8.164  13.618  67.594  1.00  0.00    -0.178 C  
HETATM   25  C   UNL     1      -9.596  14.091  67.543  1.00  0.00    -0.228 C  
HETATM   26  C   UNL     1      -9.853  14.775  68.903  1.00  0.00    -0.222 C  
HETATM   27  C   UNL     1      -9.033  16.091  68.809  1.00  0.00    -0.226 C  
HETATM   28  C   UNL     1      -8.409  16.034  67.388  1.00  0.00    -0.188 C  
HETATM   29  C   UNL     1      -9.518  15.291  66.557  1.00  0.00    -0.308 C  
HETATM   30  C   UNL     1     -10.857  16.044  66.420  1.00  0.00    -0.159 C  
HETATM   31  C   UNL     1      -7.387  14.902  67.464  1.00  0.00    -0.204 C  
HETATM   32  O   UNL     1      -6.177  14.985  67.407  1.00  0.00    -0.324 OA 
HETATM   33  C   UNL     1      -9.089  14.906  65.120  1.00  0.00     1.475 C  
BRANCH  28  34
HETATM   34  C   UNL     1      -7.928  17.338  66.785  1.00  0.00    -0.241 C  
HETATM   35  S   UNL     1      -6.658  18.203  67.696  1.00  0.00    -0.188 S  
HETATM   36  O   UNL     1      -7.171  18.615  68.984  1.00  0.00    -0.296 OA 
HETATM   37  O   UNL     1      -6.669  19.551  66.800  1.00  0.00    -0.194 OA 
HETATM   38  O   UNL     1      -5.355  17.614  67.529  1.00  0.00    -0.125 OA 
ENDBRANCH  28  34
ENDBRANCH  20  23
ENDBRANCH   8  17
TORSDOF 4
ENDMDL
MODEL      100
REMARK 921   NORMALIZED FREE ENERGY PREDICTED BY IDOCK:    0.24 KCAL/MOL
REMARK 922        TOTAL FREE ENERGY PREDICTED BY IDOCK:   -0.20 KCAL/MOL
REMARK 923 INTER-LIGAND FREE ENERGY PREDICTED BY IDOCK:   -1.40 KCAL/MOL
REMARK 924 INTRA-LIGAND FREE ENERGY PREDICTED BY IDOCK:    1.20 KCAL/MOL
REMARK 927      BINDING AFFINITY PREDICTED BY RF-SCORE:    0.00 PKD
ROOT
HETATM    1  C   UNL     1     -12.219  13.847  64.543  1.00  0.00    -0.451 C  
HETATM    2  C   UNL     1     -11.483  12.582  65.046  1.00  0.00    -0.368 C  
HETATM    3  C   UNL     1     -12.525  11.444  65.019  1.00  0.00     1.527 C  
HETATM    4  C   UNL     1     -10.188  12.270  64.250  1.00  0.00    -0.356 C  
HETATM    5  C   UNL     1      -9.286  13.491  64.590  1.00  0.00     1.718 C  
HETATM    6  C   UNL     1      -9.680  13.857  66.054  1.00  0.00    -0.270 C  
HETATM    7  C   UNL     1     -10.718  12.765  66.410  1.00  0.00    -0.282 C  
HETATM    8  C   UNL     1      -9.146   9.911  64.586  1.00  0.00    -0.288 C  
HETATM    9  C   UNL     1      -9.852  11.513  66.437  1.00  0.00    -0.205 C  
HETATM   10  O   UNL     1      -9.275  11.069  67.415  1.00  0.00    -0.151 OA 
HETATM   11  C   UNL     1      -9.633  11.082  65.017  1.00  0.00    -0.291 C  
ENDROOT
BRANCH   7  12
HETATM   12  C   UNL     1     -11.616  12.947  67.620  1.00  0.00    -0.355 C  
HETATM   13  S   UNL     1     -11.047  12.315  69.193  1.00  0.00    -0.164 S  
HETATM   14  O   UNL     1     -12.011  12.716  70.197  1.00  0.00    -0.346 OA 
HETATM   15  O   UNL     1      -9.638  12.582  69.342  1.00  0.00     0.649 OA 
HETATM   16  O   UNL     1     -11.238  10.731  68.959  1.00  0.00    -0.223 OA 
ENDBRANCH   7  12
BRANCH   8  17
HETATM   17  C   UNL     1      -8.658   8.869  65.498  1.00  0.00    -0.191 A  
HETATM   18  C   UNL     1      -7.292   8.718  65.766  1.00  0.00    -0.085 A  
HETATM   19  C   UNL     1      -6.839   7.629  66.523  1.00  0.00    -0.062 A  
HETATM   20  C   UNL     1      -7.743   6.683  67.017  1.00  0.00    -0.103 A  
HETATM   21  C   UNL     1      -9.567   7.946  66.032  1.00  0.00    -0.037 A  
HETATM   22  C   UNL     1      -9.112   6.861  66.789  1.00  0.00    -0.162 A  
BRANCH  20  23
HETATM   23  C   UNL     1      -7.262   5.500  67.728  1.00  0.00    -0.072 C  
HETATM   24  C   UNL     1      -7.260   5.398  69.058  1.00  0.00    -0.062 C  
HETATM   25  C   UNL     1      -7.681   6.345  70.154  1.00  0.00    -0.098 C  
HETATM   26  C   UNL     1      -8.986   5.753  70.730  1.00  0.00    -0.156 C  
HETATM   27  C   UNL     1      -8.505   4.495  71.503  1.00  0.00    -0.116 C  
HETATM   28  C   UNL     1      -6.965   4.511  71.308  1.00  0.00    -0.039 C  
HETATM   29  C   UNL     1      -6.641   6.050  71.271  1.00  0.00    -0.050 C  
HETATM   30  C   UNL     1      -6.928   6.816  72.578  1.00  0.00    -0.064 C  
HETATM   31  C   UNL     1      -6.763   4.202  69.827  1.00  0.00    -0.034 C  
HETATM   32  O   UNL     1      -6.275   3.205  69.333  1.00  0.00    -0.027 OA 
HETATM   33  C   UNL     1      -5.179   6.385  70.885  1.00  0.00    -0.018 C  
BRANCH  28  34
HETATM   34  C   UNL     1      -6.130   3.708  72.286  1.00  0.00    -0.013 C  
HETATM   35  S   UNL     1      -6.985   3.098  73.731  1.00  0.00    -0.038 S  
HETATM   36  O   UNL     1      -7.443   4.208  74.537  1.00  0.00    -0.073 OA 
HETATM   37  O   UNL     1      -5.675   2.543  74.504  1.00  0.00    -0.003 OA 
HETATM   38  O   UNL     1      -7.808   1.950  73.448  1.00  0.00    -0.040 OA 
ENDBRANCH  28  34
ENDBRANCH  20  23
ENDBRANCH   8  17
TORSDOF 4
ENDMDL
MODEL      101
REMARK 921   NORMALIZED FREE ENERGY PREDICTED BY IDOCK:    0.51 KCAL/MOL
REMARK 922        TOTAL FREE ENERGY PREDICTED BY IDOCK:    0.14 KCAL/MOL
REMARK 923 INTER-LIGAND FREE ENERGY PREDICTED BY IDOCK:   -2.04 KCAL/MOL
REMARK 924 INTRA-LIGAND FREE ENERGY PREDICTED BY IDOCK:    2.18 KCAL/MOL
REMARK 927      BINDING AFFINITY PREDICTED BY RF-SCORE:    0.00 PKD
ROOT
HETATM    1  C   UNL     1     -13.426  15.713  65.417  1.00  0.00     2.751 C  
HETATM    2  C   UNL     1     -12.581  14.421  65.318  1.00  0.00    -0.333 C  
HETATM    3  C   UNL     1     -13.573  13.289  64.976  1.00  0.00     1.367 C  
HETATM    4  C   UNL     1     -11.393  14.540  64.327  1.00  0.00    -0.135 C  
HETATM    5  C   UNL     1     -10.502  15.621  65.003  1.00  0.00    -0.364 C  
HETATM    6  C   UNL     1     -10.710  15.381  66.530  1.00  0.00    -0.308 C  
HETATM    7  C   UNL     1     -11.648  14.150  66.558  1.00  0.00    -0.389 C  
HETATM    8  C   UNL     1     -10.225  12.324  63.626  1.00  0.00    -0.430 C  
HETATM    9  C   UNL     1     -10.738  13.057  66.012  1.00  0.00    -0.274 C  
HETATM   10  O   UNL     1     -10.018  12.334  66.680  1.00  0.00    -0.209 OA 
HETATM   11  C   UNL     1     -10.694  13.206  64.520  1.00  0.00    -0.416 C  
ENDROOT
BRANCH   7  12
HETATM   12  C   UNL     1     -12.382  13.792  67.837  1.00  0.00     0.029 C  
HETATM   13  S   UNL     1     -11.854  14.572  69.356  1.00  0.00    -0.333 S  
HETATM   14  O   UNL     1     -12.776  14.165  70.397  1.00  0.00    -0.342 OA 
HETATM   15  O   UNL     1     -11.552  15.960  69.109  1.00  0.00    -0.362 OA 
HETATM   16  O   UNL     1     -10.467  13.793  69.620  1.00  0.00     0.162 OA 
ENDBRANCH   7  12
BRANCH   8  17
HETATM   17  C   UNL     1      -9.579  11.065  64.016  1.00  0.00    -0.310 A  
HETATM   18  C   UNL     1      -9.738  10.533  65.302  1.00  0.00    -0.328 A  
HETATM   19  C   UNL     1      -8.998   9.410  65.696  1.00  0.00    -0.236 A  
HETATM   20  C   UNL     1      -8.094   8.810  64.813  1.00  0.00    -0.151 A  
HETATM   21  C   UNL     1      -8.707  10.435  63.118  1.00  0.00    -0.203 A  
HETATM   22  C   UNL     1      -7.971   9.313  63.514  1.00  0.00    -0.144 A  
BRANCH  20  23
HETATM   23  C   UNL     1      -7.257   7.696  65.255  1.00  0.00    -0.065 C  
HETATM   24  C   UNL     1      -7.496   7.001  66.368  1.00  0.00    -0.084 C  
HETATM   25  C   UNL     1      -8.560   7.111  67.432  1.00  0.00    -0.121 C  
HETATM   26  C   UNL     1      -9.487   5.897  67.214  1.00  0.00    -0.117 C  
HETATM   27  C   UNL     1      -8.627   4.693  67.686  1.00  0.00    -0.104 C  
HETATM   28  C   UNL     1      -7.299   5.350  68.150  1.00  0.00    -0.072 C  
HETATM   29  C   UNL     1      -7.784   6.731  68.725  1.00  0.00    -0.110 C  
HETATM   30  C   UNL     1      -8.691   6.646  69.968  1.00  0.00    -0.141 C  
HETATM   31  C   UNL     1      -6.652   5.855  66.863  1.00  0.00    -0.056 C  
HETATM   32  O   UNL     1      -5.639   5.451  66.329  1.00  0.00    -0.016 OA 
HETATM   33  C   UNL     1      -6.639   7.708  69.090  1.00  0.00    -0.040 C  
BRANCH  28  34
HETATM   34  C   UNL     1      -6.413   4.548  69.082  1.00  0.00    -0.039 C  
HETATM   35  S   UNL     1      -6.656   2.778  69.066  1.00  0.00    -0.033 S  
HETATM   36  O   UNL     1      -7.986   2.460  69.537  1.00  0.00    -0.042 OA 
HETATM   37  O   UNL     1      -5.688   2.445  70.320  1.00  0.00    -0.016 OA 
HETATM   38  O   UNL     1      -6.065   2.145  67.916  1.00  0.00    -0.023 OA 
ENDBRANCH  28  34
ENDBRANCH  20  23
ENDBRANCH   8  17
TORSDOF 4
ENDMDL
MODEL      102
REMARK 921   NORMALIZED FREE ENERGY PREDICTED BY IDOCK:    0.69 KCAL/MOL
REMARK 922        TOTAL FREE ENERGY PREDICTED BY IDOCK:    0.37 KCAL/MOL
REMARK 923 INTER-LIGAND FREE ENERGY PREDICTED BY IDOCK:   -5.76 KCAL/MOL
REMARK 924 INTRA-LIGAND FREE ENERGY PREDICTED BY IDOCK:    6.13 KCAL/MOL
REMARK 927      BINDING AFFINITY PREDICTED BY RF-SCORE:    0.00 PKD
ROOT
HETATM    1  C   UNL     1     -10.283   6.408  66.840  1.00  0.00    -0.277 C  
HETATM    2  C   UNL     1     -10.325   7.886  67.296  1.00  0.00    -0.377 C  
HETATM    3  C   UNL     1     -10.844   8.690  66.086  1.00  0.00     1.386 C  
HETATM    4  C   UNL     1     -11.144   8.103  68.596  1.00  0.00     0.311 C  
HETATM    5  C   UNL     1     -10.308   7.321  69.651  1.00  0.00    -0.227 C  
HETATM    6  C   UNL     1      -8.834   7.499  69.173  1.00  0.00    -0.136 C  
HETATM    7  C   UNL     1      -8.986   8.415  67.934  1.00  0.00    -0.138 C  
HETATM    8  C   UNL     1     -11.779  10.555  69.186  1.00  0.00    -0.261 C  
HETATM    9  C   UNL     1      -9.453   9.718  68.570  1.00  0.00    -0.145 C  
HETATM   10  O   UNL     1      -8.728  10.618  68.958  1.00  0.00    -0.153 OA 
HETATM   11  C   UNL     1     -10.918   9.581  68.860  1.00  0.00    -0.116 C  
ENDROOT
BRANCH   7  12
HETATM   12  C   UNL     1      -7.832   8.558  66.958  1.00  0.00    -0.096 C  
HETATM   13  S   UNL     1      -8.046   9.646  65.556  1.00  0.00    -0.127 S  
HETATM   14  O   UNL     1      -6.780   9.704  64.854  1.00  0.00    -0.093 OA 
HETATM   15  O   UNL     1      -8.741  10.839  65.970  1.00  0.00    -0.170 OA 
HETATM   16  O   UNL     1      -9.049   8.765  64.651  1.00  0.00    -0.027 OA 
ENDBRANCH   7  12
BRANCH   8  17
HETATM   17  C   UNL     1     -11.362  11.948  69.393  1.00  0.00    -0.327 A  
HETATM   18  C   UNL     1     -11.861  12.705  70.461  1.00  0.00    -0.140 A  
HETATM   19  C   UNL     1     -11.562  14.071  70.555  1.00  0.00    -0.171 A  
HETATM   20  C   UNL     1     -10.768  14.692  69.586  1.00  0.00    -0.168 A  
HETATM   21  C   UNL     1     -10.529  12.561  68.449  1.00  0.00    -0.250 A  
HETATM   22  C   UNL     1     -10.232  13.925  68.546  1.00  0.00    -0.240 A  
BRANCH  20  23
HETATM   23  C   UNL     1     -10.533  16.134  69.635  1.00  0.00    -0.291 C  
HETATM   24  C   UNL     1      -9.868  16.798  68.689  1.00  0.00    -0.261 C  
HETATM   25  C   UNL     1      -9.198  16.356  67.411  1.00  0.00    -0.213 C  
HETATM   26  C   UNL     1     -10.101  16.875  66.271  1.00  0.00    -0.335 C  
HETATM   27  C   UNL     1      -9.866  18.410  66.291  1.00  0.00    -0.338 C  
HETATM   28  C   UNL     1      -8.829  18.608  67.430  1.00  0.00    -0.284 C  
HETATM   29  C   UNL     1      -7.963  17.298  67.336  1.00  0.00    -0.201 C  
HETATM   30  C   UNL     1      -7.158  17.131  66.032  1.00  0.00    -0.120 C  
HETATM   31  C   UNL     1      -9.597  18.280  68.708  1.00  0.00    -0.300 C  
HETATM   32  O   UNL     1      -9.920  19.039  69.600  1.00  0.00    -0.044 OA 
HETATM   33  C   UNL     1      -6.953  17.116  68.495  1.00  0.00    -0.201 C  
BRANCH  28  34
HETATM   34  C   UNL     1      -8.034  19.898  67.433  1.00  0.00    -0.289 C  
HETATM   35  S   UNL     1      -6.624  19.952  66.336  1.00  0.00    -0.211 S  
HETATM   36  O   UNL     1      -5.644  18.970  66.746  1.00  0.00    -0.152 OA 
HETATM   37  O   UNL     1      -6.032  21.365  66.861  1.00  0.00    -0.286 OA 
HETATM   38  O   UNL     1      -6.997  20.153  64.960  1.00  0.00    -0.291 OA 
ENDBRANCH  28  34
ENDBRANCH  20  23
ENDBRANCH   8  17
TORSDOF 4
ENDMDL
MODEL      103
REMARK 921   NORMALIZED FREE ENERGY PREDICTED BY IDOCK:    0.70 KCAL/MOL
REMARK 922        TOTAL FREE ENERGY PREDICTED BY IDOCK:    0.38 KCAL/MOL
REMARK 923 INTER-LIGAND FREE ENERGY PREDICTED BY IDOCK:   -4.25 KCAL/MOL
REMARK 924 INTRA-LIGAND FREE ENERGY PREDICTED BY IDOCK:    4.63 KCAL/MOL
REMARK 927      BINDING AFFINITY PREDICTED BY RF-SCORE:    0.00 PKD
ROOT
HETATM    1  C   UNL     1     -10.564   4.617  71.604  1.00  0.00    -0.045 C  
HETATM    2  C   UNL     1     -10.090   5.961  71.002  1.00  0.00    -0.252 C  
HETATM    3  C   UNL     1      -9.492   5.621  69.620  1.00  0.00    -0.180 C  
HETATM    4  C   UNL     1     -11.204   7.040  70.959  1.00  0.00    -0.309 C  
HETATM    5  C   UNL     1     -11.487   7.287  72.469  1.00  0.00    -0.322 C  
HETATM    6  C   UNL     1     -10.098   7.090  73.151  1.00  0.00    -0.260 C  
HETATM    7  C   UNL     1      -9.164   6.813  71.948  1.00  0.00    -0.142 C  
HETATM    8  C   UNL     1     -10.748   9.138  69.491  1.00  0.00    -0.226 C  
HETATM    9  C   UNL     1      -9.170   8.161  71.236  1.00  0.00    -0.156 C  
HETATM   10  O   UNL     1      -8.389   9.074  71.439  1.00  0.00    -0.273 OA 
HETATM   11  C   UNL     1     -10.443   8.250  70.447  1.00  0.00    -0.223 C  
ENDROOT
BRANCH   7  12
HETATM   12  C   UNL     1      -7.786   6.223  72.185  1.00  0.00    -0.096 C  
HETATM   13  S   UNL     1      -6.664   6.120  70.796  1.00  0.00    -0.063 S  
HETATM   14  O   UNL     1      -5.392   5.643  71.300  1.00  0.00    -0.009 OA 
HETATM   15  O   UNL     1      -6.766   7.318  70.001  1.00  0.00    -0.048 OA 
HETATM   16  O   UNL     1      -7.331   4.907  69.970  1.00  0.00    -0.053 OA 
ENDBRANCH   7  12
BRANCH   8  17
HETATM   17  C   UNL     1      -9.863  10.251  69.128  1.00  0.00    -0.228 A  
HETATM   18  C   UNL     1     -10.256  11.583  69.311  1.00  0.00     0.049 A  
HETATM   19  C   UNL     1      -9.456  12.626  68.826  1.00  0.00     0.112 A  
HETATM   20  C   UNL     1      -8.262  12.351  68.153  1.00  0.00    -0.173 A  
HETATM   21  C   UNL     1      -8.644   9.979  68.495  1.00  0.00    -0.119 A  
HETATM   22  C   UNL     1      -7.847  11.023  68.012  1.00  0.00    -0.112 A  
BRANCH  20  23
HETATM   23  C   UNL     1      -7.476  13.436  67.567  1.00  0.00    -0.170 C  
HETATM   24  C   UNL     1      -7.452  14.672  68.067  1.00  0.00    -0.137 C  
HETATM   25  C   UNL     1      -8.146  15.310  69.244  1.00  0.00    -0.236 C  
HETATM   26  C   UNL     1      -7.045  15.527  70.304  1.00  0.00     0.323 C  
HETATM   27  C   UNL     1      -6.195  16.685  69.714  1.00  0.00    -0.209 C  
HETATM   28  C   UNL     1      -6.916  17.028  68.383  1.00  0.00    -0.180 C  
HETATM   29  C   UNL     1      -8.425  16.751  68.730  1.00  0.00    -0.253 C  
HETATM   30  C   UNL     1      -9.033  17.668  69.810  1.00  0.00     1.250 C  
HETATM   31  C   UNL     1      -6.664  15.818  67.487  1.00  0.00    -0.190 C  
HETATM   32  O   UNL     1      -5.987  15.763  66.481  1.00  0.00     0.261 OA 
HETATM   33  C   UNL     1      -9.383  16.818  67.515  1.00  0.00    -0.231 C  
BRANCH  28  34
HETATM   34  C   UNL     1      -6.644  18.388  67.772  1.00  0.00    -0.213 C  
HETATM   35  S   UNL     1      -7.545  18.772  66.278  1.00  0.00    -0.251 S  
HETATM   36  O   UNL     1      -7.158  17.863  65.222  1.00  0.00    -0.346 OA 
HETATM   37  O   UNL     1      -6.767  20.150  65.938  1.00  0.00    -0.225 OA 
HETATM   38  O   UNL     1      -8.916  19.131  66.533  1.00  0.00    -0.318 OA 
ENDBRANCH  28  34
ENDBRANCH  20  23
ENDBRANCH   8  17
TORSDOF 4
ENDMDL
MODEL      104
REMARK 921   NORMALIZED FREE ENERGY PREDICTED BY IDOCK:    0.70 KCAL/MOL
REMARK 922        TOTAL FREE ENERGY PREDICTED BY IDOCK:    0.38 KCAL/MOL
REMARK 923 INTER-LIGAND FREE ENERGY PREDICTED BY IDOCK:   -2.33 KCAL/MOL
REMARK 924 INTRA-LIGAND FREE ENERGY PREDICTED BY IDOCK:    2.70 KCAL/MOL
REMARK 927      BINDING AFFINITY PREDICTED BY RF-SCORE:    0.00 PKD
ROOT
HETATM    1  C   UNL     1      -6.934  17.853  67.526  1.00  0.00    -0.204 C  
HETATM    2  C   UNL     1      -7.199  16.329  67.561  1.00  0.00    -0.179 C  
HETATM    3  C   UNL     1      -7.494  15.915  66.103  1.00  0.00     0.977 C  
HETATM    4  C   UNL     1      -6.052  15.523  68.226  1.00  0.00    -0.121 C  
HETATM    5  C   UNL     1      -6.097  16.030  69.696  1.00  0.00    -0.172 C  
HETATM    6  C   UNL     1      -7.610  16.310  69.953  1.00  0.00     0.584 C  
HETATM    7  C   UNL     1      -8.269  15.872  68.622  1.00  0.00    -0.182 C  
HETATM    8  C   UNL     1      -6.072  12.946  67.871  1.00  0.00    -0.125 C  
HETATM    9  C   UNL     1      -8.041  14.366  68.646  1.00  0.00    -0.146 C  
HETATM   10  O   UNL     1      -8.802  13.540  69.119  1.00  0.00     0.286 OA 
HETATM   11  C   UNL     1      -6.623  14.116  68.225  1.00  0.00    -0.114 C  
ENDROOT
BRANCH   7  12
HETATM   12  C   UNL     1      -9.692  16.298  68.312  1.00  0.00    -0.222 C  
HETATM   13  S   UNL     1     -10.214  17.928  68.830  1.00  0.00    -0.300 S  
HETATM   14  O   UNL     1     -11.552  18.139  68.316  1.00  0.00     0.912 OA 
HETATM   15  O   UNL     1      -9.152  18.874  68.597  1.00  0.00    -0.340 OA 
HETATM   16  O   UNL     1     -10.348  17.700  70.421  1.00  0.00     0.755 OA 
ENDBRANCH   7  12
BRANCH   8  17
HETATM   17  C   UNL     1      -6.801  11.673  67.932  1.00  0.00    -0.074 A  
HETATM   18  C   UNL     1      -7.921  11.437  67.126  1.00  0.00    -0.156 A  
HETATM   19  C   UNL     1      -8.685  10.276  67.305  1.00  0.00    -0.125 A  
HETATM   20  C   UNL     1      -8.340   9.344  68.289  1.00  0.00    -0.119 A  
HETATM   21  C   UNL     1      -6.430  10.717  68.886  1.00  0.00    -0.049 A  
HETATM   22  C   UNL     1      -7.193   9.558  69.061  1.00  0.00    -0.071 A  
BRANCH  20  23
HETATM   23  C   UNL     1      -9.189   8.180  68.536  1.00  0.00    -0.136 C  
HETATM   24  C   UNL     1      -9.561   7.794  69.757  1.00  0.00    -0.167 C  
HETATM   25  C   UNL     1      -9.266   8.337  71.133  1.00  0.00    -0.200 C  
HETATM   26  C   UNL     1     -10.583   8.986  71.611  1.00  0.00    -0.434 C  
HETATM   27  C   UNL     1     -11.507   7.770  71.892  1.00  0.00    -0.320 C  
HETATM   28  C   UNL     1     -10.610   6.545  71.568  1.00  0.00    -0.265 C  
HETATM   29  C   UNL     1      -9.181   7.045  71.993  1.00  0.00    -0.148 C  
HETATM   30  C   UNL     1      -9.004   7.334  73.498  1.00  0.00    -0.215 C  
HETATM   31  C   UNL     1     -10.426   6.596  70.053  1.00  0.00    -0.212 C  
HETATM   32  O   UNL     1     -10.857   5.822  69.223  1.00  0.00    -0.311 OA 
HETATM   33  C   UNL     1      -8.027   6.091  71.597  1.00  0.00    -0.110 C  
BRANCH  28  34
HETATM   34  C   UNL     1     -11.017   5.208  72.154  1.00  0.00    -0.104 C  
HETATM   35  S   UNL     1      -9.823   3.889  72.002  1.00  0.00    -0.174 S  
HETATM   36  O   UNL     1      -9.609   3.576  70.606  1.00  0.00    -0.169 OA 
HETATM   37  O   UNL     1     -10.781   2.703  72.545  1.00  0.00    -0.078 OA 
HETATM   38  O   UNL     1      -8.743   4.004  72.947  1.00  0.00    -0.098 OA 
ENDBRANCH  28  34
ENDBRANCH  20  23
ENDBRANCH   8  17
TORSDOF 4
ENDMDL
MODEL      105
REMARK 921   NORMALIZED FREE ENERGY PREDICTED BY IDOCK:    0.81 KCAL/MOL
REMARK 922        TOTAL FREE ENERGY PREDICTED BY IDOCK:    0.51 KCAL/MOL
REMARK 923 INTER-LIGAND FREE ENERGY PREDICTED BY IDOCK:   -4.82 KCAL/MOL
REMARK 924 INTRA-LIGAND FREE ENERGY PREDICTED BY IDOCK:    5.33 KCAL/MOL
REMARK 927      BINDING AFFINITY PREDICTED BY RF-SCORE:    0.00 PKD
ROOT
HETATM    1  C   UNL     1     -11.118   5.847  69.119  1.00  0.00    -0.328 C  
HETATM    2  C   UNL     1     -10.620   7.311  69.071  1.00  0.00    -0.214 C  
HETATM    3  C   UNL     1      -9.887   7.468  67.721  1.00  0.00    -0.191 C  
HETATM    4  C   UNL     1     -11.750   8.350  69.299  1.00  0.00     1.076 C  
HETATM    5  C   UNL     1     -12.179   8.059  70.766  1.00  0.00    -0.030 C  
HETATM    6  C   UNL     1     -10.856   7.621  71.467  1.00  0.00    -0.256 C  
HETATM    7  C   UNL     1      -9.807   7.770  70.338  1.00  0.00    -0.183 C  
HETATM    8  C   UNL     1     -11.206  10.823  68.703  1.00  0.00    -0.333 C  
HETATM    9  C   UNL     1      -9.778   9.281  70.143  1.00  0.00    -0.218 C  
HETATM   10  O   UNL     1      -9.040  10.058  70.725  1.00  0.00     0.092 OA 
HETATM   11  C   UNL     1     -10.972   9.654  69.316  1.00  0.00    -0.194 C  
ENDROOT
BRANCH   7  12
HETATM   12  C   UNL     1      -8.444   7.119  70.487  1.00  0.00    -0.139 C  
HETATM   13  S   UNL     1      -7.003   8.065  70.011  1.00  0.00    -0.049 S  
HETATM   14  O   UNL     1      -5.835   7.281  70.358  1.00  0.00    -0.024 OA 
HETATM   15  O   UNL     1      -7.157   9.432  70.441  1.00  0.00    -0.075 OA 
HETATM   16  O   UNL     1      -7.142   8.022  68.405  1.00  0.00    -0.079 OA 
ENDBRANCH   7  12
BRANCH   8  17
HETATM   17  C   UNL     1     -10.317  11.983  68.838  1.00  0.00    -0.117 A  
HETATM   18  C   UNL     1     -10.795  13.217  69.296  1.00  0.00    -0.055 A  
HETATM   19  C   UNL     1      -9.963  14.344  69.279  1.00  0.00     0.008 A  
HETATM   20  C   UNL     1      -8.651  14.252  68.803  1.00  0.00    -0.101 A  
HETATM   21  C   UNL     1      -8.989  11.881  68.404  1.00  0.00    -0.163 A  
HETATM   22  C   UNL     1      -8.160  13.009  68.389  1.00  0.00    -0.131 A  
BRANCH  20  23
HETATM   23  C   UNL     1      -7.815  15.447  68.699  1.00  0.00    -0.142 C  
HETATM   24  C   UNL     1      -8.273  16.621  68.264  1.00  0.00    -0.200 C  
HETATM   25  C   UNL     1      -9.627  17.072  67.774  1.00  0.00    -0.244 C  
HETATM   26  C   UNL     1     -10.194  17.967  68.896  1.00  0.00    -0.320 C  
HETATM   27  C   UNL     1      -9.330  19.255  68.806  1.00  0.00    -0.437 C  
HETATM   28  C   UNL     1      -8.370  18.970  67.620  1.00  0.00    -0.314 C  
HETATM   29  C   UNL     1      -9.259  18.094  66.662  1.00  0.00    -0.295 C  
HETATM   30  C   UNL     1     -10.491  18.808  66.071  1.00  0.00    -0.483 C  
HETATM   31  C   UNL     1      -7.442  17.872  68.134  1.00  0.00    -0.250 C  
HETATM   32  O   UNL     1      -6.255  17.951  68.375  1.00  0.00    -0.177 OA 
HETATM   33  C   UNL     1      -8.495  17.483  65.463  1.00  0.00     0.923 C  
BRANCH  28  34
HETATM   34  C   UNL     1      -7.705  20.161  66.959  1.00  0.00    -0.315 C  
HETATM   35  S   UNL     1      -6.376  19.788  65.825  1.00  0.00    -0.224 S  
HETATM   36  O   UNL     1      -5.282  19.164  66.537  1.00  0.00    -0.153 OA 
HETATM   37  O   UNL     1      -5.894  21.315  65.591  1.00  0.00    -0.240 OA 
HETATM   38  O   UNL     1      -6.849  19.311  64.551  1.00  0.00    -0.239 OA 
ENDBRANCH  28  34
ENDBRANCH  20  23
ENDBRANCH   8  17
TORSDOF 4
ENDMDL
MODEL      106
REMARK 921   NORMALIZED FREE ENERGY PREDICTED BY IDOCK:    1.32 KCAL/MOL
REMARK 922        TOTAL FREE ENERGY PREDICTED BY IDOCK:    1.13 KCAL/MOL
REMARK 923 INTER-LIGAND FREE ENERGY PREDICTED BY IDOCK:   -2.23 KCAL/MOL
REMARK 924 INTRA-LIGAND FREE ENERGY PREDICTED BY IDOCK:    3.37 KCAL/MOL
REMARK 927      BINDING AFFINITY PREDICTED BY RF-SCORE:    0.00 PKD
ROOT
HETATM    1  C   UNL     1      -8.398  17.352  65.640  1.00  0.00     0.513 C  
HETATM    2  C   UNL     1      -8.102  16.081  66.470  1.00  0.00    -0.304 C  
HETATM    3  C   UNL     1      -9.017  14.977  65.901  1.00  0.00     0.127 C  
HETATM    4  C   UNL     1      -6.597  15.702  66.495  1.00  0.00     1.298 C  
HETATM    5  C   UNL     1      -5.963  16.903  67.253  1.00  0.00    -0.195 C  
HETATM    6  C   UNL     1      -7.062  17.328  68.275  1.00  0.00    -0.197 C  
HETATM    7  C   UNL     1      -8.178  16.282  68.031  1.00  0.00    -0.157 C  
HETATM    8  C   UNL     1      -6.002  13.322  67.359  1.00  0.00     0.034 C  
HETATM    9  C   UNL     1      -7.516  15.004  68.529  1.00  0.00    -0.119 C  
HETATM   10  O   UNL     1      -7.572  14.574  69.668  1.00  0.00    -0.052 OA 
HETATM   11  C   UNL     1      -6.591  14.522  67.451  1.00  0.00     0.028 C  
ENDROOT
BRANCH   7  12
HETATM   12  C   UNL     1      -9.574  16.532  68.570  1.00  0.00    -0.233 C  
HETATM   13  S   UNL     1     -10.663  15.127  68.768  1.00  0.00    -0.249 S  
HETATM   14  O   UNL     1     -11.874  15.603  69.404  1.00  0.00    -0.355 OA 
HETATM   15  O   UNL     1      -9.919  14.007  69.289  1.00  0.00    -0.004 OA 
HETATM   16  O   UNL     1     -11.027  14.819  67.227  1.00  0.00    -0.301 OA 
ENDBRANCH   7  12
BRANCH   8  17
HETATM   17  C   UNL     1      -6.124  12.294  68.401  1.00  0.00    -0.052 A  
HETATM   18  C   UNL     1      -7.241  11.451  68.464  1.00  0.00    -0.093 A  
HETATM   19  C   UNL     1      -7.404  10.578  69.548  1.00  0.00    -0.148 A  
HETATM   20  C   UNL     1      -6.458  10.541  70.578  1.00  0.00    -0.071 A  
HETATM   21  C   UNL     1      -5.155  12.223  69.410  1.00  0.00    -0.065 A  
HETATM   22  C   UNL     1      -5.320  11.350  70.491  1.00  0.00    -0.122 A  
BRANCH  20  23
HETATM   23  C   UNL     1      -6.676   9.698  71.752  1.00  0.00     0.461 C  
HETATM   24  C   UNL     1      -7.395   8.575  71.721  1.00  0.00    -0.118 C  
HETATM   25  C   UNL     1      -8.151   7.877  70.617  1.00  0.00    -0.102 C  
HETATM   26  C   UNL     1      -7.319   6.621  70.278  1.00  0.00    -0.085 C  
HETATM   27  C   UNL     1      -7.538   5.698  71.507  1.00  0.00    -0.105 C  
HETATM   28  C   UNL     1      -8.497   6.515  72.415  1.00  0.00    -0.118 C  
HETATM   29  C   UNL     1      -9.379   7.292  71.369  1.00  0.00    -0.153 C  
HETATM   30  C   UNL     1     -10.268   6.408  70.471  1.00  0.00    -0.230 C  
HETATM   31  C   UNL     1      -7.650   7.685  72.909  1.00  0.00    -0.098 C  
HETATM   32  O   UNL     1      -7.264   7.901  74.040  1.00  0.00    -0.123 OA 
HETATM   33  C   UNL     1     -10.313   8.359  71.989  1.00  0.00    -0.374 C  
BRANCH  28  34
HETATM   34  C   UNL     1      -9.279   5.755  73.467  1.00  0.00    -0.131 C  
HETATM   35  S   UNL     1     -10.028   4.224  72.934  1.00  0.00    -0.154 S  
HETATM   36  O   UNL     1     -11.027   4.491  71.923  1.00  0.00     0.098 OA 
HETATM   37  O   UNL     1     -10.876   3.949  74.285  1.00  0.00    -0.200 OA 
HETATM   38  O   UNL     1      -9.077   3.148  72.824  1.00  0.00    -0.086 OA 
ENDBRANCH  28  34
ENDBRANCH  20  23
ENDBRANCH   8  17
TORSDOF 4
ENDMDL
MODEL      107
REMARK 921   NORMALIZED FREE ENERGY PREDICTED BY IDOCK:    1.36 KCAL/MOL
REMARK 922        TOTAL FREE ENERGY PREDICTED BY IDOCK:    1.19 KCAL/MOL
REMARK 923 INTER-LIGAND FREE ENERGY PREDICTED BY IDOCK:   -0.72 KCAL/MOL
REMARK 924 INTRA-LIGAND FREE ENERGY PREDICTED BY IDOCK:    1.90 KCAL/MOL
REMARK 927      BINDING AFFINITY PREDICTED BY RF-SCORE:    0.00 PKD
ROOT
HETATM    1  C   UNL     1      -8.783  19.852  67.367  1.00  0.00    -0.401 C  
HETATM    2  C   UNL     1      -8.327  18.374  67.350  1.00  0.00    -0.256 C  
HETATM    3  C   UNL     1      -8.400  17.922  65.876  1.00  0.00     0.056 C  
HETATM    4  C   UNL     1      -6.940  18.152  68.010  1.00  0.00    -0.217 C  
HETATM    5  C   UNL     1      -7.213  18.532  69.494  1.00  0.00     0.077 C  
HETATM    6  C   UNL     1      -8.688  18.086  69.733  1.00  0.00     1.299 C  
HETATM    7  C   UNL     1      -9.075  17.444  68.378  1.00  0.00    -0.274 C  
HETATM    8  C   UNL     1      -5.788  15.861  67.576  1.00  0.00    -0.152 C  
HETATM    9  C   UNL     1      -8.188  16.205  68.360  1.00  0.00    -0.172 C  
HETATM   10  O   UNL     1      -8.492  15.108  68.794  1.00  0.00    -0.159 OA 
HETATM   11  C   UNL     1      -6.810  16.640  67.956  1.00  0.00    -0.152 C  
ENDROOT
BRANCH   7  12
HETATM   12  C   UNL     1     -10.535  17.188  68.056  1.00  0.00    -0.369 C  
HETATM   13  S   UNL     1     -11.111  15.495  68.047  1.00  0.00    -0.327 S  
HETATM   14  O   UNL     1     -12.544  15.525  67.837  1.00  0.00     0.769 OA 
HETATM   15  O   UNL     1     -10.519  14.776  69.146  1.00  0.00    -0.234 OA 
HETATM   16  O   UNL     1     -10.443  14.966  66.678  1.00  0.00    -0.281 OA 
ENDBRANCH   7  12
BRANCH   8  17
HETATM   17  C   UNL     1      -5.860  14.395  67.586  1.00  0.00    -0.014 A  
HETATM   18  C   UNL     1      -6.701  13.702  66.706  1.00  0.00     1.564 A  
HETATM   19  C   UNL     1      -6.861  12.315  66.831  1.00  0.00     0.056 A  
HETATM   20  C   UNL     1      -6.187  11.610  67.833  1.00  0.00    -0.050 A  
HETATM   21  C   UNL     1      -5.150  13.681  68.560  1.00  0.00    -0.090 A  
HETATM   22  C   UNL     1      -5.311  12.296  68.681  1.00  0.00    -0.053 A  
BRANCH  20  23
HETATM   23  C   UNL     1      -6.426  10.180  68.020  1.00  0.00    -0.058 C  
HETATM   24  C   UNL     1      -7.458   9.698  68.714  1.00  0.00    -0.075 C  
HETATM   25  C   UNL     1      -8.585  10.364  69.464  1.00  0.00    -0.109 C  
HETATM   26  C   UNL     1      -9.847  10.127  68.608  1.00  0.00    -0.170 C  
HETATM   27  C   UNL     1     -10.134   8.612  68.794  1.00  0.00    -0.210 C  
HETATM   28  C   UNL     1      -9.015   8.142  69.762  1.00  0.00    -0.144 C  
HETATM   29  C   UNL     1      -8.796   9.407  70.672  1.00  0.00    -0.275 C  
HETATM   30  C   UNL     1     -10.000   9.804  71.550  1.00  0.00     0.738 C  
HETATM   31  C   UNL     1      -7.733   8.233  68.938  1.00  0.00    -0.102 C  
HETATM   32  O   UNL     1      -7.032   7.322  68.545  1.00  0.00    -0.073 OA 
HETATM   33  C   UNL     1      -7.580   9.306  71.624  1.00  0.00     0.274 C  
BRANCH  28  34
HETATM   34  C   UNL     1      -9.242   6.848  70.516  1.00  0.00    -0.156 C  
HETATM   35  S   UNL     1     -10.244   5.623  69.687  1.00  0.00    -0.277 S  
HETATM   36  O   UNL     1     -11.587   6.128  69.504  1.00  0.00    -0.396 OA 
HETATM   37  O   UNL     1     -10.358   4.598  70.935  1.00  0.00    -0.177 OA 
HETATM   38  O   UNL     1      -9.527   4.925  68.651  1.00  0.00    -0.127 OA 
ENDBRANCH  28  34
ENDBRANCH  20  23
ENDBRANCH   8  17
TORSDOF 4
ENDMDL
MODEL      108
REMARK 921   NORMALIZED FREE ENERGY PREDICTED BY IDOCK:    1.37 KCAL/MOL
REMARK 922        TOTAL FREE ENERGY PREDICTED BY IDOCK:    1.20 KCAL/MOL
REMARK 923 INTER-LIGAND FREE ENERGY PREDICTED BY IDOCK:   -4.50 KCAL/MOL
REMARK 924 INTRA-LIGAND FREE ENERGY PREDICTED BY IDOCK:    5.70 KCAL/MOL
REMARK 927      BINDING AFFINITY PREDICTED BY RF-SCORE:    0.00 PKD
ROOT
HETATM    1  C   UNL     1      -9.066  18.278  66.753  1.00  0.00    -0.287 C  
HETATM    2  C   UNL     1      -9.169  16.786  67.147  1.00  0.00    -0.233 C  
HETATM    3  C   UNL     1      -8.175  16.035  66.235  1.00  0.00    -0.220 C  
HETATM    4  C   UNL     1      -8.947  16.535  68.662  1.00  0.00    -0.236 C  
HETATM    5  C   UNL     1     -10.164  17.263  69.302  1.00  0.00    -0.218 C  
HETATM    6  C   UNL     1     -11.307  17.078  68.257  1.00  0.00     0.113 C  
HETATM    7  C   UNL     1     -10.635  16.211  67.165  1.00  0.00    -0.294 C  
HETATM    8  C   UNL     1      -8.534  14.073  69.395  1.00  0.00     0.537 C  
HETATM    9  C   UNL     1     -10.429  14.893  67.902  1.00  0.00    -0.250 C  
HETATM   10  O   UNL     1     -11.222  13.968  67.935  1.00  0.00    -0.255 OA 
HETATM   11  C   UNL     1      -9.216  15.044  68.771  1.00  0.00    -0.200 C  
ENDROOT
BRANCH   7  12
HETATM   12  C   UNL     1     -11.283  16.085  65.799  1.00  0.00     0.088 C  
HETATM   13  S   UNL     1     -11.830  14.465  65.274  1.00  0.00    -0.373 S  
HETATM   14  O   UNL     1     -12.515  14.628  64.008  1.00  0.00    -0.796 OA 
HETATM   15  O   UNL     1     -12.437  13.775  66.384  1.00  0.00    -0.423 OA 
HETATM   16  O   UNL     1     -10.412  13.765  64.958  1.00  0.00    -0.356 OA 
ENDBRANCH   7  12
BRANCH   8  17
HETATM   17  C   UNL     1      -8.957  12.667  69.376  1.00  0.00     1.277 A  
HETATM   18  C   UNL     1      -8.055  11.641  69.071  1.00  0.00     0.078 A  
HETATM   19  C   UNL     1      -8.512  10.325  68.918  1.00  0.00    -0.138 A  
HETATM   20  C   UNL     1      -9.869  10.023  69.065  1.00  0.00    -0.203 A  
HETATM   21  C   UNL     1     -10.309  12.356  69.570  1.00  0.00     0.620 A  
HETATM   22  C   UNL     1     -10.762  11.041  69.417  1.00  0.00    -0.247 A  
BRANCH  20  23
HETATM   23  C   UNL     1     -10.357   8.668  68.815  1.00  0.00    -0.228 C  
HETATM   24  C   UNL     1     -10.217   7.669  69.687  1.00  0.00    -0.204 C  
HETATM   25  C   UNL     1      -9.577   7.588  71.052  1.00  0.00    -0.162 C  
HETATM   26  C   UNL     1     -10.749   7.471  72.050  1.00  0.00    -0.264 C  
HETATM   27  C   UNL     1     -11.286   6.033  71.815  1.00  0.00    -0.333 C  
HETATM   28  C   UNL     1     -10.344   5.464  70.719  1.00  0.00    -0.322 C  
HETATM   29  C   UNL     1      -8.972   6.156  71.054  1.00  0.00    -0.144 C  
HETATM   30  C   UNL     1      -8.352   5.767  72.412  1.00  0.00    -0.118 C  
HETATM   31  C   UNL     1     -10.696   6.258  69.463  1.00  0.00    -0.303 C  
HETATM   32  O   UNL     1     -11.234   5.855  68.452  1.00  0.00    -0.202 OA 
HETATM   33  C   UNL     1      -7.867   5.930  69.993  1.00  0.00    -0.100 C  
BRANCH  28  34
HETATM   34  C   UNL     1     -10.278   3.958  70.568  1.00  0.00     0.362 C  
HETATM   35  S   UNL     1      -9.177   3.344  69.303  1.00  0.00    -0.160 S  
HETATM   36  O   UNL     1      -9.634   3.776  68.000  1.00  0.00    -0.173 OA 
HETATM   37  O   UNL     1      -9.626   1.791  69.400  1.00  0.00    -0.084 OA 
HETATM   38  O   UNL     1      -7.793   3.392  69.699  1.00  0.00    -0.050 OA 
ENDBRANCH  28  34
ENDBRANCH  20  23
ENDBRANCH   8  17
TORSDOF 4
ENDMDL
MODEL      109
REMARK 921   NORMALIZED FREE ENERGY PREDICTED BY IDOCK:    1.56 KCAL/MOL
REMARK 922        TOTAL FREE ENERGY PREDICTED BY IDOCK:    1.43 KCAL/MOL
REMARK 923 INTER-LIGAND FREE ENERGY PREDICTED BY IDOCK:   -4.08 KCAL/MOL
REMARK 924 INTRA-LIGAND FREE ENERGY PREDICTED BY IDOCK:    5.51 KCAL/MOL
REMARK 927      BINDING AFFINITY PREDICTED BY RF-SCORE:    0.00 PKD
ROOT
HETATM    1  C   UNL     1      -6.098   2.739  64.690  1.00  0.00    -0.019 C  
HETATM    2  C   UNL     1      -6.737   4.134  64.892  1.00  0.00    -0.048 C  
HETATM    3  C   UNL     1      -5.601   5.055  65.387  1.00  0.00    -0.014 C  
HETATM    4  C   UNL     1      -7.471   4.660  63.631  1.00  0.00    -0.055 C  
HETATM    5  C   UNL     1      -8.635   3.640  63.473  1.00  0.00    -0.091 C  
HETATM    6  C   UNL     1      -8.997   3.250  64.939  1.00  0.00    -0.135 C  
HETATM    7  C   UNL     1      -8.041   4.137  65.774  1.00  0.00    -0.101 C  
HETATM    8  C   UNL     1      -8.108   7.182  63.612  1.00  0.00     0.002 C  
HETATM    9  C   UNL     1      -8.589   5.530  65.491  1.00  0.00    -0.150 C  
HETATM   10  O   UNL     1      -9.446   6.102  66.143  1.00  0.00    -0.147 OA 
HETATM   11  C   UNL     1      -8.081   5.952  64.145  1.00  0.00    -0.110 C  
ENDROOT
BRANCH   7  12
HETATM   12  C   UNL     1      -7.815   3.825  67.242  1.00  0.00    -0.079 C  
HETATM   13  S   UNL     1      -7.326   5.165  68.321  1.00  0.00    -0.072 S  
HETATM   14  O   UNL     1      -7.294   4.644  69.672  1.00  0.00    -0.050 OA 
HETATM   15  O   UNL     1      -8.066   6.354  67.982  1.00  0.00    -0.113 OA 
HETATM   16  O   UNL     1      -5.796   5.371  67.857  1.00  0.00    -0.016 OA 
ENDBRANCH   7  12
BRANCH   8  17
HETATM   17  C   UNL     1      -8.749   8.322  64.277  1.00  0.00     0.211 A  
HETATM   18  C   UNL     1      -9.023   8.303  65.651  1.00  0.00    -0.157 A  
HETATM   19  C   UNL     1      -9.763   9.340  66.235  1.00  0.00    -0.340 A  
HETATM   20  C   UNL     1     -10.238  10.399  65.457  1.00  0.00    -0.316 A  
HETATM   21  C   UNL     1      -9.186   9.408  63.507  1.00  0.00     0.079 A  
HETATM   22  C   UNL     1      -9.924  10.442  64.094  1.00  0.00    -0.337 A  
BRANCH  20  23
HETATM   23  C   UNL     1     -11.087  11.431  66.050  1.00  0.00    -0.235 C  
HETATM   24  C   UNL     1     -10.726  12.712  66.139  1.00  0.00    -0.293 C  
HETATM   25  C   UNL     1      -9.475  13.450  65.730  1.00  0.00     0.032 C  
HETATM   26  C   UNL     1      -9.877  14.292  64.500  1.00  0.00     0.749 C  
HETATM   27  C   UNL     1     -10.775  15.407  65.100  1.00  0.00    -0.460 C  
HETATM   28  C   UNL     1     -10.774  15.100  66.622  1.00  0.00    -0.310 C  
HETATM   29  C   UNL     1      -9.332  14.516  66.853  1.00  0.00    -0.258 C  
HETATM   30  C   UNL     1      -8.173  15.502  66.601  1.00  0.00    -0.244 C  
HETATM   31  C   UNL     1     -11.567  13.802  66.751  1.00  0.00    -0.370 C  
HETATM   32  O   UNL     1     -12.655  13.640  67.266  1.00  0.00    -0.106 OA 
HETATM   33  C   UNL     1      -9.100  13.926  68.265  1.00  0.00    -0.191 C  
BRANCH  28  34
HETATM   34  C   UNL     1     -11.163  16.224  67.561  1.00  0.00    -0.054 C  
HETATM   35  S   UNL     1     -10.453  17.824  67.205  1.00  0.00    -0.324 S  
HETATM   36  O   UNL     1      -9.014  17.768  67.351  1.00  0.00    -0.237 OA 
HETATM   37  O   UNL     1     -10.972  18.563  68.549  1.00  0.00     0.187 OA 
HETATM   38  O   UNL     1     -11.098  18.487  66.101  1.00  0.00     0.099 OA 
ENDBRANCH  28  34
ENDBRANCH  20  23
ENDBRANCH   8  17
TORSDOF 4
ENDMDL
MODEL      110
REMARK 921   NORMALIZED FREE ENERGY PREDICTED BY IDOCK:    2.07 KCAL/MOL
REMARK 922        TOTAL FREE ENERGY PREDICTED BY IDOCK:    2.07 KCAL/MOL
REMARK 923 INTER-LIGAND FREE ENERGY PREDICTED BY IDOCK:   -0.55 KCAL/MOL
REMARK 924 INTRA-LIGAND FREE ENERGY PREDICTED BY IDOCK:    2.62 KCAL/MOL
REMARK 927      BINDING AFFINITY PREDICTED BY RF-SCORE:    0.00 PKD
ROOT
HETATM    1  C   UNL     1      -8.593  18.227  65.469  1.00  0.00     1.002 C  
HETATM    2  C   UNL     1      -8.266  16.918  66.226  1.00  0.00    -0.344 C  
HETATM    3  C   UNL     1      -8.466  15.776  65.207  1.00  0.00     2.673 C  
HETATM    4  C   UNL     1      -6.865  16.930  66.894  1.00  0.00    -0.250 C  
HETATM    5  C   UNL     1      -7.014  18.052  67.961  1.00  0.00    -0.211 C  
HETATM    6  C   UNL     1      -8.504  17.952  68.409  1.00  0.00    -0.300 C  
HETATM    7  C   UNL     1      -9.026  16.743  67.594  1.00  0.00    -0.210 C  
HETATM    8  C   UNL     1      -5.940  14.642  67.716  1.00  0.00    -0.119 C  
HETATM    9  C   UNL     1      -8.250  15.592  68.221  1.00  0.00    -0.142 C  
HETATM   10  O   UNL     1      -8.619  14.920  69.169  1.00  0.00    -0.188 OA 
HETATM   11  C   UNL     1      -6.867  15.607  67.639  1.00  0.00    -0.201 C  
ENDROOT
BRANCH   7  12
HETATM   12  C   UNL     1     -10.520  16.512  67.465  1.00  0.00    -0.310 C  
HETATM   13  S   UNL     1     -11.097  14.829  67.277  1.00  0.00    -0.341 S  
HETATM   14  O   UNL     1     -12.545  14.862  67.297  1.00  0.00     0.316 OA 
HETATM   15  O   UNL     1     -10.344  13.959  68.144  1.00  0.00    -0.234 OA 
HETATM   16  O   UNL     1     -10.651  14.535  65.755  1.00  0.00    -0.291 OA 
ENDBRANCH   7  12
BRANCH   8  17
HETATM   17  C   UNL     1      -6.136  13.412  68.493  1.00  0.00    -0.085 A  
HETATM   18  C   UNL     1      -7.169  12.517  68.191  1.00  0.00    -0.106 A  
HETATM   19  C   UNL     1      -7.425  11.427  69.033  1.00  0.00    -0.093 A  
HETATM   20  C   UNL     1      -6.656  11.222  70.183  1.00  0.00    -0.002 A  
HETATM   21  C   UNL     1      -5.336  13.179  69.620  1.00  0.00    -0.086 A  
HETATM   22  C   UNL     1      -5.593  12.089  70.458  1.00  0.00    -0.165 A  
BRANCH  20  23
HETATM   23  C   UNL     1      -6.982  10.138  71.108  1.00  0.00     0.625 C  
HETATM   24  C   UNL     1      -7.363   8.925  70.706  1.00  0.00    -0.091 C  
HETATM   25  C   UNL     1      -7.580   8.324  69.339  1.00  0.00    -0.096 C  
HETATM   26  C   UNL     1      -6.404   7.346  69.127  1.00  0.00    -0.036 C  
HETATM   27  C   UNL     1      -6.727   6.174  70.093  1.00  0.00    -0.049 C  
HETATM   28  C   UNL     1      -8.074   6.594  70.742  1.00  0.00    -0.119 C  
HETATM   29  C   UNL     1      -8.787   7.373  69.577  1.00  0.00    -0.137 C  
HETATM   30  C   UNL     1      -9.140   6.528  68.337  1.00  0.00    -0.123 C  
HETATM   31  C   UNL     1      -7.717   7.786  71.627  1.00  0.00    -0.088 C  
HETATM   32  O   UNL     1      -7.732   7.846  72.839  1.00  0.00    -0.103 OA 
HETATM   33  C   UNL     1     -10.092   8.094  69.996  1.00  0.00    -0.196 C  
BRANCH  28  34
HETATM   34  C   UNL     1      -8.909   5.504  71.383  1.00  0.00    -0.136 C  
HETATM   35  S   UNL     1      -8.391   3.826  71.058  1.00  0.00    -0.068 S  
HETATM   36  O   UNL     1      -8.516   3.537  69.646  1.00  0.00    -0.058 OA 
HETATM   37  O   UNL     1      -9.668   3.099  71.739  1.00  0.00    -0.147 OA 
HETATM   38  O   UNL     1      -7.241   3.438  71.833  1.00  0.00    -0.043 OA 
ENDBRANCH  28  34
ENDBRANCH  20  23
ENDBRANCH   8  17
TORSDOF 4
ENDMDL
MODEL      111
REMARK 921   NORMALIZED FREE ENERGY PREDICTED BY IDOCK:    2.55 KCAL/MOL
REMARK 922        TOTAL FREE ENERGY PREDICTED BY IDOCK:    2.66 KCAL/MOL
REMARK 923 INTER-LIGAND FREE ENERGY PREDICTED BY IDOCK:    1.48 KCAL/MOL
REMARK 924 INTRA-LIGAND FREE ENERGY PREDICTED BY IDOCK:    1.17 KCAL/MOL
REMARK 927      BINDING AFFINITY PREDICTED BY RF-SCORE:    0.00 PKD
ROOT
HETATM    1  C   UNL     1      -9.178  18.051  69.662  1.00  0.00     0.812 C  
HETATM    2  C   UNL     1      -8.905  16.703  68.954  1.00  0.00    -0.238 C  
HETATM    3  C   UNL     1      -7.382  16.652  68.707  1.00  0.00    -0.220 C  
HETATM    4  C   UNL     1      -9.458  15.479  69.731  1.00  0.00    -0.178 C  
HETATM    5  C   UNL     1     -10.995  15.720  69.682  1.00  0.00    -0.306 C  
HETATM    6  C   UNL     1     -11.225  16.410  68.302  1.00  0.00    -0.300 C  
HETATM    7  C   UNL     1      -9.803  16.431  67.689  1.00  0.00    -0.243 C  
HETATM    8  C   UNL     1      -8.613  13.135  68.984  1.00  0.00     0.445 C  
HETATM    9  C   UNL     1      -9.548  14.947  67.455  1.00  0.00    -0.204 C  
HETATM   10  O   UNL     1      -9.814  14.333  66.437  1.00  0.00    -0.274 OA 
HETATM   11  C   UNL     1      -9.158  14.341  68.771  1.00  0.00    -0.103 C  
ENDROOT
BRANCH   7  12
HETATM   12  C   UNL     1      -9.510  17.325  66.499  1.00  0.00    -0.269 C  
HETATM   13  S   UNL     1     -10.875  18.206  65.752  1.00  0.00     0.294 S  
HETATM   14  O   UNL     1     -10.325  19.073  64.730  1.00  0.00     0.928 OA 
HETATM   15  O   UNL     1     -11.750  18.707  66.783  1.00  0.00     1.230 OA 
HETATM   16  O   UNL     1     -11.625  16.997  64.995  1.00  0.00     0.125 OA 
ENDBRANCH   7  12
BRANCH   8  17
HETATM   17  C   UNL     1      -8.391  12.162  67.907  1.00  0.00    -0.161 A  
HETATM   18  C   UNL     1      -9.279  12.055  66.830  1.00  0.00    -0.201 A  
HETATM   19  C   UNL     1      -9.126  11.025  65.892  1.00  0.00    -0.214 A  
HETATM   20  C   UNL     1      -8.092  10.094  66.023  1.00  0.00    -0.129 A  
HETATM   21  C   UNL     1      -7.328  11.257  68.011  1.00  0.00    -0.092 A  
HETATM   22  C   UNL     1      -7.178  10.230  67.073  1.00  0.00    -0.091 A  
BRANCH  20  23
HETATM   23  C   UNL     1      -7.989   8.967  65.097  1.00  0.00    -0.122 C  
HETATM   24  C   UNL     1      -8.383   7.731  65.406  1.00  0.00    -0.141 C  
HETATM   25  C   UNL     1      -8.979   7.132  66.656  1.00  0.00    -0.164 C  
HETATM   26  C   UNL     1     -10.458   6.852  66.313  1.00  0.00     0.326 C  
HETATM   27  C   UNL     1     -10.384   5.648  65.335  1.00  0.00     0.768 C  
HETATM   28  C   UNL     1      -8.864   5.347  65.238  1.00  0.00    -0.132 C  
HETATM   29  C   UNL     1      -8.351   5.710  66.680  1.00  0.00    -0.112 C  
HETATM   30  C   UNL     1      -8.903   4.827  67.818  1.00  0.00    -0.112 C  
HETATM   31  C   UNL     1      -8.285   6.542  64.485  1.00  0.00    -0.027 C  
HETATM   32  O   UNL     1      -7.805   6.560  63.369  1.00  0.00    -0.108 OA 
HETATM   33  C   UNL     1      -6.810   5.698  66.831  1.00  0.00    -0.063 C  
BRANCH  28  34
HETATM   34  C   UNL     1      -8.455   3.974  64.743  1.00  0.00    -0.107 C  
HETATM   35  S   UNL     1      -9.737   2.731  64.731  1.00  0.00     0.044 S  
HETATM   36  O   UNL     1     -10.178   2.466  66.083  1.00  0.00     1.119 OA 
HETATM   37  O   UNL     1      -8.781   1.478  64.360  1.00  0.00    -0.086 OA 
HETATM   38  O   UNL     1     -10.652   2.885  63.630  1.00  0.00    -0.206 OA 
ENDBRANCH  28  34
ENDBRANCH  20  23
ENDBRANCH   8  17
TORSDOF 4
ENDMDL
MODEL      112
REMARK 921   NORMALIZED FREE ENERGY PREDICTED BY IDOCK:    3.41 KCAL/MOL
REMARK 922        TOTAL FREE ENERGY PREDICTED BY IDOCK:    3.72 KCAL/MOL
REMARK 923 INTER-LIGAND FREE ENERGY PREDICTED BY IDOCK:    0.18 KCAL/MOL
REMARK 924 INTRA-LIGAND FREE ENERGY PREDICTED BY IDOCK:    3.54 KCAL/MOL
REMARK 927      BINDING AFFINITY PREDICTED BY RF-SCORE:    0.00 PKD
ROOT
HETATM    1  C   UNL     1      -7.529  19.233  68.179  1.00  0.00    -0.324 C  
HETATM    2  C   UNL     1      -7.303  17.718  67.963  1.00  0.00    -0.220 C  
HETATM    3  C   UNL     1      -6.907  17.553  66.480  1.00  0.00    -0.282 C  
HETATM    4  C   UNL     1      -6.285  17.102  68.960  1.00  0.00    -0.193 C  
HETATM    5  C   UNL     1      -7.013  17.268  70.324  1.00  0.00     1.365 C  
HETATM    6  C   UNL     1      -8.523  17.104  69.970  1.00  0.00     1.975 C  
HETATM    7  C   UNL     1      -8.486  16.801  68.452  1.00  0.00    -0.231 C  
HETATM    8  C   UNL     1      -5.378  14.731  68.393  1.00  0.00    -0.111 C  
HETATM    9  C   UNL     1      -7.829  15.427  68.428  1.00  0.00    -0.129 C  
HETATM   10  O   UNL     1      -8.414  14.359  68.474  1.00  0.00    -0.162 OA 
HETATM   11  C   UNL     1      -6.352  15.628  68.598  1.00  0.00    -0.103 C  
ENDROOT
BRANCH   7  12
HETATM   12  C   UNL     1      -9.757  16.915  67.631  1.00  0.00    -0.249 C  
HETATM   13  S   UNL     1      -9.605  16.975  65.850  1.00  0.00    -0.031 S  
HETATM   14  O   UNL     1     -10.945  16.960  65.299  1.00  0.00    -0.413 OA 
HETATM   15  O   UNL     1      -8.595  16.042  65.418  1.00  0.00     0.332 OA 
HETATM   16  O   UNL     1      -9.031  18.469  65.655  1.00  0.00    -0.265 OA 
ENDBRANCH   7  12
BRANCH   8  17
HETATM   17  C   UNL     1      -5.648  13.333  68.036  1.00  0.00    -0.113 A  
HETATM   18  C   UNL     1      -6.068  12.405  68.997  1.00  0.00    -0.077 A  
HETATM   19  C   UNL     1      -6.179  11.048  68.664  1.00  0.00    -0.043 A  
HETATM   20  C   UNL     1      -5.871  10.606  67.374  1.00  0.00    -0.045 A  
HETATM   21  C   UNL     1      -5.384  12.896  66.732  1.00  0.00     0.956 A  
HETATM   22  C   UNL     1      -5.497  11.541  66.402  1.00  0.00    -0.078 A  
BRANCH  20  23
HETATM   23  C   UNL     1      -5.899   9.180  67.054  1.00  0.00    -0.045 C  
HETATM   24  C   UNL     1      -6.663   8.301  67.704  1.00  0.00    -0.062 C  
HETATM   25  C   UNL     1      -7.627   8.443  68.856  1.00  0.00    -0.096 C  
HETATM   26  C   UNL     1      -9.033   8.272  68.240  1.00  0.00    -0.136 C  
HETATM   27  C   UNL     1      -9.098   6.759  67.896  1.00  0.00    -0.114 C  
HETATM   28  C   UNL     1      -7.726   6.214  68.376  1.00  0.00    -0.103 C  
HETATM   29  C   UNL     1      -7.422   7.111  69.632  1.00  0.00    -0.098 C  
HETATM   30  C   UNL     1      -8.399   6.947  70.813  1.00  0.00    -0.127 C  
HETATM   31  C   UNL     1      -6.713   6.824  67.411  1.00  0.00    -0.067 C  
HETATM   32  O   UNL     1      -6.041   6.254  66.576  1.00  0.00    -0.027 OA 
HETATM   33  C   UNL     1      -6.000   6.929  70.217  1.00  0.00    -0.024 C  
BRANCH  28  34
HETATM   34  C   UNL     1      -7.614   4.722  68.618  1.00  0.00    -0.069 C  
HETATM   35  S   UNL     1      -8.133   3.668  67.273  1.00  0.00    -0.091 S  
HETATM   36  O   UNL     1      -9.547   3.847  67.025  1.00  0.00    -0.198 OA 
HETATM   37  O   UNL     1      -8.034   2.269  68.081  1.00  0.00    -0.058 OA 
HETATM   38  O   UNL     1      -7.160   3.597  66.214  1.00  0.00    -0.061 OA 
ENDBRANCH  28  34
ENDBRANCH  20  23
ENDBRANCH   8  17
TORSDOF 4
ENDMDL
MODEL      113
REMARK 921   NORMALIZED FREE ENERGY PREDICTED BY IDOCK:    3.42 KCAL/MOL
REMARK 922        TOTAL FREE ENERGY PREDICTED BY IDOCK:    3.74 KCAL/MOL
REMARK 923 INTER-LIGAND FREE ENERGY PREDICTED BY IDOCK:   -1.93 KCAL/MOL
REMARK 924 INTRA-LIGAND FREE ENERGY PREDICTED BY IDOCK:    5.66 KCAL/MOL
REMARK 927      BINDING AFFINITY PREDICTED BY RF-SCORE:    0.00 PKD
ROOT
HETATM    1  C   UNL     1      -7.617  20.191  69.023  1.00  0.00     0.040 C  
HETATM    2  C   UNL     1      -7.227  18.714  68.777  1.00  0.00    -0.330 C  
HETATM    3  C   UNL     1      -5.690  18.696  68.644  1.00  0.00    -0.199 C  
HETATM    4  C   UNL     1      -7.778  17.748  69.859  1.00  0.00     1.306 C  
HETATM    5  C   UNL     1      -9.316  17.857  69.651  1.00  0.00     0.759 C  
HETATM    6  C   UNL     1      -9.475  18.081  68.116  1.00  0.00    -0.292 C  
HETATM    7  C   UNL     1      -8.015  18.013  67.608  1.00  0.00    -0.221 C  
HETATM    8  C   UNL     1      -6.767  15.351  69.912  1.00  0.00    -0.130 C  
HETATM    9  C   UNL     1      -7.671  16.549  67.853  1.00  0.00    -0.153 C  
HETATM   10  O   UNL     1      -7.831  15.639  67.058  1.00  0.00    -0.200 OA 
HETATM   11  C   UNL     1      -7.352  16.396  69.311  1.00  0.00    -0.211 C  
ENDROOT
BRANCH   7  12
HETATM   12  C   UNL     1      -7.677  18.524  66.220  1.00  0.00    -0.254 C  
HETATM   13  S   UNL     1      -5.993  18.343  65.643  1.00  0.00    -0.244 S  
HETATM   14  O   UNL     1      -5.956  18.789  64.265  1.00  0.00    -0.393 OA 
HETATM   15  O   UNL     1      -5.481  17.055  66.040  1.00  0.00    -0.293 OA 
HETATM   16  O   UNL     1      -5.258  19.474  66.527  1.00  0.00    -0.163 OA 
ENDBRANCH   7  12
BRANCH   8  17
HETATM   17  C   UNL     1      -6.419  14.116  69.199  1.00  0.00    -0.111 A  
HETATM   18  C   UNL     1      -7.156  13.685  68.089  1.00  0.00    -0.118 A  
HETATM   19  C   UNL     1      -6.896  12.434  67.514  1.00  0.00    -0.143 A  
HETATM   20  C   UNL     1      -5.904  11.603  68.042  1.00  0.00    -0.044 A  
HETATM   21  C   UNL     1      -5.394  13.303  69.698  1.00  0.00    -0.089 A  
HETATM   22  C   UNL     1      -5.136  12.054  69.121  1.00  0.00    -0.051 A  
BRANCH  20  23
HETATM   23  C   UNL     1      -5.696  10.261  67.500  1.00  0.00    -0.045 C  
HETATM   24  C   UNL     1      -6.488   9.717  66.575  1.00  0.00    -0.071 C  
HETATM   25  C   UNL     1      -7.723  10.218  65.866  1.00  0.00    -0.137 C  
HETATM   26  C   UNL     1      -7.275  10.514  64.418  1.00  0.00     0.101 C  
HETATM   27  C   UNL     1      -7.055   9.103  63.809  1.00  0.00    -0.093 C  
HETATM   28  C   UNL     1      -7.426   8.140  64.970  1.00  0.00    -0.087 C  
HETATM   29  C   UNL     1      -8.570   8.924  65.712  1.00  0.00    -0.181 C  
HETATM   30  C   UNL     1      -9.858   9.142  64.893  1.00  0.00     0.577 C  
HETATM   31  C   UNL     1      -6.315   8.336  65.999  1.00  0.00    -0.049 C  
HETATM   32  O   UNL     1      -5.457   7.543  66.331  1.00  0.00    -0.024 OA 
HETATM   33  C   UNL     1      -9.012   8.289  67.053  1.00  0.00    -0.159 C  
BRANCH  28  34
HETATM   34  C   UNL     1      -7.766   6.708  64.608  1.00  0.00    -0.112 C  
HETATM   35  S   UNL     1      -6.391   5.571  64.535  1.00  0.00    -0.030 S  
HETATM   36  O   UNL     1      -5.484   5.962  63.478  1.00  0.00    -0.017 OA 
HETATM   37  O   UNL     1      -7.215   4.319  63.923  1.00  0.00    -0.049 OA 
HETATM   38  O   UNL     1      -5.937   5.161  65.838  1.00  0.00    -0.021 OA 
ENDBRANCH  28  34
ENDBRANCH  20  23
ENDBRANCH   8  17
TORSDOF 4
ENDMDL
MODEL      114
REMARK 921   NORMALIZED FREE ENERGY PREDICTED BY IDOCK:    3.65 KCAL/MOL
REMARK 922        TOTAL FREE ENERGY PREDICTED BY IDOCK:    4.01 KCAL/MOL
REMARK 923 INTER-LIGAND FREE ENERGY PREDICTED BY IDOCK:    0.12 KCAL/MOL
REMARK 924 INTRA-LIGAND FREE ENERGY PREDICTED BY IDOCK:    3.89 KCAL/MOL
REMARK 927      BINDING AFFINITY PREDICTED BY RF-SCORE:    0.00 PKD
ROOT
HETATM    1  C   UNL     1      -7.525  19.234  68.182  1.00  0.00    -0.324 C  
HETATM    2  C   UNL     1      -7.293  17.713  68.023  1.00  0.00    -0.214 C  
HETATM    3  C   UNL     1      -6.907  17.494  66.545  1.00  0.00    -0.282 C  
HETATM    4  C   UNL     1      -6.266  17.141  69.035  1.00  0.00    -0.193 C  
HETATM    5  C   UNL     1      -6.985  17.355  70.398  1.00  0.00     1.720 C  
HETATM    6  C   UNL     1      -8.497  17.171  70.060  1.00  0.00     1.975 C  
HETATM    7  C   UNL     1      -8.469  16.810  68.555  1.00  0.00    -0.244 C  
HETATM    8  C   UNL     1      -5.350  14.755  68.553  1.00  0.00    -0.102 C  
HETATM    9  C   UNL     1      -7.804  15.439  68.579  1.00  0.00    -0.134 C  
HETATM   10  O   UNL     1      -8.384  14.371  68.670  1.00  0.00    -0.150 OA 
HETATM   11  C   UNL     1      -6.327  15.654  68.731  1.00  0.00    -0.104 C  
ENDROOT
BRANCH   7  12
HETATM   12  C   UNL     1      -9.746  16.886  67.739  1.00  0.00    -0.250 C  
HETATM   13  S   UNL     1      -9.607  16.875  65.956  1.00  0.00    -0.157 S  
HETATM   14  O   UNL     1     -10.951  16.832  65.416  1.00  0.00    -0.283 OA 
HETATM   15  O   UNL     1      -8.596  15.928  65.555  1.00  0.00     0.204 OA 
HETATM   16  O   UNL     1      -9.039  18.361  65.697  1.00  0.00    -0.272 OA 
ENDBRANCH   7  12
BRANCH   8  17
HETATM   17  C   UNL     1      -5.615  13.342  68.252  1.00  0.00    -0.098 A  
HETATM   18  C   UNL     1      -6.374  12.967  67.137  1.00  0.00     0.149 A  
HETATM   19  C   UNL     1      -6.735  11.625  66.951  1.00  0.00    -0.124 A  
HETATM   20  C   UNL     1      -6.345  10.650  67.874  1.00  0.00    -0.058 A  
HETATM   21  C   UNL     1      -5.186  12.358  69.151  1.00  0.00    -0.067 A  
HETATM   22  C   UNL     1      -5.546  11.020  68.962  1.00  0.00    -0.040 A  
BRANCH  20  23
HETATM   23  C   UNL     1      -6.799   9.268  67.728  1.00  0.00    -0.079 C  
HETATM   24  C   UNL     1      -7.125   8.728  66.553  1.00  0.00    -0.080 C  
HETATM   25  C   UNL     1      -7.155   9.280  65.149  1.00  0.00    -0.090 C  
HETATM   26  C   UNL     1      -5.965   8.618  64.421  1.00  0.00    -0.066 C  
HETATM   27  C   UNL     1      -6.422   7.145  64.241  1.00  0.00    -0.040 C  
HETATM   28  C   UNL     1      -7.843   7.122  64.866  1.00  0.00    -0.126 C  
HETATM   29  C   UNL     1      -8.387   8.560  64.531  1.00  0.00    -0.138 C  
HETATM   30  C   UNL     1      -8.570   8.863  63.030  1.00  0.00    -0.136 C  
HETATM   31  C   UNL     1      -7.607   7.313  66.362  1.00  0.00    -0.092 C  
HETATM   32  O   UNL     1      -7.787   6.509  67.254  1.00  0.00    -0.102 OA 
HETATM   33  C   UNL     1      -9.734   8.907  65.211  1.00  0.00     0.259 C  
BRANCH  28  34
HETATM   34  C   UNL     1      -8.762   5.985  64.468  1.00  0.00     0.214 C  
HETATM   35  S   UNL     1      -8.099   4.338  64.657  1.00  0.00    -0.093 S  
HETATM   36  O   UNL     1      -6.966   4.159  63.775  1.00  0.00    -0.043 OA 
HETATM   37  O   UNL     1      -9.315   3.560  63.924  1.00  0.00    -0.118 OA 
HETATM   38  O   UNL     1      -8.097   3.892  66.026  1.00  0.00    -0.099 OA 
ENDBRANCH  28  34
ENDBRANCH  20  23
ENDBRANCH   8  17
TORSDOF 4
ENDMDL
MODEL      115
REMARK 921   NORMALIZED FREE ENERGY PREDICTED BY IDOCK:    3.80 KCAL/MOL
REMARK 922        TOTAL FREE ENERGY PREDICTED BY IDOCK:    4.20 KCAL/MOL
REMARK 923 INTER-LIGAND FREE ENERGY PREDICTED BY IDOCK:   -0.40 KCAL/MOL
REMARK 924 INTRA-LIGAND FREE ENERGY PREDICTED BY IDOCK:    4.60 KCAL/MOL
REMARK 927      BINDING AFFINITY PREDICTED BY RF-SCORE:    0.00 PKD
ROOT
HETATM    1  C   UNL     1     -10.192   5.621  66.578  1.00  0.00    -0.259 C  
HETATM    2  C   UNL     1      -9.985   7.144  66.401  1.00  0.00    -0.081 C  
HETATM    3  C   UNL     1      -9.761   7.371  64.891  1.00  0.00     2.275 C  
HETATM    4  C   UNL     1     -11.136   7.992  67.004  1.00  0.00     0.408 C  
HETATM    5  C   UNL     1     -11.015   7.686  68.524  1.00  0.00     0.105 C  
HETATM    6  C   UNL     1      -9.484   7.493  68.751  1.00  0.00    -0.148 C  
HETATM    7  C   UNL     1      -8.893   7.772  67.347  1.00  0.00    -0.128 C  
HETATM    8  C   UNL     1     -11.228  10.499  66.314  1.00  0.00     0.328 C  
HETATM    9  C   UNL     1      -9.178   9.260  67.183  1.00  0.00    -0.130 C  
HETATM   10  O   UNL     1      -8.432  10.166  67.511  1.00  0.00    -0.118 OA 
HETATM   11  C   UNL     1     -10.620   9.405  66.794  1.00  0.00    -0.210 C  
ENDROOT
BRANCH   7  12
HETATM   12  C   UNL     1      -7.468   7.356  67.034  1.00  0.00    -0.098 C  
HETATM   13  S   UNL     1      -6.696   6.139  68.093  1.00  0.00    -0.067 S  
HETATM   14  O   UNL     1      -5.402   5.826  67.521  1.00  0.00    -0.004 OA 
HETATM   15  O   UNL     1      -7.650   5.111  68.425  1.00  0.00    -0.077 OA 
HETATM   16  O   UNL     1      -6.428   7.026  69.412  1.00  0.00    -0.041 OA 
ENDBRANCH   7  12
BRANCH   8  17
HETATM   17  C   UNL     1     -10.547  11.792  66.177  1.00  0.00    -0.301 A  
HETATM   18  C   UNL     1      -9.466  12.135  66.999  1.00  0.00    -0.201 A  
HETATM   19  C   UNL     1      -8.926  13.428  66.948  1.00  0.00    -0.216 A  
HETATM   20  C   UNL     1      -9.459  14.386  66.081  1.00  0.00    -0.271 A  
HETATM   21  C   UNL     1     -11.050  12.739  65.276  1.00  0.00    -0.320 A  
HETATM   22  C   UNL     1     -10.508  14.028  65.227  1.00  0.00    -0.398 A  
BRANCH  20  23
HETATM   23  C   UNL     1      -8.955  15.759  66.095  1.00  0.00    -0.372 C  
HETATM   24  C   UNL     1      -7.946  16.157  66.870  1.00  0.00    -0.279 C  
HETATM   25  C   UNL     1      -7.090  15.437  67.882  1.00  0.00    -0.156 C  
HETATM   26  C   UNL     1      -5.705  15.285  67.218  1.00  0.00     0.312 C  
HETATM   27  C   UNL     1      -5.136  16.730  67.226  1.00  0.00    -0.163 C  
HETATM   28  C   UNL     1      -6.251  17.558  67.921  1.00  0.00    -0.163 C  
HETATM   29  C   UNL     1      -6.844  16.534  68.956  1.00  0.00    -0.203 C  
HETATM   30  C   UNL     1      -5.874  16.082  70.067  1.00  0.00    -0.173 C  
HETATM   31  C   UNL     1      -7.404  17.562  66.921  1.00  0.00    -0.205 C  
HETATM   32  O   UNL     1      -7.843  18.504  66.291  1.00  0.00    -0.265 OA 
HETATM   33  C   UNL     1      -8.127  17.021  69.673  1.00  0.00     0.736 C  
BRANCH  28  34
HETATM   34  C   UNL     1      -5.860  18.901  68.506  1.00  0.00    -0.205 C  
HETATM   35  S   UNL     1      -6.889  19.506  69.835  1.00  0.00    -0.013 S  
HETATM   36  O   UNL     1      -8.230  19.746  69.348  1.00  0.00    -0.106 OA 
HETATM   37  O   UNL     1      -6.221  20.977  69.935  1.00  0.00    -0.108 OA 
HETATM   38  O   UNL     1      -6.621  18.851  71.089  1.00  0.00     0.914 OA 
ENDBRANCH  28  34
ENDBRANCH  20  23
ENDBRANCH   8  17
TORSDOF 4
ENDMDL
MODEL      116
REMARK 921   NORMALIZED FREE ENERGY PREDICTED BY IDOCK:    3.88 KCAL/MOL
REMARK 922        TOTAL FREE ENERGY PREDICTED BY IDOCK:    4.30 KCAL/MOL
REMARK 923 INTER-LIGAND FREE ENERGY PREDICTED BY IDOCK:    1.24 KCAL/MOL
REMARK 924 INTRA-LIGAND FREE ENERGY PREDICTED BY IDOCK:    3.05 KCAL/MOL
REMARK 927      BINDING AFFINITY PREDICTED BY RF-SCORE:    0.00 PKD
ROOT
HETATM    1  C   UNL     1      -8.439   1.764  65.887  1.00  0.00    -0.105 C  
HETATM    2  C   UNL     1      -8.455   3.218  66.415  1.00  0.00    -0.108 C  
HETATM    3  C   UNL     1      -9.512   3.251  67.539  1.00  0.00    -0.209 C  
HETATM    4  C   UNL     1      -7.056   3.728  66.850  1.00  0.00    -0.063 C  
HETATM    5  C   UNL     1      -6.272   3.737  65.506  1.00  0.00    -0.031 C  
HETATM    6  C   UNL     1      -7.352   4.100  64.441  1.00  0.00    -0.070 C  
HETATM    7  C   UNL     1      -8.620   4.320  65.302  1.00  0.00    -0.121 C  
HETATM    8  C   UNL     1      -6.991   5.912  68.261  1.00  0.00    -0.072 C  
HETATM    9  C   UNL     1      -8.254   5.581  66.073  1.00  0.00    -0.114 C  
HETATM   10  O   UNL     1      -8.482   6.724  65.716  1.00  0.00    -0.141 OA 
HETATM   11  C   UNL     1      -7.350   5.177  67.200  1.00  0.00    -0.082 C  
ENDROOT
BRANCH   7  12
HETATM   12  C   UNL     1      -9.984   4.351  64.637  1.00  0.00    -0.060 C  
HETATM   13  S   UNL     1     -10.057   4.194  62.857  1.00  0.00    -0.046 S  
HETATM   14  O   UNL     1     -11.455   4.130  62.484  1.00  0.00     0.238 OA 
HETATM   15  O   UNL     1      -9.107   3.203  62.419  1.00  0.00    -0.087 OA 
HETATM   16  O   UNL     1      -9.515   5.646  62.413  1.00  0.00     0.310 OA 
ENDBRANCH   7  12
BRANCH   8  17
HETATM   17  C   UNL     1      -7.389   7.316  68.427  1.00  0.00    -0.103 A  
HETATM   18  C   UNL     1      -6.453   8.303  68.759  1.00  0.00    -0.053 A  
HETATM   19  C   UNL     1      -6.878   9.606  69.053  1.00  0.00    -0.050 A  
HETATM   20  C   UNL     1      -8.237   9.933  69.021  1.00  0.00    -0.124 A  
HETATM   21  C   UNL     1      -8.745   7.656  68.351  1.00  0.00    -0.127 A  
HETATM   22  C   UNL     1      -9.167   8.958  68.644  1.00  0.00    -0.137 A  
BRANCH  20  23
HETATM   23  C   UNL     1      -8.686  11.267  69.417  1.00  0.00     0.405 C  
HETATM   24  C   UNL     1      -9.857  11.783  69.042  1.00  0.00     0.079 C  
HETATM   25  C   UNL     1     -10.976  11.255  68.179  1.00  0.00    -0.284 C  
HETATM   26  C   UNL     1     -12.132  10.937  69.152  1.00  0.00    -0.292 C  
HETATM   27  C   UNL     1     -12.640  12.339  69.585  1.00  0.00     0.324 C  
HETATM   28  C   UNL     1     -11.733  13.319  68.791  1.00  0.00    -0.366 C  
HETATM   29  C   UNL     1     -11.474  12.536  67.452  1.00  0.00    -0.404 C  
HETATM   30  C   UNL     1     -12.721  12.288  66.581  1.00  0.00     1.828 C  
HETATM   31  C   UNL     1     -10.351  13.156  69.420  1.00  0.00     0.446 C  
HETATM   32  O   UNL     1      -9.731  13.965  70.080  1.00  0.00     1.183 OA 
HETATM   33  C   UNL     1     -10.421  13.191  66.524  1.00  0.00    -0.283 C  
BRANCH  28  34
HETATM   34  C   UNL     1     -12.230  14.740  68.613  1.00  0.00    -0.077 C  
HETATM   35  S   UNL     1     -10.972  16.006  68.532  1.00  0.00    -0.343 S  
HETATM   36  O   UNL     1     -10.258  16.071  69.789  1.00  0.00    -0.267 OA 
HETATM   37  O   UNL     1     -11.979  17.273  68.567  1.00  0.00     0.934 OA 
HETATM   38  O   UNL     1     -10.307  16.049  67.256  1.00  0.00    -0.282 OA 
ENDBRANCH  28  34
ENDBRANCH  20  23
ENDBRANCH   8  17
TORSDOF 4
ENDMDL
MODEL      117
REMARK 921   NORMALIZED FREE ENERGY PREDICTED BY IDOCK:    4.53 KCAL/MOL
REMARK 922        TOTAL FREE ENERGY PREDICTED BY IDOCK:    5.10 KCAL/MOL
REMARK 923 INTER-LIGAND FREE ENERGY PREDICTED BY IDOCK:    2.31 KCAL/MOL
REMARK 924 INTRA-LIGAND FREE ENERGY PREDICTED BY IDOCK:    2.79 KCAL/MOL
REMARK 927      BINDING AFFINITY PREDICTED BY RF-SCORE:    0.00 PKD
ROOT
HETATM    1  C   UNL     1     -10.160  16.149  65.856  1.00  0.00    -0.379 C  
HETATM    2  C   UNL     1     -10.214  14.685  66.353  1.00  0.00    -0.296 C  
HETATM    3  C   UNL     1     -10.677  14.751  67.824  1.00  0.00    -0.268 C  
HETATM    4  C   UNL     1     -11.086  13.766  65.458  1.00  0.00    -0.300 C  
HETATM    5  C   UNL     1     -10.301  13.766  64.115  1.00  0.00     0.307 C  
HETATM    6  C   UNL     1      -8.807  13.871  64.550  1.00  0.00     4.487 C  
HETATM    7  C   UNL     1      -8.900  13.856  66.096  1.00  0.00     0.360 C  
HETATM    8  C   UNL     1     -11.732  11.445  66.440  1.00  0.00     0.268 C  
HETATM    9  C   UNL     1      -9.386  12.437  66.361  1.00  0.00    -0.219 C  
HETATM   10  O   UNL     1      -8.674  11.465  66.545  1.00  0.00    -0.172 OA 
HETATM   11  C   UNL     1     -10.863  12.408  66.101  1.00  0.00    -0.308 C  
ENDROOT
BRANCH   7  12
HETATM   12  C   UNL     1      -7.705  14.287  66.926  1.00  0.00     0.334 C  
HETATM   13  S   UNL     1      -6.903  13.058  67.948  1.00  0.00    -0.148 S  
HETATM   14  O   UNL     1      -5.734  13.679  68.536  1.00  0.00    -0.079 OA 
HETATM   15  O   UNL     1      -6.821  11.811  67.231  1.00  0.00    -0.110 OA 
HETATM   16  O   UNL     1      -7.995  12.896  69.123  1.00  0.00     0.220 OA 
ENDBRANCH   7  12
BRANCH   8  17
HETATM   17  C   UNL     1     -11.317  10.186  67.071  1.00  0.00     0.379 A  
HETATM   18  C   UNL     1     -10.806   9.126  66.312  1.00  0.00     0.624 A  
HETATM   19  C   UNL     1     -10.552   7.887  66.915  1.00  0.00    -0.333 A  
HETATM   20  C   UNL     1     -10.809   7.694  68.276  1.00  0.00    -0.023 A  
HETATM   21  C   UNL     1     -11.529  10.006  68.444  1.00  0.00    -0.011 A  
HETATM   22  C   UNL     1     -11.275   8.767  69.043  1.00  0.00     0.307 A  
BRANCH  20  23
HETATM   23  C   UNL     1     -10.631   6.376  68.883  1.00  0.00    -0.298 C  
HETATM   24  C   UNL     1     -10.395   6.197  70.183  1.00  0.00    -0.269 C  
HETATM   25  C   UNL     1     -10.232   7.161  71.333  1.00  0.00    -0.203 C  
HETATM   26  C   UNL     1     -11.515   7.013  72.179  1.00  0.00    -0.312 C  
HETATM   27  C   UNL     1     -11.352   5.621  72.848  1.00  0.00    -0.325 C  
HETATM   28  C   UNL     1      -9.974   5.125  72.331  1.00  0.00    -0.225 C  
HETATM   29  C   UNL     1      -9.154   6.461  72.208  1.00  0.00    -0.139 C  
HETATM   30  C   UNL     1      -8.887   7.197  73.536  1.00  0.00    -0.185 C  
HETATM   31  C   UNL     1     -10.197   4.858  70.845  1.00  0.00    -0.202 C  
HETATM   32  O   UNL     1     -10.194   3.788  70.270  1.00  0.00     0.134 OA 
HETATM   33  C   UNL     1      -7.777   6.303  71.516  1.00  0.00    -0.100 C  
BRANCH  28  34
HETATM   34  C   UNL     1      -9.288   4.027  73.119  1.00  0.00    -0.112 C  
HETATM   35  S   UNL     1     -10.284   2.593  73.496  1.00  0.00    -0.128 S  
HETATM   36  O   UNL     1     -11.382   2.969  74.359  1.00  0.00     0.254 OA 
HETATM   37  O   UNL     1      -9.217   1.876  74.480  1.00  0.00    -0.067 OA 
HETATM   38  O   UNL     1     -10.448   1.716  72.365  1.00  0.00    -0.155 OA 
ENDBRANCH  28  34
ENDBRANCH  20  23
ENDBRANCH   8  17
TORSDOF 4
ENDMDL
MODEL      118
REMARK 921   NORMALIZED FREE ENERGY PREDICTED BY IDOCK:    4.85 KCAL/MOL
REMARK 922        TOTAL FREE ENERGY PREDICTED BY IDOCK:    5.50 KCAL/MOL
REMARK 923 INTER-LIGAND FREE ENERGY PREDICTED BY IDOCK:   -1.87 KCAL/MOL
REMARK 924 INTRA-LIGAND FREE ENERGY PREDICTED BY IDOCK:    7.37 KCAL/MOL
REMARK 927      BINDING AFFINITY PREDICTED BY RF-SCORE:    0.00 PKD
ROOT
HETATM    1  C   UNL     1      -6.063   4.434  69.948  1.00  0.00    -0.019 C  
HETATM    2  C   UNL     1      -6.258   5.936  69.634  1.00  0.00    -0.030 C  
HETATM    3  C   UNL     1      -5.698   6.702  70.851  1.00  0.00    -0.027 C  
HETATM    4  C   UNL     1      -5.635   6.365  68.279  1.00  0.00    -0.008 C  
HETATM    5  C   UNL     1      -6.489   5.566  67.252  1.00  0.00    -0.048 C  
HETATM    6  C   UNL     1      -7.905   5.507  67.903  1.00  0.00    -0.096 C  
HETATM    7  C   UNL     1      -7.719   6.333  69.200  1.00  0.00    -0.100 C  
HETATM    8  C   UNL     1      -5.381   8.919  67.860  1.00  0.00    -0.035 C  
HETATM    9  C   UNL     1      -7.496   7.733  68.644  1.00  0.00    -0.100 C  
HETATM   10  O   UNL     1      -8.367   8.557  68.425  1.00  0.00    -0.121 OA 
HETATM   11  C   UNL     1      -6.071   7.816  68.183  1.00  0.00    -0.041 C  
ENDROOT
BRANCH   7  12
HETATM   12  C   UNL     1      -8.755   6.241  70.305  1.00  0.00    -0.142 C  
HETATM   13  S   UNL     1      -8.238   5.598  71.892  1.00  0.00    -0.120 S  
HETATM   14  O   UNL     1      -9.360   5.726  72.798  1.00  0.00    -0.145 OA 
HETATM   15  O   UNL     1      -6.932   6.112  72.221  1.00  0.00    -0.072 OA 
HETATM   16  O   UNL     1      -8.090   4.032  71.539  1.00  0.00    -0.074 OA 
ENDBRANCH   7  12
BRANCH   8  17
HETATM   17  C   UNL     1      -5.987  10.256  67.834  1.00  0.00    -0.041 A  
HETATM   18  C   UNL     1      -7.315  10.445  67.430  1.00  0.00    -0.093 A  
HETATM   19  C   UNL     1      -7.826  11.741  67.274  1.00  0.00    -0.161 A  
HETATM   20  C   UNL     1      -7.018  12.856  67.518  1.00  0.00    -0.151 A  
HETATM   21  C   UNL     1      -5.194  11.374  68.122  1.00  0.00    -0.043 A  
HETATM   22  C   UNL     1      -5.707  12.666  67.967  1.00  0.00    -0.091 A  
BRANCH  20  23
HETATM   23  C   UNL     1      -7.524  14.205  67.267  1.00  0.00    -0.068 C  
HETATM   24  C   UNL     1      -8.643  14.678  67.816  1.00  0.00    -0.175 C  
HETATM   25  C   UNL     1      -9.658  14.069  68.752  1.00  0.00    -0.098 C  
HETATM   26  C   UNL     1      -9.433  14.762  70.112  1.00  0.00     0.662 C  
HETATM   27  C   UNL     1      -9.971  16.201  69.881  1.00  0.00    -0.001 C  
HETATM   28  C   UNL     1     -10.474  16.173  68.412  1.00  0.00    -0.274 C  
HETATM   29  C   UNL     1     -10.992  14.696  68.256  1.00  0.00    -0.261 C  
HETATM   30  C   UNL     1     -12.198  14.322  69.141  1.00  0.00    -0.272 C  
HETATM   31  C   UNL     1      -9.202  16.056  67.575  1.00  0.00    -0.211 C  
HETATM   32  O   UNL     1      -8.722  16.885  66.829  1.00  0.00    -0.204 OA 
HETATM   33  C   UNL     1     -11.379  14.305  66.809  1.00  0.00    -0.357 C  
BRANCH  28  34
HETATM   34  C   UNL     1     -11.463  17.242  67.993  1.00  0.00     0.494 C  
HETATM   35  S   UNL     1     -10.764  18.824  67.546  1.00  0.00    -0.340 S  
HETATM   36  O   UNL     1     -10.117  19.419  68.695  1.00  0.00    -0.410 OA 
HETATM   37  O   UNL     1     -12.169  19.618  67.411  1.00  0.00     1.784 OA 
HETATM   38  O   UNL     1     -10.171  18.820  66.234  1.00  0.00    -0.382 OA 
ENDBRANCH  28  34
ENDBRANCH  20  23
ENDBRANCH   8  17
TORSDOF 4
ENDMDL
MODEL      119
REMARK 921   NORMALIZED FREE ENERGY PREDICTED BY IDOCK:    6.09 KCAL/MOL
REMARK 922        TOTAL FREE ENERGY PREDICTED BY IDOCK:    7.03 KCAL/MOL
REMARK 923 INTER-LIGAND FREE ENERGY PREDICTED BY IDOCK:    2.80 KCAL/MOL
REMARK 924 INTRA-LIGAND FREE ENERGY PREDICTED BY IDOCK:    4.22 KCAL/MOL
REMARK 927      BINDING AFFINITY PREDICTED BY RF-SCORE:    0.00 PKD
ROOT
HETATM    1  C   UNL     1      -8.709   5.169  67.310  1.00  0.00    -0.103 C  
HETATM    2  C   UNL     1      -8.384   6.587  67.835  1.00  0.00    -0.115 C  
HETATM    3  C   UNL     1      -9.116   6.719  69.187  1.00  0.00    -0.138 C  
HETATM    4  C   UNL     1      -6.862   6.879  67.910  1.00  0.00    -0.081 C  
HETATM    5  C   UNL     1      -6.439   6.836  66.414  1.00  0.00    -0.047 C  
HETATM    6  C   UNL     1      -7.683   7.390  65.653  1.00  0.00    -0.104 C  
HETATM    7  C   UNL     1      -8.655   7.747  66.804  1.00  0.00    -0.133 C  
HETATM    8  C   UNL     1      -6.135   8.970  69.275  1.00  0.00    -0.041 C  
HETATM    9  C   UNL     1      -7.931   8.912  67.469  1.00  0.00    -0.101 C  
HETATM   10  O   UNL     1      -8.072  10.089  67.187  1.00  0.00    -0.116 OA 
HETATM   11  C   UNL     1      -6.847   8.338  68.332  1.00  0.00    -0.065 C  
ENDROOT
BRANCH   7  12
HETATM   12  C   UNL     1     -10.121   7.996  66.501  1.00  0.00    -0.200 C  
HETATM   13  S   UNL     1     -11.004   9.168  67.524  1.00  0.00     0.244 S  
HETATM   14  O   UNL     1     -12.332   9.318  66.964  1.00  0.00     5.149 OA 
HETATM   15  O   UNL     1     -10.161  10.304  67.798  1.00  0.00    -0.169 OA 
HETATM   16  O   UNL     1     -11.157   8.313  68.883  1.00  0.00     0.076 OA 
ENDBRANCH   7  12
BRANCH   8  17
HETATM   17  C   UNL     1      -6.272  10.407  69.544  1.00  0.00    -0.054 A  
HETATM   18  C   UNL     1      -7.507  11.055  69.424  1.00  0.00    -0.074 A  
HETATM   19  C   UNL     1      -7.585  12.450  69.544  1.00  0.00     0.676 A  
HETATM   20  C   UNL     1      -6.434  13.207  69.781  1.00  0.00    -0.009 A  
HETATM   21  C   UNL     1      -5.127  11.163  69.828  1.00  0.00    -0.042 A  
HETATM   22  C   UNL     1      -5.208  12.555  69.948  1.00  0.00    -0.084 A  
BRANCH  20  23
HETATM   23  C   UNL     1      -6.503  14.667  69.814  1.00  0.00    -0.159 C  
HETATM   24  C   UNL     1      -7.406  15.370  69.130  1.00  0.00    -0.175 C  
HETATM   25  C   UNL     1      -8.518  14.967  68.192  1.00  0.00    -0.151 C  
HETATM   26  C   UNL     1      -9.826  15.217  68.973  1.00  0.00    -0.238 C  
HETATM   27  C   UNL     1      -9.934  16.765  69.017  1.00  0.00    -0.272 C  
HETATM   28  C   UNL     1      -8.682  17.243  68.232  1.00  0.00    -0.251 C  
HETATM   29  C   UNL     1      -8.509  16.118  67.146  1.00  0.00    -0.218 C  
HETATM   30  C   UNL     1      -9.656  16.008  66.122  1.00  0.00    -0.366 C  
HETATM   31  C   UNL     1      -7.504  16.874  69.130  1.00  0.00    -0.180 C  
HETATM   32  O   UNL     1      -6.754  17.624  69.722  1.00  0.00    -0.109 OA 
HETATM   33  C   UNL     1      -7.202  16.220  66.324  1.00  0.00     0.338 C  
BRANCH  28  34
HETATM   34  C   UNL     1      -8.699  18.657  67.686  1.00  0.00    -0.272 C  
HETATM   35  S   UNL     1      -9.129  19.942  68.850  1.00  0.00     0.086 S  
HETATM   36  O   UNL     1     -10.490  19.758  69.305  1.00  0.00    -0.165 OA 
HETATM   37  O   UNL     1      -9.217  21.148  67.774  1.00  0.00    -0.014 OA 
HETATM   38  O   UNL     1      -8.048  20.269  69.742  1.00  0.00     0.481 OA 
ENDBRANCH  28  34
ENDBRANCH  20  23
ENDBRANCH   8  17
TORSDOF 4
ENDMDL
MODEL      120
REMARK 921   NORMALIZED FREE ENERGY PREDICTED BY IDOCK:    7.71 KCAL/MOL
REMARK 922        TOTAL FREE ENERGY PREDICTED BY IDOCK:    9.03 KCAL/MOL
REMARK 923 INTER-LIGAND FREE ENERGY PREDICTED BY IDOCK:    6.77 KCAL/MOL
REMARK 924 INTRA-LIGAND FREE ENERGY PREDICTED BY IDOCK:    2.26 KCAL/MOL
REMARK 927      BINDING AFFINITY PREDICTED BY RF-SCORE:    0.00 PKD
ROOT
HETATM    1  C   UNL     1     -11.128  18.423  66.613  1.00  0.00     0.338 C  
HETATM    2  C   UNL     1     -11.222  17.113  67.430  1.00  0.00     0.225 C  
HETATM    3  C   UNL     1     -11.519  17.538  68.884  1.00  0.00     1.203 C  
HETATM    4  C   UNL     1     -12.243  16.099  66.848  1.00  0.00     1.798 C  
HETATM    5  C   UNL     1     -11.608  15.739  65.475  1.00  0.00     0.277 C  
HETATM    6  C   UNL     1     -10.073  15.806  65.738  1.00  0.00    -0.399 C  
HETATM    7  C   UNL     1     -10.000  16.136  67.249  1.00  0.00    -0.248 C  
HETATM    8  C   UNL     1     -12.929  14.114  68.383  1.00  0.00     1.840 C  
HETATM    9  C   UNL     1     -10.546  14.857  67.871  1.00  0.00    -0.254 C  
HETATM   10  O   UNL     1      -9.882  13.890  68.204  1.00  0.00    -0.226 OA 
HETATM   11  C   UNL     1     -12.041  14.900  67.758  1.00  0.00    -0.073 C  
ENDROOT
BRANCH   7  12
HETATM   12  C   UNL     1      -8.697  16.632  67.849  1.00  0.00    -0.193 C  
HETATM   13  S   UNL     1      -7.334  15.480  67.971  1.00  0.00    -0.140 S  
HETATM   14  O   UNL     1      -6.185  16.218  68.455  1.00  0.00    -0.113 OA 
HETATM   15  O   UNL     1      -7.273  14.674  66.778  1.00  0.00     0.158 OA 
HETATM   16  O   UNL     1      -7.845  14.550  69.184  1.00  0.00    -0.134 OA 
ENDBRANCH   7  12
BRANCH   8  17
HETATM   17  C   UNL     1     -12.531  12.992  69.241  1.00  0.00     0.215 A  
HETATM   18  C   UNL     1     -12.779  13.006  70.619  1.00  0.00    -0.175 A  
HETATM   19  C   UNL     1     -12.263  11.993  71.438  1.00  0.00     0.112 A  
HETATM   20  C   UNL     1     -11.494  10.961  70.892  1.00  0.00     0.020 A  
HETATM   21  C   UNL     1     -11.800  11.932  68.689  1.00  0.00    -0.365 A  
HETATM   22  C   UNL     1     -11.286  10.922  69.509  1.00  0.00    -0.351 A  
BRANCH  20  23
HETATM   23  C   UNL     1     -10.880   9.956  71.758  1.00  0.00     0.618 C  
HETATM   24  C   UNL     1     -10.918   8.649  71.500  1.00  0.00    -0.360 C  
HETATM   25  C   UNL     1     -11.538   7.846  70.383  1.00  0.00    -0.092 C  
HETATM   26  C   UNL     1     -10.353   7.352  69.525  1.00  0.00    -0.218 C  
HETATM   27  C   UNL     1      -9.683   6.272  70.417  1.00  0.00    -0.189 C  
HETATM   28  C   UNL     1     -10.573   6.243  71.689  1.00  0.00    -0.271 C  
HETATM   29  C   UNL     1     -12.003   6.555  71.114  1.00  0.00    -0.365 C  
HETATM   30  C   UNL     1     -12.574   5.492  70.153  1.00  0.00     5.271 C  
HETATM   31  C   UNL     1     -10.307   7.582  72.372  1.00  0.00    -0.228 C  
HETATM   32  O   UNL     1      -9.740   7.782  73.427  1.00  0.00    -0.278 OA 
HETATM   33  C   UNL     1     -13.088   6.791  72.193  1.00  0.00    -0.022 C  
BRANCH  28  34
HETATM   34  C   UNL     1     -10.496   5.010  72.568  1.00  0.00    -0.215 C  
HETATM   35  S   UNL     1      -8.938   4.736  73.398  1.00  0.00    -0.107 S  
HETATM   36  O   UNL     1      -7.895   4.502  72.424  1.00  0.00    -0.086 OA 
HETATM   37  O   UNL     1      -9.292   3.267  73.980  1.00  0.00    -0.091 OA 
HETATM   38  O   UNL     1      -8.758   5.594  74.540  1.00  0.00    -0.113 OA 
ENDBRANCH  28  34
ENDBRANCH  20  23
ENDBRANCH   8  17
TORSDOF 4
ENDMDL
MODEL      121
REMARK 921   NORMALIZED FREE ENERGY PREDICTED BY IDOCK:    7.90 KCAL/MOL
REMARK 922        TOTAL FREE ENERGY PREDICTED BY IDOCK:    9.25 KCAL/MOL
REMARK 923 INTER-LIGAND FREE ENERGY PREDICTED BY IDOCK:    6.55 KCAL/MOL
REMARK 924 INTRA-LIGAND FREE ENERGY PREDICTED BY IDOCK:    2.71 KCAL/MOL
REMARK 927      BINDING AFFINITY PREDICTED BY RF-SCORE:    0.00 PKD
ROOT
HETATM    1  C   UNL     1      -9.761   2.353  68.663  1.00  0.00     0.064 C  
HETATM    2  C   UNL     1      -9.444   3.835  68.351  1.00  0.00    -0.211 C  
HETATM    3  C   UNL     1      -8.181   3.824  67.464  1.00  0.00    -0.090 C  
HETATM    4  C   UNL     1     -10.643   4.600  67.732  1.00  0.00     0.342 C  
HETATM    5  C   UNL     1     -11.682   4.587  68.890  1.00  0.00     7.615 C  
HETATM    6  C   UNL     1     -10.810   4.661  70.181  1.00  0.00     0.989 C  
HETATM    7  C   UNL     1      -9.372   4.772  69.616  1.00  0.00    -0.198 C  
HETATM    8  C   UNL     1     -10.127   6.907  66.645  1.00  0.00    -0.211 C  
HETATM    9  C   UNL     1      -9.402   6.150  68.968  1.00  0.00    -0.128 C  
HETATM   10  O   UNL     1      -9.105   7.198  69.515  1.00  0.00    -0.146 OA 
HETATM   11  C   UNL     1     -10.096   6.015  67.645  1.00  0.00    -0.190 C  
ENDROOT
BRANCH   7  12
HETATM   12  C   UNL     1      -8.185   4.518  70.525  1.00  0.00    -0.071 C  
HETATM   13  S   UNL     1      -8.450   4.583  72.293  1.00  0.00    -0.111 S  
HETATM   14  O   UNL     1      -7.210   4.192  72.932  1.00  0.00    -0.063 OA 
HETATM   15  O   UNL     1      -9.705   3.954  72.618  1.00  0.00    -0.131 OA 
HETATM   16  O   UNL     1      -8.611   6.173  72.507  1.00  0.00    -0.122 OA 
ENDBRANCH   7  12
BRANCH   8  17
HETATM   17  C   UNL     1      -9.523   8.241  66.752  1.00  0.00    -0.256 A  
HETATM   18  C   UNL     1      -8.639   8.719  65.777  1.00  0.00    -0.185 A  
HETATM   19  C   UNL     1      -7.965   9.932  65.972  1.00  0.00    -0.114 A  
HETATM   20  C   UNL     1      -8.165  10.675  67.139  1.00  0.00    -0.121 A  
HETATM   21  C   UNL     1      -9.757   9.009  67.899  1.00  0.00    -0.185 A  
HETATM   22  C   UNL     1      -9.084  10.220  68.091  1.00  0.00    -0.136 A  
BRANCH  20  23
HETATM   23  C   UNL     1      -7.393  11.892  67.383  1.00  0.00    -0.145 C  
HETATM   24  C   UNL     1      -7.931  13.013  67.865  1.00  0.00    -0.157 C  
HETATM   25  C   UNL     1      -9.339  13.381  68.262  1.00  0.00    -0.205 C  
HETATM   26  C   UNL     1      -9.326  13.458  69.804  1.00  0.00     1.985 C  
HETATM   27  C   UNL     1      -8.518  14.752  70.096  1.00  0.00     0.818 C  
HETATM   28  C   UNL     1      -8.173  15.296  68.684  1.00  0.00    -0.159 C  
HETATM   29  C   UNL     1      -9.430  14.874  67.838  1.00  0.00    -0.200 C  
HETATM   30  C   UNL     1     -10.758  15.538  68.253  1.00  0.00    -0.271 C  
HETATM   31  C   UNL     1      -7.172  14.290  68.120  1.00  0.00    -0.127 C  
HETATM   32  O   UNL     1      -5.993  14.462  67.886  1.00  0.00    -0.140 OA 
HETATM   33  C   UNL     1      -9.284  15.112  66.315  1.00  0.00    -0.336 C  
BRANCH  28  34
HETATM   34  C   UNL     1      -7.793  16.759  68.573  1.00  0.00    -0.229 C  
HETATM   35  S   UNL     1      -6.057  17.104  68.338  1.00  0.00    -0.149 S  
HETATM   36  O   UNL     1      -5.307  16.665  69.495  1.00  0.00    -0.134 OA 
HETATM   37  O   UNL     1      -6.159  18.711  68.503  1.00  0.00    -0.201 OA 
HETATM   38  O   UNL     1      -5.618  16.860  66.989  1.00  0.00    -0.145 OA 
ENDBRANCH  28  34
ENDBRANCH  20  23
ENDBRANCH   8  17
TORSDOF 4
ENDMDL
MODEL      122
REMARK 921   NORMALIZED FREE ENERGY PREDICTED BY IDOCK:   10.03 KCAL/MOL
REMARK 922        TOTAL FREE ENERGY PREDICTED BY IDOCK:   11.88 KCAL/MOL
REMARK 923 INTER-LIGAND FREE ENERGY PREDICTED BY IDOCK:    8.78 KCAL/MOL
REMARK 924 INTRA-LIGAND FREE ENERGY PREDICTED BY IDOCK:    3.11 KCAL/MOL
REMARK 927      BINDING AFFINITY PREDICTED BY RF-SCORE:    0.00 PKD
ROOT
HETATM    1  C   UNL     1      -9.529   7.791  63.318  1.00  0.00     2.914 C  
HETATM    2  C   UNL     1      -9.616   9.297  63.662  1.00  0.00     0.972 C  
HETATM    3  C   UNL     1      -9.168  10.051  62.391  1.00  0.00    -0.319 C  
HETATM    4  C   UNL     1     -11.011   9.726  64.190  1.00  0.00     4.061 C  
HETATM    5  C   UNL     1     -11.115   8.942  65.530  1.00  0.00     4.187 C  
HETATM    6  C   UNL     1      -9.647   8.896  66.056  1.00  0.00    -0.320 C  
HETATM    7  C   UNL     1      -8.877   9.712  64.989  1.00  0.00    -0.221 C  
HETATM    8  C   UNL     1     -11.496  12.279  64.282  1.00  0.00    -0.429 C  
HETATM    9  C   UNL     1      -9.431  11.113  65.214  1.00  0.00    -0.226 C  
HETATM   10  O   UNL     1      -8.965  11.948  65.970  1.00  0.00    -0.171 OA 
HETATM   11  C   UNL     1     -10.773  11.183  64.546  1.00  0.00    -0.368 C  
ENDROOT
BRANCH   7  12
HETATM   12  C   UNL     1      -7.363   9.627  64.925  1.00  0.00    -0.118 C  
HETATM   13  S   UNL     1      -6.545   8.406  65.944  1.00  0.00    -0.053 S  
HETATM   14  O   UNL     1      -5.135   8.441  65.615  1.00  0.00    -0.027 OA 
HETATM   15  O   UNL     1      -7.300   7.178  65.928  1.00  0.00    -0.072 OA 
HETATM   16  O   UNL     1      -6.709   9.081  67.399  1.00  0.00    -0.068 OA 
ENDBRANCH   7  12
BRANCH   8  17
HETATM   17  C   UNL     1     -11.087  13.623  64.709  1.00  0.00    -0.375 A  
HETATM   18  C   UNL     1     -10.208  13.809  65.783  1.00  0.00    -0.322 A  
HETATM   19  C   UNL     1      -9.946  15.099  66.264  1.00  0.00    -0.307 A  
HETATM   20  C   UNL     1     -10.560  16.212  65.681  1.00  0.00    -0.377 A  
HETATM   21  C   UNL     1     -11.665  14.742  64.097  1.00  0.00    -0.165 A  
HETATM   22  C   UNL     1     -11.402  16.029  64.578  1.00  0.00    -0.303 A  
BRANCH  20  23
HETATM   23  C   UNL     1     -10.358  17.547  66.241  1.00  0.00    -0.335 C  
HETATM   24  C   UNL     1      -9.368  17.842  67.084  1.00  0.00    -0.264 C  
HETATM   25  C   UNL     1      -8.262  17.013  67.690  1.00  0.00    -0.193 C  
HETATM   26  C   UNL     1      -6.968  17.473  66.985  1.00  0.00    -0.207 C  
HETATM   27  C   UNL     1      -6.720  18.890  67.569  1.00  0.00    -0.208 C  
HETATM   28  C   UNL     1      -7.890  19.085  68.571  1.00  0.00    -0.375 C  
HETATM   29  C   UNL     1      -8.123  17.627  69.112  1.00  0.00     0.057 C  
HETATM   30  C   UNL     1      -6.951  17.026  69.915  1.00  0.00     0.467 C  
HETATM   31  C   UNL     1      -9.132  19.201  67.691  1.00  0.00    -0.297 C  
HETATM   32  O   UNL     1      -9.832  20.177  67.513  1.00  0.00    -0.388 OA 
HETATM   33  C   UNL     1      -9.382  17.469  69.999  1.00  0.00     1.689 C  
BRANCH  28  34
HETATM   34  C   UNL     1      -7.721  20.143  69.643  1.00  0.00     0.471 C  
HETATM   35  S   UNL     1      -6.110  20.234  70.408  1.00  0.00    -0.241 S  
HETATM   36  O   UNL     1      -5.834  19.007  71.122  1.00  0.00    -0.098 OA 
HETATM   37  O   UNL     1      -6.509  21.298  71.562  1.00  0.00     1.108 OA 
HETATM   38  O   UNL     1      -5.134  20.886  69.574  1.00  0.00    -0.303 OA 
ENDBRANCH  28  34
ENDBRANCH  20  23
ENDBRANCH   8  17
TORSDOF 4
ENDMDL
MODEL      123
REMARK 921   NORMALIZED FREE ENERGY PREDICTED BY IDOCK:   10.66 KCAL/MOL
REMARK 922        TOTAL FREE ENERGY PREDICTED BY IDOCK:   12.66 KCAL/MOL
REMARK 923 INTER-LIGAND FREE ENERGY PREDICTED BY IDOCK:   13.18 KCAL/MOL
REMARK 924 INTRA-LIGAND FREE ENERGY PREDICTED BY IDOCK:   -0.52 KCAL/MOL
REMARK 927      BINDING AFFINITY PREDICTED BY RF-SCORE:    0.00 PKD
ROOT
HETATM    1  C   UNL     1      -8.847  14.840  65.358  1.00  0.00     1.643 C  
HETATM    2  C   UNL     1      -8.541  13.370  65.731  1.00  0.00     1.414 C  
HETATM    3  C   UNL     1      -9.700  12.532  65.150  1.00  0.00    -0.042 C  
HETATM    4  C   UNL     1      -7.134  12.902  65.274  1.00  0.00     7.009 C  
HETATM    5  C   UNL     1      -6.191  13.798  66.127  1.00  0.00     5.372 C  
HETATM    6  C   UNL     1      -6.963  13.989  67.469  1.00  0.00    -0.167 C  
HETATM    7  C   UNL     1      -8.233  13.130  67.257  1.00  0.00    -0.172 C  
HETATM    8  C   UNL     1      -6.678  10.341  65.319  1.00  0.00    -0.126 C  
HETATM    9  C   UNL     1      -7.651  11.722  67.226  1.00  0.00    -0.150 C  
HETATM   10  O   UNL     1      -7.503  10.994  68.192  1.00  0.00    -0.086 OA 
HETATM   11  C   UNL     1      -7.067  11.503  65.862  1.00  0.00     0.488 C  
ENDROOT
BRANCH   7  12
HETATM   12  C   UNL     1      -9.425  13.308  68.179  1.00  0.00    -0.222 C  
HETATM   13  S   UNL     1      -9.548  14.830  69.110  1.00  0.00    -0.074 S  
HETATM   14  O   UNL     1     -10.816  14.810  69.810  1.00  0.00    -0.250 OA 
HETATM   15  O   UNL     1      -9.156  15.940  68.277  1.00  0.00    -0.181 OA 
HETATM   16  O   UNL     1      -8.395  14.594  70.212  1.00  0.00     0.644 OA 
ENDBRANCH   7  12
BRANCH   8  17
HETATM   17  C   UNL     1      -6.696   9.073  66.058  1.00  0.00    -0.076 A  
HETATM   18  C   UNL     1      -7.817   8.235  66.038  1.00  0.00    -0.095 A  
HETATM   19  C   UNL     1      -7.866   7.104  66.864  1.00  0.00    -0.107 A  
HETATM   20  C   UNL     1      -6.800   6.802  67.717  1.00  0.00    -0.081 A  
HETATM   21  C   UNL     1      -5.609   8.743  66.878  1.00  0.00    -0.041 A  
HETATM   22  C   UNL     1      -5.660   7.613  67.702  1.00  0.00    -0.035 A  
BRANCH  20  23
HETATM   23  C   UNL     1      -6.890   5.675  68.644  1.00  0.00    -0.059 C  
HETATM   24  C   UNL     1      -7.836   5.573  69.579  1.00  0.00    -0.087 C  
HETATM   25  C   UNL     1      -8.985   6.470  69.970  1.00  0.00    -0.144 C  
HETATM   26  C   UNL     1     -10.258   5.745  69.483  1.00  0.00    -0.306 C  
HETATM   27  C   UNL     1     -10.388   4.543  70.458  1.00  0.00    -0.024 C  
HETATM   28  C   UNL     1      -9.184   4.720  71.422  1.00  0.00    -0.188 C  
HETATM   29  C   UNL     1      -9.045   6.285  71.513  1.00  0.00    -0.145 C  
HETATM   30  C   UNL     1     -10.238   7.016  72.160  1.00  0.00    -0.206 C  
HETATM   31  C   UNL     1      -7.957   4.435  70.558  1.00  0.00    -0.059 C  
HETATM   32  O   UNL     1      -7.192   3.495  70.637  1.00  0.00    -0.037 OA 
HETATM   33  C   UNL     1      -7.781   6.771  72.262  1.00  0.00    -0.094 C  
BRANCH  28  34
HETATM   34  C   UNL     1      -9.249   4.008  72.758  1.00  0.00    -0.111 C  
HETATM   35  S   UNL     1     -10.590   2.847  72.963  1.00  0.00    -0.122 S  
HETATM   36  O   UNL     1     -11.857   3.544  72.909  1.00  0.00     0.376 OA 
HETATM   37  O   UNL     1     -10.350   2.557  74.538  1.00  0.00    -0.133 OA 
HETATM   38  O   UNL     1     -10.358   1.601  72.280  1.00  0.00    -0.150 OA 
ENDBRANCH  28  34
ENDBRANCH  20  23
ENDBRANCH   8  17
TORSDOF 4
ENDMDL
MODEL      124
REMARK 921   NORMALIZED FREE ENERGY PREDICTED BY IDOCK:   12.29 KCAL/MOL
REMARK 922        TOTAL FREE ENERGY PREDICTED BY IDOCK:   14.68 KCAL/MOL
REMARK 923 INTER-LIGAND FREE ENERGY PREDICTED BY IDOCK:   12.94 KCAL/MOL
REMARK 924 INTRA-LIGAND FREE ENERGY PREDICTED BY IDOCK:    1.73 KCAL/MOL
REMARK 927      BINDING AFFINITY PREDICTED BY RF-SCORE:    0.00 PKD
ROOT
HETATM    1  C   UNL     1      -8.472   1.886  65.915  1.00  0.00    -0.105 C  
HETATM    2  C   UNL     1      -8.317   3.299  66.525  1.00  0.00    -0.103 C  
HETATM    3  C   UNL     1      -9.319   3.369  67.697  1.00  0.00    -0.246 C  
HETATM    4  C   UNL     1      -6.856   3.638  66.924  1.00  0.00    -0.054 C  
HETATM    5  C   UNL     1      -6.130   3.651  65.548  1.00  0.00    -0.024 C  
HETATM    6  C   UNL     1      -7.208   4.185  64.556  1.00  0.00    -0.066 C  
HETATM    7  C   UNL     1      -8.411   4.478  65.485  1.00  0.00    -0.121 C  
HETATM    8  C   UNL     1      -6.510   5.713  68.453  1.00  0.00    -0.046 C  
HETATM    9  C   UNL     1      -7.886   5.646  66.310  1.00  0.00    -0.100 C  
HETATM   10  O   UNL     1      -8.010   6.826  66.029  1.00  0.00    -0.099 OA 
HETATM   11  C   UNL     1      -6.985   5.085  67.370  1.00  0.00    -0.065 C  
ENDROOT
BRANCH   7  12
HETATM   12  C   UNL     1      -9.790   4.687  64.887  1.00  0.00    -0.005 C  
HETATM   13  S   UNL     1      -9.916   4.893  63.115  1.00  0.00     0.767 S  
HETATM   14  O   UNL     1     -11.325   4.952  62.784  1.00  0.00     0.981 OA 
HETATM   15  O   UNL     1      -9.017   3.979  62.456  1.00  0.00    -0.093 OA 
HETATM   16  O   UNL     1      -9.329   6.386  62.951  1.00  0.00     1.087 OA 
ENDBRANCH   7  12
BRANCH   8  17
HETATM   17  C   UNL     1      -6.754   7.137  68.717  1.00  0.00    -0.067 A  
HETATM   18  C   UNL     1      -5.838   7.910  69.441  1.00  0.00    -0.030 A  
HETATM   19  C   UNL     1      -6.159   9.225  69.804  1.00  0.00    -0.039 A  
HETATM   20  C   UNL     1      -7.394   9.778  69.450  1.00  0.00    -0.087 A  
HETATM   21  C   UNL     1      -7.971   7.707  68.323  1.00  0.00    -0.123 A  
HETATM   22  C   UNL     1      -8.288   9.021  68.686  1.00  0.00    -0.123 A  
BRANCH  20  23
HETATM   23  C   UNL     1      -7.764  11.117  69.907  1.00  0.00     0.603 C  
HETATM   24  C   UNL     1      -7.660  12.204  69.142  1.00  0.00     0.173 C  
HETATM   25  C   UNL     1      -7.175  12.415  67.729  1.00  0.00    -0.119 C  
HETATM   26  C   UNL     1      -8.442  12.707  66.897  1.00  0.00    -0.118 C  
HETATM   27  C   UNL     1      -8.856  14.133  67.354  1.00  0.00    -0.211 C  
HETATM   28  C   UNL     1      -7.763  14.519  68.387  1.00  0.00    -0.128 C  
HETATM   29  C   UNL     1      -6.484  13.805  67.814  1.00  0.00    -0.178 C  
HETATM   30  C   UNL     1      -5.998  14.320  66.445  1.00  0.00     4.163 C  
HETATM   31  C   UNL     1      -8.021  13.600  69.578  1.00  0.00     0.750 C  
HETATM   32  O   UNL     1      -8.414  13.906  70.686  1.00  0.00     3.014 OA 
HETATM   33  C   UNL     1      -5.254  13.847  68.755  1.00  0.00    -0.083 C  
BRANCH  28  34
HETATM   34  C   UNL     1      -7.585  15.992  68.696  1.00  0.00    -0.173 C  
HETATM   35  S   UNL     1      -8.929  16.777  69.573  1.00  0.00     0.544 S  
HETATM   36  O   UNL     1     -10.124  16.762  68.757  1.00  0.00    -0.253 OA 
HETATM   37  O   UNL     1      -8.371  18.292  69.455  1.00  0.00     0.171 OA 
HETATM   38  O   UNL     1      -8.942  16.455  70.976  1.00  0.00     3.548 OA 
ENDBRANCH  28  34
ENDBRANCH  20  23
ENDBRANCH   8  17
TORSDOF 4
ENDMDL
MODEL      125
REMARK 921   NORMALIZED FREE ENERGY PREDICTED BY IDOCK:   15.36 KCAL/MOL
REMARK 922        TOTAL FREE ENERGY PREDICTED BY IDOCK:   18.46 KCAL/MOL
REMARK 923 INTER-LIGAND FREE ENERGY PREDICTED BY IDOCK:    9.63 KCAL/MOL
REMARK 924 INTRA-LIGAND FREE ENERGY PREDICTED BY IDOCK:    8.84 KCAL/MOL
REMARK 927      BINDING AFFINITY PREDICTED BY RF-SCORE:    0.00 PKD
ROOT
HETATM    1  C   UNL     1     -10.265   2.981  66.067  1.00  0.00     1.110 C  
HETATM    2  C   UNL     1     -10.600   4.387  66.619  1.00  0.00     0.344 C  
HETATM    3  C   UNL     1     -12.140   4.491  66.613  1.00  0.00     7.564 C  
HETATM    4  C   UNL     1      -9.954   4.673  68.000  1.00  0.00    -0.129 C  
HETATM    5  C   UNL     1      -8.435   4.662  67.666  1.00  0.00    -0.103 C  
HETATM    6  C   UNL     1      -8.361   5.235  66.218  1.00  0.00    -0.114 C  
HETATM    7  C   UNL     1      -9.841   5.570  65.908  1.00  0.00    -0.029 C  
HETATM    8  C   UNL     1     -10.853   6.733  69.310  1.00  0.00    -0.303 C  
HETATM    9  C   UNL     1     -10.106   6.717  66.874  1.00  0.00    -0.202 C  
HETATM   10  O   UNL     1      -9.945   7.901  66.631  1.00  0.00    -0.245 OA 
HETATM   11  C   UNL     1     -10.346   6.123  68.230  1.00  0.00    -0.239 C  
ENDROOT
BRANCH   7  12
HETATM   12  C   UNL     1     -10.270   5.828  64.475  1.00  0.00     2.433 C  
HETATM   13  S   UNL     1     -11.243   4.575  63.650  1.00  0.00     1.380 S  
HETATM   14  O   UNL     1     -11.624   5.104  62.356  1.00  0.00     1.274 OA 
HETATM   15  O   UNL     1     -12.215   4.035  64.567  1.00  0.00     1.928 OA 
HETATM   16  O   UNL     1     -10.116   3.453  63.389  1.00  0.00    -0.143 OA 
ENDBRANCH   7  12
BRANCH   8  17
HETATM   17  C   UNL     1     -11.180   8.164  69.333  1.00  0.00     0.213 A  
HETATM   18  C   UNL     1     -10.662   9.045  68.376  1.00  0.00    -0.145 A  
HETATM   19  C   UNL     1     -10.870  10.425  68.503  1.00  0.00    -0.278 A  
HETATM   20  C   UNL     1     -11.594  10.937  69.584  1.00  0.00    -0.394 A  
HETATM   21  C   UNL     1     -11.944   8.675  70.391  1.00  0.00     0.151 A  
HETATM   22  C   UNL     1     -12.152  10.053  70.514  1.00  0.00    -0.338 A  
BRANCH  20  23
HETATM   23  C   UNL     1     -11.732  12.381  69.765  1.00  0.00    -0.361 C  
HETATM   24  C   UNL     1     -11.222  13.274  68.916  1.00  0.00    -0.322 C  
HETATM   25  C   UNL     1     -10.416  13.134  67.648  1.00  0.00    -0.225 C  
HETATM   26  C   UNL     1     -11.379  13.517  66.504  1.00  0.00    -0.340 C  
HETATM   27  C   UNL     1     -11.539  15.054  66.662  1.00  0.00    -0.201 C  
HETATM   28  C   UNL     1     -10.628  15.395  67.872  1.00  0.00    -0.267 C  
HETATM   29  C   UNL     1      -9.457  14.355  67.723  1.00  0.00    -0.211 C  
HETATM   30  C   UNL     1      -8.589  14.516  66.458  1.00  0.00     0.022 C  
HETATM   31  C   UNL     1     -11.334  14.769  69.072  1.00  0.00    -0.275 C  
HETATM   32  O   UNL     1     -11.869  15.337  70.002  1.00  0.00    -0.289 OA 
HETATM   33  C   UNL     1      -8.476  14.322  68.920  1.00  0.00    -0.031 C  
BRANCH  28  34
HETATM   34  C   UNL     1     -10.183  16.836  68.027  1.00  0.00    -0.300 C  
HETATM   35  S   UNL     1      -9.264  17.524  66.658  1.00  0.00    -0.267 S  
HETATM   36  O   UNL     1      -8.012  16.817  66.502  1.00  0.00    -0.239 OA 
HETATM   37  O   UNL     1      -8.862  18.915  67.383  1.00  0.00    -0.271 OA 
HETATM   38  O   UNL     1     -10.105  17.874  65.543  1.00  0.00    -0.530 OA 
ENDBRANCH  28  34
ENDBRANCH  20  23
ENDBRANCH   8  17
TORSDOF 4
ENDMDL
MODEL      126
REMARK 921   NORMALIZED FREE ENERGY PREDICTED BY IDOCK:   15.41 KCAL/MOL
REMARK 922        TOTAL FREE ENERGY PREDICTED BY IDOCK:   18.52 KCAL/MOL
REMARK 923 INTER-LIGAND FREE ENERGY PREDICTED BY IDOCK:   13.24 KCAL/MOL
REMARK 924 INTRA-LIGAND FREE ENERGY PREDICTED BY IDOCK:    5.28 KCAL/MOL
REMARK 927      BINDING AFFINITY PREDICTED BY RF-SCORE:    0.00 PKD
ROOT
HETATM    1  C   UNL     1      -7.918  20.253  68.463  1.00  0.00     0.084 C  
HETATM    2  C   UNL     1      -7.914  18.721  68.248  1.00  0.00    -0.346 C  
HETATM    3  C   UNL     1      -9.299  18.370  67.663  1.00  0.00    -0.274 C  
HETATM    4  C   UNL     1      -6.722  18.226  67.387  1.00  0.00    -0.204 C  
HETATM    5  C   UNL     1      -5.498  18.566  68.285  1.00  0.00    -0.172 C  
HETATM    6  C   UNL     1      -6.030  18.372  69.738  1.00  0.00    -0.243 C  
HETATM    7  C   UNL     1      -7.481  17.882  69.508  1.00  0.00     0.296 C  
HETATM    8  C   UNL     1      -6.867  15.796  66.471  1.00  0.00     0.856 C  
HETATM    9  C   UNL     1      -7.248  16.511  68.887  1.00  0.00    -0.208 C  
HETATM   10  O   UNL     1      -7.151  15.461  69.500  1.00  0.00    -0.175 OA 
HETATM   11  C   UNL     1      -6.906  16.719  67.441  1.00  0.00    -0.186 C  
ENDROOT
BRANCH   7  12
HETATM   12  C   UNL     1      -8.474  17.903  70.655  1.00  0.00     4.939 C  
HETATM   13  S   UNL     1     -10.049  17.090  70.420  1.00  0.00     1.633 S  
HETATM   14  O   UNL     1     -10.758  17.144  71.682  1.00  0.00     1.431 OA 
HETATM   15  O   UNL     1      -9.853  15.852  69.710  1.00  0.00    -0.262 OA 
HETATM   16  O   UNL     1     -10.772  18.134  69.427  1.00  0.00     0.267 OA 
ENDBRANCH   7  12
BRANCH   8  17
HETATM   17  C   UNL     1      -7.083  14.366  66.726  1.00  0.00     1.222 A  
HETATM   18  C   UNL     1      -8.366  13.807  66.688  1.00  0.00     0.240 A  
HETATM   19  C   UNL     1      -8.565  12.474  67.075  1.00  0.00    -0.188 A  
HETATM   20  C   UNL     1      -7.489  11.692  67.505  1.00  0.00    -0.123 A  
HETATM   21  C   UNL     1      -5.999  13.568  67.112  1.00  0.00     0.619 A  
HETATM   22  C   UNL     1      -6.201  12.238  67.498  1.00  0.00    -0.140 A  
BRANCH  20  23
HETATM   23  C   UNL     1      -7.711  10.333  67.996  1.00  0.00    -0.089 C  
HETATM   24  C   UNL     1      -8.772   9.985  68.725  1.00  0.00    -0.136 C  
HETATM   25  C   UNL     1      -9.952  10.767  69.249  1.00  0.00    -0.182 C  
HETATM   26  C   UNL     1     -11.159  10.306  68.403  1.00  0.00    -0.302 C  
HETATM   27  C   UNL     1     -11.427   8.863  68.909  1.00  0.00     0.676 C  
HETATM   28  C   UNL     1     -10.356   8.656  70.014  1.00  0.00    -0.213 C  
HETATM   29  C   UNL     1     -10.214  10.097  70.627  1.00  0.00     0.081 C  
HETATM   30  C   UNL     1     -11.473  10.642  71.331  1.00  0.00     0.381 C  
HETATM   31  C   UNL     1      -9.032   8.600  69.258  1.00  0.00    -0.145 C  
HETATM   32  O   UNL     1      -8.293   7.646  69.116  1.00  0.00    -0.128 OA 
HETATM   33  C   UNL     1      -9.052  10.249  71.639  1.00  0.00     4.297 C  
BRANCH  28  34
HETATM   34  C   UNL     1     -10.602   7.555  71.027  1.00  0.00    -0.221 C  
HETATM   35  S   UNL     1     -11.356   8.060  72.566  1.00  0.00    -0.411 S  
HETATM   36  O   UNL     1     -10.470   8.957  73.276  1.00  0.00     1.055 OA 
HETATM   37  O   UNL     1     -11.196   6.640  73.328  1.00  0.00    -0.179 OA 
HETATM   38  O   UNL     1     -12.770   8.298  72.442  1.00  0.00    -0.312 OA 
ENDBRANCH  28  34
ENDBRANCH  20  23
ENDBRANCH   8  17
TORSDOF 4
ENDMDL
MODEL      127
REMARK 921   NORMALIZED FREE ENERGY PREDICTED BY IDOCK:   15.88 KCAL/MOL
REMARK 922        TOTAL FREE ENERGY PREDICTED BY IDOCK:   19.11 KCAL/MOL
REMARK 923 INTER-LIGAND FREE ENERGY PREDICTED BY IDOCK:   11.19 KCAL/MOL
REMARK 924 INTRA-LIGAND FREE ENERGY PREDICTED BY IDOCK:    7.91 KCAL/MOL
REMARK 927      BINDING AFFINITY PREDICTED BY RF-SCORE:    0.00 PKD
ROOT
HETATM    1  C   UNL     1     -10.321  18.103  69.109  1.00  0.00    -0.026 C  
HETATM    2  C   UNL     1      -9.707  16.757  68.654  1.00  0.00    -0.259 C  
HETATM    3  C   UNL     1      -9.966  16.662  67.135  1.00  0.00    -0.268 C  
HETATM    4  C   UNL     1      -8.216  16.599  69.051  1.00  0.00    -0.190 C  
HETATM    5  C   UNL     1      -8.285  16.570  70.605  1.00  0.00     3.636 C  
HETATM    6  C   UNL     1      -9.641  15.861  70.909  1.00  0.00     1.973 C  
HETATM    7  C   UNL     1     -10.166  15.508  69.496  1.00  0.00    -0.279 C  
HETATM    8  C   UNL     1      -6.893  14.679  67.898  1.00  0.00    -0.176 C  
HETATM    9  C   UNL     1      -9.157  14.459  69.046  1.00  0.00     0.001 C  
HETATM   10  O   UNL     1      -9.259  13.256  69.220  1.00  0.00     0.502 OA 
HETATM   11  C   UNL     1      -7.923  15.181  68.594  1.00  0.00    -0.151 C  
ENDROOT
BRANCH   7  12
HETATM   12  C   UNL     1     -11.620  15.117  69.310  1.00  0.00    -0.324 C  
HETATM   13  S   UNL     1     -12.269  15.058  67.645  1.00  0.00     0.454 S  
HETATM   14  O   UNL     1     -13.623  14.548  67.724  1.00  0.00     3.730 OA 
HETATM   15  O   UNL     1     -11.288  14.477  66.763  1.00  0.00    -0.332 OA 
HETATM   16  O   UNL     1     -12.375  16.633  67.315  1.00  0.00     1.724 OA 
ENDBRANCH   7  12
BRANCH   8  17
HETATM   17  C   UNL     1      -6.794  13.258  67.540  1.00  0.00    -0.155 A  
HETATM   18  C   UNL     1      -7.535  12.283  68.219  1.00  0.00    -0.119 A  
HETATM   19  C   UNL     1      -7.316  10.924  67.958  1.00  0.00    -0.088 A  
HETATM   20  C   UNL     1      -6.356  10.527  67.022  1.00  0.00    -0.074 A  
HETATM   21  C   UNL     1      -5.866  12.860  66.570  1.00  0.00     1.877 A  
HETATM   22  C   UNL     1      -5.650  11.502  66.310  1.00  0.00    -0.003 A  
BRANCH  20  23
HETATM   23  C   UNL     1      -6.064   9.109  66.817  1.00  0.00    -0.064 C  
HETATM   24  C   UNL     1      -7.011   8.173  66.741  1.00  0.00    -0.073 C  
HETATM   25  C   UNL     1      -8.515   8.232  66.842  1.00  0.00    -0.118 C  
HETATM   26  C   UNL     1      -9.034   7.993  65.407  1.00  0.00     0.013 C  
HETATM   27  C   UNL     1      -8.746   6.487  65.162  1.00  0.00     0.086 C  
HETATM   28  C   UNL     1      -8.112   6.012  66.498  1.00  0.00    -0.109 C  
HETATM   29  C   UNL     1      -8.857   6.897  67.564  1.00  0.00    -0.118 C  
HETATM   30  C   UNL     1     -10.374   6.649  67.684  1.00  0.00    -0.248 C  
HETATM   31  C   UNL     1      -6.751   6.702  66.542  1.00  0.00    -0.056 C  
HETATM   32  O   UNL     1      -5.653   6.191  66.461  1.00  0.00    -0.012 OA 
HETATM   33  C   UNL     1      -8.285   6.786  68.998  1.00  0.00    -0.117 C  
BRANCH  28  34
HETATM   34  C   UNL     1      -8.125   4.524  66.786  1.00  0.00    -0.102 C  
HETATM   35  S   UNL     1      -9.622   3.879  67.515  1.00  0.00    -0.115 S  
HETATM   36  O   UNL     1      -9.823   4.461  68.824  1.00  0.00    -0.150 OA 
HETATM   37  O   UNL     1      -9.061   2.389  67.811  1.00  0.00    -0.146 OA 
HETATM   38  O   UNL     1     -10.688   3.730  66.558  1.00  0.00     1.069 OA 
ENDBRANCH  28  34
ENDBRANCH  20  23
ENDBRANCH   8  17
TORSDOF 4
ENDMDL
MODEL      128
REMARK 921   NORMALIZED FREE ENERGY PREDICTED BY IDOCK:   16.04 KCAL/MOL
REMARK 922        TOTAL FREE ENERGY PREDICTED BY IDOCK:   19.30 KCAL/MOL
REMARK 923 INTER-LIGAND FREE ENERGY PREDICTED BY IDOCK:   16.71 KCAL/MOL
REMARK 924 INTRA-LIGAND FREE ENERGY PREDICTED BY IDOCK:    2.59 KCAL/MOL
REMARK 927      BINDING AFFINITY PREDICTED BY RF-SCORE:    0.00 PKD
ROOT
HETATM    1  C   UNL     1      -6.664  16.306  71.631  1.00  0.00     3.735 C  
HETATM    2  C   UNL     1      -6.670  15.253  70.497  1.00  0.00     0.254 C  
HETATM    3  C   UNL     1      -6.439  16.036  69.187  1.00  0.00    -0.157 C  
HETATM    4  C   UNL     1      -5.660  14.098  70.728  1.00  0.00    -0.173 C  
HETATM    5  C   UNL     1      -6.231  13.406  72.000  1.00  0.00     1.493 C  
HETATM    6  C   UNL     1      -7.775  13.578  71.864  1.00  0.00     8.269 C  
HETATM    7  C   UNL     1      -7.919  14.293  70.498  1.00  0.00     1.990 C  
HETATM    8  C   UNL     1      -5.144  12.566  68.690  1.00  0.00    -0.056 C  
HETATM    9  C   UNL     1      -7.462  13.208  69.532  1.00  0.00     0.576 C  
HETATM   10  O   UNL     1      -8.183  12.379  69.003  1.00  0.00     0.136 OA 
HETATM   11  C   UNL     1      -5.963  13.183  69.554  1.00  0.00    -0.108 C  
ENDROOT
BRANCH   7  12
HETATM   12  C   UNL     1      -9.232  14.961  70.134  1.00  0.00     0.658 C  
HETATM   13  S   UNL     1      -9.560  15.287  68.406  1.00  0.00    -0.211 S  
HETATM   14  O   UNL     1     -10.908  15.809  68.311  1.00  0.00    -0.278 OA 
HETATM   15  O   UNL     1      -9.119  14.169  67.611  1.00  0.00    -0.180 OA 
HETATM   16  O   UNL     1      -8.555  16.520  68.145  1.00  0.00    -0.184 OA 
ENDBRANCH   7  12
BRANCH   8  17
HETATM   17  C   UNL     1      -5.636  11.717  67.598  1.00  0.00    -0.067 A  
HETATM   18  C   UNL     1      -6.350  12.258  66.522  1.00  0.00     0.721 A  
HETATM   19  C   UNL     1      -6.933  11.413  65.568  1.00  0.00     0.738 A  
HETATM   20  C   UNL     1      -6.810  10.025  65.680  1.00  0.00    -0.114 A  
HETATM   21  C   UNL     1      -5.475  10.329  67.684  1.00  0.00    -0.044 A  
HETATM   22  C   UNL     1      -6.057   9.487  66.729  1.00  0.00    -0.064 A  
BRANCH  20  23
HETATM   23  C   UNL     1      -7.495   9.143  64.737  1.00  0.00    -0.106 C  
HETATM   24  C   UNL     1      -7.714   7.849  64.975  1.00  0.00    -0.106 C  
HETATM   25  C   UNL     1      -7.367   6.952  66.138  1.00  0.00    -0.076 C  
HETATM   26  C   UNL     1      -8.705   6.675  66.858  1.00  0.00    -0.116 C  
HETATM   27  C   UNL     1      -9.455   5.728  65.882  1.00  0.00    -0.059 C  
HETATM   28  C   UNL     1      -8.454   5.542  64.710  1.00  0.00    -0.125 C  
HETATM   29  C   UNL     1      -7.060   5.598  65.438  1.00  0.00    -0.066 C  
HETATM   30  C   UNL     1      -6.790   4.453  66.435  1.00  0.00    -0.055 C  
HETATM   31  C   UNL     1      -8.406   6.905  64.026  1.00  0.00     0.184 C  
HETATM   32  O   UNL     1      -8.814   7.200  62.920  1.00  0.00     0.434 OA 
HETATM   33  C   UNL     1      -5.842   5.637  64.483  1.00  0.00    -0.021 C  
BRANCH  28  34
HETATM   34  C   UNL     1      -8.652   4.340  63.808  1.00  0.00    -0.117 C  
HETATM   35  S   UNL     1     -10.154   3.408  64.063  1.00  0.00    -0.206 S  
HETATM   36  O   UNL     1     -10.150   2.819  65.384  1.00  0.00     0.321 OA 
HETATM   37  O   UNL     1      -9.787   2.184  63.068  1.00  0.00    -0.091 OA 
HETATM   38  O   UNL     1     -11.313   4.054  63.503  1.00  0.00    -0.021 OA 
ENDBRANCH  28  34
ENDBRANCH  20  23
ENDBRANCH   8  17
TORSDOF 4
ENDMDL
MODEL      129
REMARK 921   NORMALIZED FREE ENERGY PREDICTED BY IDOCK:   16.65 KCAL/MOL
REMARK 922        TOTAL FREE ENERGY PREDICTED BY IDOCK:   20.05 KCAL/MOL
REMARK 923 INTER-LIGAND FREE ENERGY PREDICTED BY IDOCK:   18.16 KCAL/MOL
REMARK 924 INTRA-LIGAND FREE ENERGY PREDICTED BY IDOCK:    1.89 KCAL/MOL
REMARK 927      BINDING AFFINITY PREDICTED BY RF-SCORE:    0.00 PKD
ROOT
HETATM    1  C   UNL     1      -8.994   4.147  65.858  1.00  0.00    -0.126 C  
HETATM    2  C   UNL     1      -9.013   5.673  66.114  1.00  0.00    -0.153 C  
HETATM    3  C   UNL     1      -7.821   6.252  65.323  1.00  0.00    -0.107 C  
HETATM    4  C   UNL     1     -10.375   6.334  65.776  1.00  0.00     0.832 C  
HETATM    5  C   UNL     1     -11.330   5.683  66.817  1.00  0.00     0.498 C  
HETATM    6  C   UNL     1     -10.431   5.472  68.074  1.00  0.00    -0.240 C  
HETATM    7  C   UNL     1      -9.079   6.084  67.633  1.00  0.00    -0.109 C  
HETATM    8  C   UNL     1     -10.410   8.930  65.614  1.00  0.00     0.955 C  
HETATM    9  C   UNL     1      -9.430   7.562  67.527  1.00  0.00    -0.139 C  
HETATM   10  O   UNL     1      -9.335   8.380  68.426  1.00  0.00    -0.136 OA 
HETATM   11  C   UNL     1     -10.143   7.767  66.224  1.00  0.00     0.025 C  
ENDROOT
BRANCH   7  12
HETATM   12  C   UNL     1      -7.821   5.781  68.426  1.00  0.00    -0.101 C  
HETATM   13  S   UNL     1      -7.905   4.512  69.684  1.00  0.00    -0.057 S  
HETATM   14  O   UNL     1      -6.566   4.328  70.206  1.00  0.00    -0.031 OA 
HETATM   15  O   UNL     1      -8.693   3.404  69.203  1.00  0.00    -0.076 OA 
HETATM   16  O   UNL     1      -8.754   5.280  70.819  1.00  0.00    -0.126 OA 
ENDBRANCH   7  12
BRANCH   8  17
HETATM   17  C   UNL     1     -10.097  10.232  66.215  1.00  0.00    -0.300 A  
HETATM   18  C   UNL     1     -11.068  10.967  66.906  1.00  0.00    -0.280 A  
HETATM   19  C   UNL     1     -10.787  12.268  67.345  1.00  0.00    -0.277 A  
HETATM   20  C   UNL     1      -9.538  12.846  67.096  1.00  0.00    -0.225 A  
HETATM   21  C   UNL     1      -8.831  10.796  66.008  1.00  0.00    -0.192 A  
HETATM   22  C   UNL     1      -8.553  12.094  66.448  1.00  0.00    -0.002 A  
BRANCH  20  23
HETATM   23  C   UNL     1      -9.278  14.235  67.473  1.00  0.00    -0.197 C  
HETATM   24  C   UNL     1      -8.150  14.631  68.065  1.00  0.00    -0.135 C  
HETATM   25  C   UNL     1      -6.916  13.887  68.512  1.00  0.00    -0.101 C  
HETATM   26  C   UNL     1      -5.807  14.294  67.518  1.00  0.00     0.115 C  
HETATM   27  C   UNL     1      -5.499  15.768  67.899  1.00  0.00    -0.148 C  
HETATM   28  C   UNL     1      -6.451  16.044  69.094  1.00  0.00    -0.157 C  
HETATM   29  C   UNL     1      -6.517  14.644  69.810  1.00  0.00    -0.159 C  
HETATM   30  C   UNL     1      -5.188  14.148  70.412  1.00  0.00    -0.101 C  
HETATM   31  C   UNL     1      -7.848  16.048  68.477  1.00  0.00    -0.160 C  
HETATM   32  O   UNL     1      -8.605  16.989  68.352  1.00  0.00    -0.226 OA 
HETATM   33  C   UNL     1      -7.567  14.557  70.945  1.00  0.00     1.899 C  
BRANCH  28  34
HETATM   34  C   UNL     1      -6.111  17.208  70.003  1.00  0.00    -0.116 C  
HETATM   35  S   UNL     1      -6.839  17.169  71.633  1.00  0.00     5.884 S  
HETATM   36  O   UNL     1      -8.280  17.252  71.531  1.00  0.00     8.323 OA 
HETATM   37  O   UNL     1      -6.374  18.653  72.083  1.00  0.00     1.421 OA 
HETATM   38  O   UNL     1      -6.174  16.248  72.518  1.00  0.00     2.389 OA 
ENDBRANCH  28  34
ENDBRANCH  20  23
ENDBRANCH   8  17
TORSDOF 4
ENDMDL
MODEL      130
REMARK 921   NORMALIZED FREE ENERGY PREDICTED BY IDOCK:   16.99 KCAL/MOL
REMARK 922        TOTAL FREE ENERGY PREDICTED BY IDOCK:   20.47 KCAL/MOL
REMARK 923 INTER-LIGAND FREE ENERGY PREDICTED BY IDOCK:   15.24 KCAL/MOL
REMARK 924 INTRA-LIGAND FREE ENERGY PREDICTED BY IDOCK:    5.23 KCAL/MOL
REMARK 927      BINDING AFFINITY PREDICTED BY RF-SCORE:    0.00 PKD
ROOT
HETATM    1  C   UNL     1     -11.297  17.943  68.755  1.00  0.00     1.278 C  
HETATM    2  C   UNL     1     -10.607  16.694  68.157  1.00  0.00    -0.336 C  
HETATM    3  C   UNL     1     -10.258  17.057  66.698  1.00  0.00    -0.310 C  
HETATM    4  C   UNL     1      -9.393  16.206  68.993  1.00  0.00    -0.248 C  
HETATM    5  C   UNL     1     -10.063  15.766  70.327  1.00  0.00     0.032 C  
HETATM    6  C   UNL     1     -11.456  15.219  69.889  1.00  0.00    -0.325 C  
HETATM    7  C   UNL     1     -11.404  15.349  68.347  1.00  0.00    -0.345 C  
HETATM    8  C   UNL     1      -7.801  14.491  67.857  1.00  0.00    -0.153 C  
HETATM    9  C   UNL     1     -10.340  14.319  67.987  1.00  0.00    -0.229 C  
HETATM   10  O   UNL     1     -10.547  13.145  67.730  1.00  0.00    -0.228 OA 
HETATM   11  C   UNL     1      -9.001  14.938  68.256  1.00  0.00    -0.177 C  
ENDROOT
BRANCH   7  12
HETATM   12  C   UNL     1     -12.685  15.253  67.540  1.00  0.00     1.718 C  
HETATM   13  S   UNL     1     -12.591  15.530  65.775  1.00  0.00     1.599 S  
HETATM   14  O   UNL     1     -13.904  15.264  65.224  1.00  0.00     1.151 OA 
HETATM   15  O   UNL     1     -11.404  14.904  65.249  1.00  0.00    -0.344 OA 
HETATM   16  O   UNL     1     -12.378  17.128  65.741  1.00  0.00     3.388 OA 
ENDBRANCH   7  12
BRANCH   8  17
HETATM   17  C   UNL     1      -7.625  13.224  67.137  1.00  0.00     0.014 A  
HETATM   18  C   UNL     1      -6.444  12.943  66.439  1.00  0.00     2.261 A  
HETATM   19  C   UNL     1      -6.354  11.794  65.642  1.00  0.00     1.537 A  
HETATM   20  C   UNL     1      -7.439  10.919  65.533  1.00  0.00     0.095 A  
HETATM   21  C   UNL     1      -8.694  12.323  67.064  1.00  0.00    -0.199 A  
HETATM   22  C   UNL     1      -8.601  11.176  66.268  1.00  0.00    -0.180 A  
BRANCH  20  23
HETATM   23  C   UNL     1      -7.376   9.771  64.630  1.00  0.00    -0.134 C  
HETATM   24  C   UNL     1      -7.956   8.600  64.897  1.00  0.00    -0.138 C  
HETATM   25  C   UNL     1      -8.760   8.104  66.074  1.00  0.00    -0.182 C  
HETATM   26  C   UNL     1     -10.215   8.005  65.567  1.00  0.00     1.866 C  
HETATM   27  C   UNL     1     -10.184   6.783  64.609  1.00  0.00     4.584 C  
HETATM   28  C   UNL     1      -8.712   6.292  64.686  1.00  0.00     0.255 C  
HETATM   29  C   UNL     1      -8.323   6.615  66.176  1.00  0.00    -0.130 C  
HETATM   30  C   UNL     1      -9.106   5.830  67.247  1.00  0.00    -0.110 C  
HETATM   31  C   UNL     1      -7.906   7.391  63.999  1.00  0.00    -0.120 C  
HETATM   32  O   UNL     1      -7.306   7.328  62.945  1.00  0.00    -0.075 OA 
HETATM   33  C   UNL     1      -6.822   6.413  66.501  1.00  0.00    -0.062 C  
BRANCH  28  34
HETATM   34  C   UNL     1      -8.427   4.870  64.247  1.00  0.00    -0.137 C  
HETATM   35  S   UNL     1      -9.849   3.805  64.066  1.00  0.00    -0.190 S  
HETATM   36  O   UNL     1     -10.494   3.622  65.349  1.00  0.00     0.101 OA 
HETATM   37  O   UNL     1      -9.027   2.432  63.822  1.00  0.00    -0.092 OA 
HETATM   38  O   UNL     1     -10.585   4.060  62.855  1.00  0.00    -0.194 OA 
ENDBRANCH  28  34
ENDBRANCH  20  23
ENDBRANCH   8  17
TORSDOF 4
ENDMDL
MODEL      131
REMARK 921   NORMALIZED FREE ENERGY PREDICTED BY IDOCK:   17.02 KCAL/MOL
REMARK 922        TOTAL FREE ENERGY PREDICTED BY IDOCK:   20.51 KCAL/MOL
REMARK 923 INTER-LIGAND FREE ENERGY PREDICTED BY IDOCK:   14.75 KCAL/MOL
REMARK 924 INTRA-LIGAND FREE ENERGY PREDICTED BY IDOCK:    5.76 KCAL/MOL
REMARK 927      BINDING AFFINITY PREDICTED BY RF-SCORE:    0.00 PKD
ROOT
HETATM    1  C   UNL     1     -10.350  18.117  69.137  1.00  0.00    -0.026 C  
HETATM    2  C   UNL     1      -9.889  16.674  68.826  1.00  0.00    -0.252 C  
HETATM    3  C   UNL     1     -10.238  16.426  67.343  1.00  0.00    -0.281 C  
HETATM    4  C   UNL     1      -8.399  16.418  69.175  1.00  0.00    -0.182 C  
HETATM    5  C   UNL     1      -8.387  16.580  70.722  1.00  0.00     4.209 C  
HETATM    6  C   UNL     1      -9.784  16.049  71.169  1.00  0.00     2.564 C  
HETATM    7  C   UNL     1     -10.416  15.584  69.834  1.00  0.00    -0.323 C  
HETATM    8  C   UNL     1      -7.325  14.253  68.213  1.00  0.00    -0.124 C  
HETATM    9  C   UNL     1      -9.535  14.395  69.474  1.00  0.00     0.387 C  
HETATM   10  O   UNL     1      -9.738  13.237  69.799  1.00  0.00     1.243 OA 
HETATM   11  C   UNL     1      -8.265  14.933  68.885  1.00  0.00    -0.171 C  
ENDROOT
BRANCH   7  12
HETATM   12  C   UNL     1     -11.908  15.320  69.759  1.00  0.00    -0.332 C  
HETATM   13  S   UNL     1     -12.657  15.175  68.142  1.00  0.00     1.218 S  
HETATM   14  O   UNL     1     -14.044  14.807  68.337  1.00  0.00     6.652 OA 
HETATM   15  O   UNL     1     -11.786  14.427  67.270  1.00  0.00    -0.384 OA 
HETATM   16  O   UNL     1     -12.638  16.717  67.671  1.00  0.00     2.143 OA 
ENDBRANCH   7  12
BRANCH   8  17
HETATM   17  C   UNL     1      -7.377  12.797  68.029  1.00  0.00    -0.117 A  
HETATM   18  C   UNL     1      -6.829  11.924  68.976  1.00  0.00    -0.105 A  
HETATM   19  C   UNL     1      -6.762  10.549  68.710  1.00  0.00    -0.054 A  
HETATM   20  C   UNL     1      -7.238  10.036  67.500  1.00  0.00    -0.089 A  
HETATM   21  C   UNL     1      -7.896  12.276  66.836  1.00  0.00    -0.045 A  
HETATM   22  C   UNL     1      -7.828  10.903  66.574  1.00  0.00    -0.152 A  
BRANCH  20  23
HETATM   23  C   UNL     1      -7.083   8.617  67.186  1.00  0.00    -0.075 C  
HETATM   24  C   UNL     1      -7.262   7.647  68.085  1.00  0.00    -0.093 C  
HETATM   25  C   UNL     1      -7.622   7.667  69.550  1.00  0.00    -0.098 C  
HETATM   26  C   UNL     1      -9.077   7.155  69.623  1.00  0.00    -0.140 C  
HETATM   27  C   UNL     1      -8.945   5.641  69.303  1.00  0.00    -0.122 C  
HETATM   28  C   UNL     1      -7.419   5.439  69.103  1.00  0.00    -0.077 C  
HETATM   29  C   UNL     1      -6.801   6.473  70.114  1.00  0.00    -0.058 C  
HETATM   30  C   UNL     1      -7.091   6.195  71.603  1.00  0.00    -0.082 C  
HETATM   31  C   UNL     1      -7.103   6.176  67.804  1.00  0.00    -0.081 C  
HETATM   32  O   UNL     1      -6.761   5.699  66.741  1.00  0.00    -0.054 OA 
HETATM   33  C   UNL     1      -5.267   6.644  69.996  1.00  0.00    -0.014 C  
BRANCH  28  34
HETATM   34  C   UNL     1      -6.880   4.028  69.227  1.00  0.00    -0.046 C  
HETATM   35  S   UNL     1      -6.479   3.484  70.881  1.00  0.00    -0.031 S  
HETATM   36  O   UNL     1      -5.401   4.288  71.415  1.00  0.00     0.000 OA 
HETATM   37  O   UNL     1      -5.777   2.089  70.455  1.00  0.00    -0.015 OA 
HETATM   38  O   UNL     1      -7.645   3.135  71.650  1.00  0.00    -0.046 OA 
ENDBRANCH  28  34
ENDBRANCH  20  23
ENDBRANCH   8  17
TORSDOF 4
ENDMDL
MODEL      132
REMARK 921   NORMALIZED FREE ENERGY PREDICTED BY IDOCK:   17.72 KCAL/MOL
REMARK 922        TOTAL FREE ENERGY PREDICTED BY IDOCK:   21.38 KCAL/MOL
REMARK 923 INTER-LIGAND FREE ENERGY PREDICTED BY IDOCK:   16.46 KCAL/MOL
REMARK 924 INTRA-LIGAND FREE ENERGY PREDICTED BY IDOCK:    4.91 KCAL/MOL
REMARK 927      BINDING AFFINITY PREDICTED BY RF-SCORE:    0.00 PKD
ROOT
HETATM    1  C   UNL     1     -10.491   7.167  65.850  1.00  0.00     1.412 C  
HETATM    2  C   UNL     1     -10.507   8.458  66.701  1.00  0.00    -0.221 C  
HETATM    3  C   UNL     1     -11.190   9.534  65.830  1.00  0.00     2.089 C  
HETATM    4  C   UNL     1     -11.163   8.266  68.094  1.00  0.00     0.564 C  
HETATM    5  C   UNL     1     -10.187   7.272  68.787  1.00  0.00    -0.188 C  
HETATM    6  C   UNL     1      -8.788   7.654  68.214  1.00  0.00    -0.125 C  
HETATM    7  C   UNL     1      -9.111   8.865  67.305  1.00  0.00    -0.153 C  
HETATM    8  C   UNL     1     -11.772  10.424  69.412  1.00  0.00    -0.231 C  
HETATM    9  C   UNL     1      -9.523   9.916  68.328  1.00  0.00    -0.139 C  
HETATM   10  O   UNL     1      -8.774  10.713  68.867  1.00  0.00    -0.149 OA 
HETATM   11  C   UNL     1     -10.937   9.625  68.733  1.00  0.00    -0.153 C  
ENDROOT
BRANCH   7  12
HETATM   12  C   UNL     1      -8.090   9.332  66.284  1.00  0.00    -0.107 C  
HETATM   13  S   UNL     1      -6.549   8.433  66.163  1.00  0.00    -0.054 S  
HETATM   14  O   UNL     1      -5.809   8.989  65.049  1.00  0.00    -0.057 OA 
HETATM   15  O   UNL     1      -6.803   7.018  66.277  1.00  0.00    -0.058 OA 
HETATM   16  O   UNL     1      -5.816   8.925  67.512  1.00  0.00    -0.042 OA 
ENDBRANCH   7  12
BRANCH   8  17
HETATM   17  C   UNL     1     -11.362  11.727  69.951  1.00  0.00    -0.201 A  
HETATM   18  C   UNL     1     -11.854  12.195  71.175  1.00  0.00     0.640 A  
HETATM   19  C   UNL     1     -11.563  13.499  71.599  1.00  0.00     1.627 A  
HETATM   20  C   UNL     1     -10.783  14.346  70.805  1.00  0.00     0.765 A  
HETATM   21  C   UNL     1     -10.543  12.560  69.178  1.00  0.00    -0.000 A  
HETATM   22  C   UNL     1     -10.253  13.861  69.604  1.00  0.00     0.505 A  
BRANCH  20  23
HETATM   23  C   UNL     1     -10.557  15.734  71.204  1.00  0.00     0.338 C  
HETATM   24  C   UNL     1      -9.953  16.629  70.421  1.00  0.00     1.219 C  
HETATM   25  C   UNL     1      -9.354  16.537  69.040  1.00  0.00    -0.239 C  
HETATM   26  C   UNL     1     -10.324  17.306  68.118  1.00  0.00    -0.357 C  
HETATM   27  C   UNL     1     -10.101  18.792  68.512  1.00  0.00    -0.444 C  
HETATM   28  C   UNL     1      -9.002  18.720  69.606  1.00  0.00     0.664 C  
HETATM   29  C   UNL     1      -8.133  17.495  69.138  1.00  0.00     0.037 C  
HETATM   30  C   UNL     1      -7.403  17.680  67.793  1.00  0.00    -0.193 C  
HETATM   31  C   UNL     1      -9.693  18.064  70.799  1.00  0.00     3.645 C  
HETATM   32  O   UNL     1      -9.969  18.566  71.870  1.00  0.00     4.245 OA 
HETATM   33  C   UNL     1      -7.056  17.050  70.158  1.00  0.00     1.160 C  
BRANCH  28  34
HETATM   34  C   UNL     1      -8.218  19.985  69.892  1.00  0.00     0.897 C  
HETATM   35  S   UNL     1      -6.439  19.839  69.814  1.00  0.00    -0.316 S  
HETATM   36  O   UNL     1      -5.974  18.934  70.844  1.00  0.00    -0.054 OA 
HETATM   37  O   UNL     1      -6.104  21.316  70.386  1.00  0.00     0.359 OA 
HETATM   38  O   UNL     1      -5.941  19.803  68.464  1.00  0.00    -0.221 OA 
ENDBRANCH  28  34
ENDBRANCH  20  23
ENDBRANCH   8  17
TORSDOF 4
ENDMDL
MODEL      133
REMARK 921   NORMALIZED FREE ENERGY PREDICTED BY IDOCK:   18.74 KCAL/MOL
REMARK 922        TOTAL FREE ENERGY PREDICTED BY IDOCK:   22.63 KCAL/MOL
REMARK 923 INTER-LIGAND FREE ENERGY PREDICTED BY IDOCK:   19.46 KCAL/MOL
REMARK 924 INTRA-LIGAND FREE ENERGY PREDICTED BY IDOCK:    3.17 KCAL/MOL
REMARK 927      BINDING AFFINITY PREDICTED BY RF-SCORE:    0.00 PKD
ROOT
HETATM    1  C   UNL     1      -6.897  17.867  68.981  1.00  0.00    -0.242 C  
HETATM    2  C   UNL     1      -7.011  16.324  69.009  1.00  0.00    -0.188 C  
HETATM    3  C   UNL     1      -5.639  15.788  68.546  1.00  0.00    -0.102 C  
HETATM    4  C   UNL     1      -7.475  15.769  70.381  1.00  0.00     1.049 C  
HETATM    5  C   UNL     1      -8.918  16.337  70.500  1.00  0.00     2.396 C  
HETATM    6  C   UNL     1      -9.438  16.360  69.029  1.00  0.00    -0.258 C  
HETATM    7  C   UNL     1      -8.257  15.744  68.240  1.00  0.00    -0.143 C  
HETATM    8  C   UNL     1      -7.184  13.213  70.770  1.00  0.00     3.001 C  
HETATM    9  C   UNL     1      -8.271  14.304  68.740  1.00  0.00    -0.102 C  
HETATM   10  O   UNL     1      -8.891  13.384  68.235  1.00  0.00    -0.178 OA 
HETATM   11  C   UNL     1      -7.607  14.285  70.085  1.00  0.00     0.721 C  
ENDROOT
BRANCH   7  12
HETATM   12  C   UNL     1      -8.199  15.896  66.732  1.00  0.00    -0.272 C  
HETATM   13  S   UNL     1      -9.681  16.425  65.882  1.00  0.00    -0.246 S  
HETATM   14  O   UNL     1      -9.338  16.611  64.487  1.00  0.00     2.438 OA 
HETATM   15  O   UNL     1     -10.336  17.456  66.647  1.00  0.00    -0.317 OA 
HETATM   16  O   UNL     1     -10.568  15.083  65.977  1.00  0.00    -0.297 OA 
ENDBRANCH   7  12
BRANCH   8  17
HETATM   17  C   UNL     1      -7.403  11.837  70.307  1.00  0.00     1.754 A  
HETATM   18  C   UNL     1      -6.625  10.776  70.786  1.00  0.00     0.391 A  
HETATM   19  C   UNL     1      -6.754   9.499  70.225  1.00  0.00    -0.084 A  
HETATM   20  C   UNL     1      -7.656   9.270  69.181  1.00  0.00    -0.073 A  
HETATM   21  C   UNL     1      -8.338  11.596  69.293  1.00  0.00     0.404 A  
HETATM   22  C   UNL     1      -8.466  10.320  68.735  1.00  0.00    -0.130 A  
BRANCH  20  23
HETATM   23  C   UNL     1      -7.723   7.960  68.535  1.00  0.00    -0.114 C  
HETATM   24  C   UNL     1      -8.551   7.686  67.526  1.00  0.00    -0.119 C  
HETATM   25  C   UNL     1      -9.584   8.512  66.800  1.00  0.00    -0.273 C  
HETATM   26  C   UNL     1      -8.979   8.800  65.409  1.00  0.00    -0.211 C  
HETATM   27  C   UNL     1      -9.045   7.425  64.692  1.00  0.00     1.000 C  
HETATM   28  C   UNL     1      -9.708   6.494  65.743  1.00  0.00     0.371 C  
HETATM   29  C   UNL     1     -10.693   7.467  66.490  1.00  0.00     0.234 C  
HETATM   30  C   UNL     1     -11.835   8.040  65.626  1.00  0.00     9.432 C  
HETATM   31  C   UNL     1      -8.658   6.348  66.841  1.00  0.00    -0.110 C  
HETATM   32  O   UNL     1      -8.031   5.354  67.147  1.00  0.00    -0.100 OA 
HETATM   33  C   UNL     1     -11.362   6.858  67.745  1.00  0.00     0.042 C  
BRANCH  28  34
HETATM   34  C   UNL     1     -10.340   5.212  65.239  1.00  0.00     0.349 C  
HETATM   35  S   UNL     1      -9.237   4.053  64.444  1.00  0.00    -0.158 S  
HETATM   36  O   UNL     1      -8.695   4.639  63.237  1.00  0.00    -0.125 OA 
HETATM   37  O   UNL     1     -10.380   3.031  63.925  1.00  0.00    -0.181 OA 
HETATM   38  O   UNL     1      -8.430   3.318  65.383  1.00  0.00    -0.097 OA 
ENDBRANCH  28  34
ENDBRANCH  20  23
ENDBRANCH   8  17
TORSDOF 4
ENDMDL
MODEL      134
REMARK 921   NORMALIZED FREE ENERGY PREDICTED BY IDOCK:   18.76 KCAL/MOL
REMARK 922        TOTAL FREE ENERGY PREDICTED BY IDOCK:   22.66 KCAL/MOL
REMARK 923 INTER-LIGAND FREE ENERGY PREDICTED BY IDOCK:   16.48 KCAL/MOL
REMARK 924 INTRA-LIGAND FREE ENERGY PREDICTED BY IDOCK:    6.18 KCAL/MOL
REMARK 927      BINDING AFFINITY PREDICTED BY RF-SCORE:    0.00 PKD
ROOT
HETATM    1  C   UNL     1     -12.122  18.936  65.284  1.00  0.00     5.655 C  
HETATM    2  C   UNL     1     -11.066  17.862  65.634  1.00  0.00     0.490 C  
HETATM    3  C   UNL     1     -10.804  17.081  64.329  1.00  0.00     1.674 C  
HETATM    4  C   UNL     1      -9.786  18.450  66.284  1.00  0.00    -0.298 C  
HETATM    5  C   UNL     1     -10.326  19.017  67.628  1.00  0.00    -0.504 C  
HETATM    6  C   UNL     1     -11.472  18.035  68.021  1.00  0.00     0.956 C  
HETATM    7  C   UNL     1     -11.418  16.979  66.890  1.00  0.00     0.918 C  
HETATM    8  C   UNL     1      -7.714  16.883  66.420  1.00  0.00    -0.345 C  
HETATM    9  C   UNL     1     -10.081  16.303  67.163  1.00  0.00    -0.268 C  
HETATM   10  O   UNL     1      -9.911  15.328  67.875  1.00  0.00    -0.215 OA 
HETATM   11  C   UNL     1      -9.003  17.192  66.618  1.00  0.00    -0.278 C  
ENDROOT
BRANCH   7  12
HETATM   12  C   UNL     1     -12.585  16.030  66.690  1.00  0.00     2.771 C  
HETATM   13  S   UNL     1     -12.320  14.568  65.695  1.00  0.00    -0.182 S  
HETATM   14  O   UNL     1     -13.531  13.775  65.758  1.00  0.00    -0.400 OA 
HETATM   15  O   UNL     1     -11.027  14.006  65.995  1.00  0.00    -0.294 OA 
HETATM   16  O   UNL     1     -12.258  15.223  64.223  1.00  0.00    -0.539 OA 
ENDBRANCH   7  12
BRANCH   8  17
HETATM   17  C   UNL     1      -7.137  15.590  66.809  1.00  0.00     0.302 A  
HETATM   18  C   UNL     1      -6.081  15.019  66.089  1.00  0.00     4.982 A  
HETATM   19  C   UNL     1      -5.644  13.721  66.390  1.00  0.00     3.861 A  
HETATM   20  C   UNL     1      -6.258  12.985  67.408  1.00  0.00    -0.082 A  
HETATM   21  C   UNL     1      -7.720  14.869  67.858  1.00  0.00    -0.151 A  
HETATM   22  C   UNL     1      -7.282  13.574  68.157  1.00  0.00    -0.117 A  
BRANCH  20  23
HETATM   23  C   UNL     1      -5.864  11.599  67.660  1.00  0.00    -0.060 C  
HETATM   24  C   UNL     1      -6.457  10.555  67.080  1.00  0.00    -0.076 C  
HETATM   25  C   UNL     1      -7.601  10.444  66.102  1.00  0.00    -0.130 C  
HETATM   26  C   UNL     1      -6.958  10.036  64.759  1.00  0.00    -0.137 C  
HETATM   27  C   UNL     1      -6.535   8.560  64.991  1.00  0.00    -0.060 C  
HETATM   28  C   UNL     1      -7.005   8.268  66.442  1.00  0.00    -0.067 C  
HETATM   29  C   UNL     1      -8.310   9.138  66.561  1.00  0.00    -0.119 C  
HETATM   30  C   UNL     1      -9.467   8.723  65.631  1.00  0.00    -0.171 C  
HETATM   31  C   UNL     1      -6.087   9.114  67.320  1.00  0.00    -0.057 C  
HETATM   32  O   UNL     1      -5.232   8.731  68.093  1.00  0.00    -0.034 OA 
HETATM   33  C   UNL     1      -8.904   9.205  67.990  1.00  0.00    -0.129 C  
BRANCH  28  34
HETATM   34  C   UNL     1      -7.171   6.815  66.842  1.00  0.00    -0.081 C  
HETATM   35  S   UNL     1      -7.551   6.514  68.561  1.00  0.00    -0.098 S  
HETATM   36  O   UNL     1      -6.451   6.952  69.393  1.00  0.00    -0.041 OA 
HETATM   37  O   UNL     1      -7.405   4.902  68.507  1.00  0.00    -0.064 OA 
HETATM   38  O   UNL     1      -8.927   6.788  68.883  1.00  0.00    -0.131 OA 
ENDBRANCH  28  34
ENDBRANCH  20  23
ENDBRANCH   8  17
TORSDOF 4
ENDMDL
MODEL      135
REMARK 921   NORMALIZED FREE ENERGY PREDICTED BY IDOCK:   18.82 KCAL/MOL
REMARK 922        TOTAL FREE ENERGY PREDICTED BY IDOCK:   22.73 KCAL/MOL
REMARK 923 INTER-LIGAND FREE ENERGY PREDICTED BY IDOCK:   16.72 KCAL/MOL
REMARK 924 INTRA-LIGAND FREE ENERGY PREDICTED BY IDOCK:    6.01 KCAL/MOL
REMARK 927      BINDING AFFINITY PREDICTED BY RF-SCORE:    0.00 PKD
ROOT
HETATM    1  C   UNL     1     -11.289  19.698  64.850  1.00  0.00     1.715 C  
HETATM    2  C   UNL     1     -10.403  18.733  65.673  1.00  0.00    -0.077 C  
HETATM    3  C   UNL     1     -10.014  17.589  64.713  1.00  0.00     2.659 C  
HETATM    4  C   UNL     1      -9.190  19.434  66.341  1.00  0.00    -0.403 C  
HETATM    5  C   UNL     1      -9.878  20.399  67.350  1.00  0.00    -0.587 C  
HETATM    6  C   UNL     1     -11.155  19.626  67.801  1.00  0.00    -0.032 C  
HETATM    7  C   UNL     1     -11.024  18.280  67.047  1.00  0.00    -0.035 C  
HETATM    8  C   UNL     1      -7.316  17.894  67.280  1.00  0.00    -0.209 C  
HETATM    9  C   UNL     1      -9.813  17.660  67.732  1.00  0.00    -0.292 C  
HETATM   10  O   UNL     1      -9.845  16.936  68.712  1.00  0.00    -0.247 OA 
HETATM   11  C   UNL     1      -8.587  18.301  67.153  1.00  0.00    -0.249 C  
ENDROOT
BRANCH   7  12
HETATM   12  C   UNL     1     -12.228  17.365  66.927  1.00  0.00     3.767 C  
HETATM   13  S   UNL     1     -11.947  15.661  66.460  1.00  0.00     0.949 S  
HETATM   14  O   UNL     1     -13.220  14.975  66.533  1.00  0.00     1.526 OA 
HETATM   15  O   UNL     1     -10.773  15.162  67.132  1.00  0.00    -0.296 OA 
HETATM   16  O   UNL     1     -11.595  15.841  64.896  1.00  0.00    -0.223 OA 
ENDBRANCH   7  12
BRANCH   8  17
HETATM   17  C   UNL     1      -6.928  16.753  68.117  1.00  0.00    -0.160 A  
HETATM   18  C   UNL     1      -5.879  15.902  67.747  1.00  0.00    -0.166 A  
HETATM   19  C   UNL     1      -5.621  14.739  68.486  1.00  0.00    -0.100 A  
HETATM   20  C   UNL     1      -6.407  14.415  69.596  1.00  0.00    -0.140 A  
HETATM   21  C   UNL     1      -7.684  16.451  69.257  1.00  0.00    -0.171 A  
HETATM   22  C   UNL     1      -7.424  15.290  69.993  1.00  0.00     0.083 A  
BRANCH  20  23
HETATM   23  C   UNL     1      -6.196  13.157  70.310  1.00  0.00    -0.004 C  
HETATM   24  C   UNL     1      -6.884  12.045  70.047  1.00  0.00     0.424 C  
HETATM   25  C   UNL     1      -7.986  11.734  69.065  1.00  0.00     0.100 C  
HETATM   26  C   UNL     1      -7.336  10.847  67.982  1.00  0.00    -0.088 C  
HETATM   27  C   UNL     1      -7.107   9.494  68.709  1.00  0.00    -0.068 C  
HETATM   28  C   UNL     1      -7.676   9.741  70.132  1.00  0.00    -0.188 C  
HETATM   29  C   UNL     1      -8.869  10.729  69.857  1.00  0.00     0.621 C  
HETATM   30  C   UNL     1     -10.024  10.150  69.016  1.00  0.00    -0.216 C  
HETATM   31  C   UNL     1      -6.703  10.733  70.766  1.00  0.00     0.577 C  
HETATM   32  O   UNL     1      -5.938  10.541  71.689  1.00  0.00    -0.309 OA 
HETATM   33  C   UNL     1      -9.516  11.319  71.134  1.00  0.00     7.083 C  
BRANCH  28  34
HETATM   34  C   UNL     1      -8.035   8.524  70.961  1.00  0.00    -0.117 C  
HETATM   35  S   UNL     1      -8.521   8.842  72.650  1.00  0.00     0.376 S  
HETATM   36  O   UNL     1      -7.412   9.413  73.383  1.00  0.00     0.368 OA 
HETATM   37  O   UNL     1      -8.572   7.295  73.125  1.00  0.00    -0.123 OA 
HETATM   38  O   UNL     1      -9.866   9.345  72.757  1.00  0.00     0.970 OA 
ENDBRANCH  28  34
ENDBRANCH  20  23
ENDBRANCH   8  17
TORSDOF 4
ENDMDL
MODEL      136
REMARK 921   NORMALIZED FREE ENERGY PREDICTED BY IDOCK:   19.24 KCAL/MOL
REMARK 922        TOTAL FREE ENERGY PREDICTED BY IDOCK:   23.26 KCAL/MOL
REMARK 923 INTER-LIGAND FREE ENERGY PREDICTED BY IDOCK:   18.42 KCAL/MOL
REMARK 924 INTRA-LIGAND FREE ENERGY PREDICTED BY IDOCK:    4.84 KCAL/MOL
REMARK 927      BINDING AFFINITY PREDICTED BY RF-SCORE:    0.00 PKD
ROOT
HETATM    1  C   UNL     1     -10.263   3.966  72.195  1.00  0.00    -0.196 C  
HETATM    2  C   UNL     1     -10.405   5.336  71.492  1.00  0.00    -0.287 C  
HETATM    3  C   UNL     1      -9.827   6.380  72.472  1.00  0.00    -0.175 C  
HETATM    4  C   UNL     1      -9.759   5.371  70.081  1.00  0.00    -0.252 C  
HETATM    5  C   UNL     1     -10.634   4.357  69.289  1.00  0.00     1.002 C  
HETATM    6  C   UNL     1     -12.055   4.517  69.911  1.00  0.00     9.638 C  
HETATM    7  C   UNL     1     -11.849   5.649  70.947  1.00  0.00     0.776 C  
HETATM    8  C   UNL     1      -9.416   7.715  69.007  1.00  0.00    -0.150 C  
HETATM    9  C   UNL     1     -11.575   6.846  70.044  1.00  0.00    -0.246 C  
HETATM   10  O   UNL     1     -12.416   7.609  69.602  1.00  0.00     1.225 OA 
HETATM   11  C   UNL     1     -10.145   6.759  69.599  1.00  0.00    -0.197 C  
ENDROOT
BRANCH   7  12
HETATM   12  C   UNL     1     -12.894   5.886  72.021  1.00  0.00     0.687 C  
HETATM   13  S   UNL     1     -13.108   7.552  72.634  1.00  0.00     0.749 S  
HETATM   14  O   UNL     1     -14.232   7.537  73.549  1.00  0.00     1.903 OA 
HETATM   15  O   UNL     1     -13.033   8.485  71.538  1.00  0.00    -0.321 OA 
HETATM   16  O   UNL     1     -11.774   7.710  73.525  1.00  0.00     0.127 OA 
ENDBRANCH   7  12
BRANCH   8  17
HETATM   17  C   UNL     1      -9.977   9.016  68.619  1.00  0.00    -0.187 A  
HETATM   18  C   UNL     1      -9.200  10.180  68.649  1.00  0.00    -0.157 A  
HETATM   19  C   UNL     1      -9.793  11.428  68.415  1.00  0.00    -0.205 A  
HETATM   20  C   UNL     1     -11.163  11.525  68.151  1.00  0.00    -0.335 A  
HETATM   21  C   UNL     1     -11.339   9.109  68.309  1.00  0.00     0.487 A  
HETATM   22  C   UNL     1     -11.929  10.357  68.075  1.00  0.00     0.855 A  
BRANCH  20  23
HETATM   23  C   UNL     1     -11.797  12.833  67.998  1.00  0.00    -0.386 C  
HETATM   24  C   UNL     1     -11.191  13.979  68.314  1.00  0.00    -0.293 C  
HETATM   25  C   UNL     1      -9.828  14.290  68.880  1.00  0.00    -0.140 C  
HETATM   26  C   UNL     1      -9.028  14.908  67.713  1.00  0.00    -0.177 C  
HETATM   27  C   UNL     1      -9.673  16.309  67.531  1.00  0.00    -0.234 C  
HETATM   28  C   UNL     1     -10.764  16.357  68.635  1.00  0.00    -0.317 C  
HETATM   29  C   UNL     1     -10.115  15.515  69.794  1.00  0.00    -0.291 C  
HETATM   30  C   UNL     1      -8.837  16.117  70.412  1.00  0.00     1.878 C  
HETATM   31  C   UNL     1     -11.813  15.345  68.181  1.00  0.00    -0.160 C  
HETATM   32  O   UNL     1     -12.946  15.563  67.804  1.00  0.00     1.836 OA 
HETATM   33  C   UNL     1     -11.068  15.216  70.977  1.00  0.00    -0.283 C  
BRANCH  28  34
HETATM   34  C   UNL     1     -11.277  17.721  69.050  1.00  0.00     1.117 C  
HETATM   35  S   UNL     1     -10.678  19.108  68.097  1.00  0.00     0.008 S  
HETATM   36  O   UNL     1      -9.247  19.239  68.265  1.00  0.00    -0.314 OA 
HETATM   37  O   UNL     1     -11.308  20.267  69.034  1.00  0.00     1.447 OA 
HETATM   38  O   UNL     1     -11.324  19.224  66.815  1.00  0.00    -0.012 OA 
ENDBRANCH  28  34
ENDBRANCH  20  23
ENDBRANCH   8  17
TORSDOF 4
ENDMDL
MODEL      137
REMARK 921   NORMALIZED FREE ENERGY PREDICTED BY IDOCK:   23.74 KCAL/MOL
REMARK 922        TOTAL FREE ENERGY PREDICTED BY IDOCK:   28.80 KCAL/MOL
REMARK 923 INTER-LIGAND FREE ENERGY PREDICTED BY IDOCK:   26.70 KCAL/MOL
REMARK 924 INTRA-LIGAND FREE ENERGY PREDICTED BY IDOCK:    2.09 KCAL/MOL
REMARK 927      BINDING AFFINITY PREDICTED BY RF-SCORE:    0.00 PKD
ROOT
HETATM    1  C   UNL     1     -12.904  18.345  65.765  1.00  0.00    11.053 C  
HETATM    2  C   UNL     1     -12.656  16.853  66.091  1.00  0.00     5.262 C  
HETATM    3  C   UNL     1     -13.605  16.508  67.258  1.00  0.00     7.616 C  
HETATM    4  C   UNL     1     -12.809  15.923  64.858  1.00  0.00     1.576 C  
HETATM    5  C   UNL     1     -11.644  16.392  63.940  1.00  0.00     0.917 C  
HETATM    6  C   UNL     1     -10.520  16.808  64.938  1.00  0.00     0.247 C  
HETATM    7  C   UNL     1     -11.145  16.472  66.315  1.00  0.00     0.237 C  
HETATM    8  C   UNL     1     -12.979  13.371  65.329  1.00  0.00    -0.258 C  
HETATM    9  C   UNL     1     -11.210  14.951  66.260  1.00  0.00    -0.331 C  
HETATM   10  O   UNL     1     -10.337  14.189  66.639  1.00  0.00    -0.270 OA 
HETATM   11  C   UNL     1     -12.405  14.577  65.434  1.00  0.00    -0.286 C  
ENDROOT
BRANCH   7  12
HETATM   12  C   UNL     1     -10.528  17.040  67.579  1.00  0.00    -0.334 C  
HETATM   13  S   UNL     1      -8.940  16.403  68.100  1.00  0.00    -0.201 S  
HETATM   14  O   UNL     1      -8.516  17.181  69.247  1.00  0.00    -0.061 OA 
HETATM   15  O   UNL     1      -8.091  16.220  66.950  1.00  0.00    -0.186 OA 
HETATM   16  O   UNL     1      -9.372  14.950  68.647  1.00  0.00    -0.183 OA 
ENDBRANCH   7  12
BRANCH   8  17
HETATM   17  C   UNL     1     -12.433  12.172  65.978  1.00  0.00     0.726 A  
HETATM   18  C   UNL     1     -12.624  11.934  67.344  1.00  0.00     1.950 A  
HETATM   19  C   UNL     1     -11.974  10.861  67.970  1.00  0.00     0.132 A  
HETATM   20  C   UNL     1     -11.128  10.021  67.239  1.00  0.00    -0.116 A  
HETATM   21  C   UNL     1     -11.622  11.302  65.238  1.00  0.00     0.252 A  
HETATM   22  C   UNL     1     -10.974  10.232  65.865  1.00  0.00     0.296 A  
BRANCH  20  23
HETATM   23  C   UNL     1     -10.379   8.960  67.911  1.00  0.00    -0.286 C  
HETATM   24  C   UNL     1      -9.441   8.233  67.304  1.00  0.00    -0.193 C  
HETATM   25  C   UNL     1      -8.902   8.233  65.894  1.00  0.00    -0.197 C  
HETATM   26  C   UNL     1      -7.487   8.842  65.995  1.00  0.00    -0.090 C  
HETATM   27  C   UNL     1      -6.661   7.731  66.698  1.00  0.00    -0.054 C  
HETATM   28  C   UNL     1      -7.689   6.586  66.906  1.00  0.00    -0.100 C  
HETATM   29  C   UNL     1      -8.616   6.725  65.643  1.00  0.00    -0.126 C  
HETATM   30  C   UNL     1      -7.930   6.461  64.288  1.00  0.00    -0.102 C  
HETATM   31  C   UNL     1      -8.655   7.125  67.957  1.00  0.00    -0.128 C  
HETATM   32  O   UNL     1      -8.805   6.741  69.099  1.00  0.00    -0.133 OA 
HETATM   33  C   UNL     1      -9.876   5.826  65.674  1.00  0.00     0.256 C  
BRANCH  28  34
HETATM   34  C   UNL     1      -7.142   5.192  67.143  1.00  0.00    -0.069 C  
HETATM   35  S   UNL     1      -6.386   4.907  68.736  1.00  0.00    -0.036 S  
HETATM   36  O   UNL     1      -5.212   5.741  68.880  1.00  0.00    -0.003 OA 
HETATM   37  O   UNL     1      -5.803   3.433  68.406  1.00  0.00    -0.022 OA 
HETATM   38  O   UNL     1      -7.353   4.736  69.789  1.00  0.00    -0.053 OA 
ENDBRANCH  28  34
ENDBRANCH  20  23
ENDBRANCH   8  17
TORSDOF 4
ENDMDL
MODEL      138
REMARK 921   NORMALIZED FREE ENERGY PREDICTED BY IDOCK:   24.12 KCAL/MOL
REMARK 922        TOTAL FREE ENERGY PREDICTED BY IDOCK:   29.27 KCAL/MOL
REMARK 923 INTER-LIGAND FREE ENERGY PREDICTED BY IDOCK:   24.72 KCAL/MOL
REMARK 924 INTRA-LIGAND FREE ENERGY PREDICTED BY IDOCK:    4.55 KCAL/MOL
REMARK 927      BINDING AFFINITY PREDICTED BY RF-SCORE:    0.00 PKD
ROOT
HETATM    1  C   UNL     1      -8.112  18.941  66.996  1.00  0.00    -0.272 C  
HETATM    2  C   UNL     1      -8.487  17.555  67.573  1.00  0.00    -0.216 C  
HETATM    3  C   UNL     1      -7.196  16.994  68.206  1.00  0.00    -0.196 C  
HETATM    4  C   UNL     1      -9.697  17.602  68.543  1.00  0.00    -0.328 C  
HETATM    5  C   UNL     1     -10.859  18.039  67.605  1.00  0.00    -0.257 C  
HETATM    6  C   UNL     1     -10.505  17.385  66.234  1.00  0.00    -0.276 C  
HETATM    7  C   UNL     1      -9.213  16.595  66.557  1.00  0.00    -0.297 C  
HETATM    8  C   UNL     1     -10.103  15.495  70.013  1.00  0.00    -0.241 C  
HETATM    9  C   UNL     1      -9.738  15.513  67.492  1.00  0.00    -0.215 C  
HETATM   10  O   UNL     1     -10.143  14.416  67.150  1.00  0.00    -0.249 OA 
HETATM   11  C   UNL     1      -9.905  16.129  68.849  1.00  0.00    -0.239 C  
ENDROOT
BRANCH   7  12
HETATM   12  C   UNL     1      -8.337  16.092  65.425  1.00  0.00     2.183 C  
HETATM   13  S   UNL     1      -8.704  14.486  64.727  1.00  0.00     5.719 S  
HETATM   14  O   UNL     1      -7.817  14.290  63.598  1.00  0.00    13.104 OA 
HETATM   15  O   UNL     1     -10.132  14.324  64.609  1.00  0.00    -0.318 OA 
HETATM   16  O   UNL     1      -8.182  13.525  65.912  1.00  0.00     1.404 OA 
ENDBRANCH   7  12
BRANCH   8  17
HETATM   17  C   UNL     1     -10.276  14.040  70.106  1.00  0.00     1.184 A  
HETATM   18  C   UNL     1      -9.177  13.173  70.064  1.00  0.00     3.254 A  
HETATM   19  C   UNL     1      -9.376  11.787  70.009  1.00  0.00     2.599 A  
HETATM   20  C   UNL     1     -10.669  11.256  69.993  1.00  0.00     0.266 A  
HETATM   21  C   UNL     1     -11.570  13.505  70.137  1.00  0.00    -0.190 A  
HETATM   22  C   UNL     1     -11.765  12.120  70.083  1.00  0.00    -0.301 A  
BRANCH  20  23
HETATM   23  C   UNL     1     -10.876   9.816  69.843  1.00  0.00    -0.306 C  
HETATM   24  C   UNL     1     -10.515   8.927  70.769  1.00  0.00    -0.283 C  
HETATM   25  C   UNL     1      -9.842   9.068  72.113  1.00  0.00    -0.084 C  
HETATM   26  C   UNL     1     -10.943   8.783  73.157  1.00  0.00     1.280 C  
HETATM   27  C   UNL     1     -11.179   7.254  73.029  1.00  0.00    -0.309 C  
HETATM   28  C   UNL     1     -10.167   6.816  71.936  1.00  0.00    -0.206 C  
HETATM   29  C   UNL     1      -8.957   7.791  72.181  1.00  0.00    -0.182 C  
HETATM   30  C   UNL     1      -8.241   7.628  73.536  1.00  0.00    -0.206 C  
HETATM   31  C   UNL     1     -10.701   7.437  70.648  1.00  0.00    -0.229 C  
HETATM   32  O   UNL     1     -11.168   6.866  69.683  1.00  0.00    -0.273 OA 
HETATM   33  C   UNL     1      -7.854   7.723  71.097  1.00  0.00    -0.089 C  
BRANCH  28  34
HETATM   34  C   UNL     1      -9.798   5.347  71.876  1.00  0.00    -0.171 C  
HETATM   35  S   UNL     1      -8.084   4.983  71.530  1.00  0.00    -0.115 S  
HETATM   36  O   UNL     1      -7.737   5.456  70.208  1.00  0.00    -0.073 OA 
HETATM   37  O   UNL     1      -8.262   3.383  71.359  1.00  0.00    -0.062 OA 
HETATM   38  O   UNL     1      -7.232   5.177  72.675  1.00  0.00    -0.086 OA 
ENDBRANCH  28  34
ENDBRANCH  20  23
ENDBRANCH   8  17
TORSDOF 4
ENDMDL
MODEL      139
REMARK 921   NORMALIZED FREE ENERGY PREDICTED BY IDOCK:   24.88 KCAL/MOL
REMARK 922        TOTAL FREE ENERGY PREDICTED BY IDOCK:   30.21 KCAL/MOL
REMARK 923 INTER-LIGAND FREE ENERGY PREDICTED BY IDOCK:   23.35 KCAL/MOL
REMARK 924 INTRA-LIGAND FREE ENERGY PREDICTED BY IDOCK:    6.86 KCAL/MOL
REMARK 927      BINDING AFFINITY PREDICTED BY RF-SCORE:    0.00 PKD
ROOT
HETATM    1  C   UNL     1     -10.450   4.754  64.454  1.00  0.00     0.511 C  
HETATM    2  C   UNL     1     -10.267   6.257  64.774  1.00  0.00     3.126 C  
HETATM    3  C   UNL     1     -10.149   6.972  63.411  1.00  0.00     6.582 C  
HETATM    4  C   UNL     1     -11.380   6.828  65.692  1.00  0.00     4.304 C  
HETATM    5  C   UNL     1     -11.153   6.046  67.017  1.00  0.00    -0.263 C  
HETATM    6  C   UNL     1      -9.609   5.834  67.072  1.00  0.00    -0.145 C  
HETATM    7  C   UNL     1      -9.118   6.574  65.804  1.00  0.00    -0.009 C  
HETATM    8  C   UNL     1     -11.538   9.418  65.870  1.00  0.00     4.341 C  
HETATM    9  C   UNL     1      -9.424   8.025  66.155  1.00  0.00    -0.122 C  
HETATM   10  O   UNL     1      -8.663   8.795  66.715  1.00  0.00    -0.119 OA 
HETATM   11  C   UNL     1     -10.890   8.247  65.926  1.00  0.00     2.542 C  
ENDROOT
BRANCH   7  12
HETATM   12  C   UNL     1      -7.714   6.326  65.283  1.00  0.00    -0.096 C  
HETATM   13  S   UNL     1      -6.398   7.380  65.878  1.00  0.00    -0.042 S  
HETATM   14  O   UNL     1      -5.155   6.869  65.337  1.00  0.00    -0.022 OA 
HETATM   15  O   UNL     1      -6.570   7.621  67.289  1.00  0.00    -0.059 OA 
HETATM   16  O   UNL     1      -6.734   8.744  65.087  1.00  0.00    -0.064 OA 
ENDBRANCH   7  12
BRANCH   8  17
HETATM   17  C   UNL     1     -10.877  10.705  66.122  1.00  0.00    -0.069 A  
HETATM   18  C   UNL     1      -9.606  10.984  65.605  1.00  0.00    -0.265 A  
HETATM   19  C   UNL     1      -8.936  12.157  65.977  1.00  0.00     0.017 A  
HETATM   20  C   UNL     1      -9.526  13.058  66.869  1.00  0.00    -0.242 A  
HETATM   21  C   UNL     1     -11.486  11.631  66.979  1.00  0.00    -0.336 A  
HETATM   22  C   UNL     1     -10.815  12.802  67.348  1.00  0.00    -0.265 A  
BRANCH  20  23
HETATM   23  C   UNL     1      -8.789  14.234  67.328  1.00  0.00    -0.224 C  
HETATM   24  C   UNL     1      -9.374  15.279  67.915  1.00  0.00    -0.189 C  
HETATM   25  C   UNL     1     -10.812  15.586  68.255  1.00  0.00    -0.292 C  
HETATM   26  C   UNL     1     -10.909  15.456  69.790  1.00  0.00    -0.297 C  
HETATM   27  C   UNL     1     -10.141  16.702  70.310  1.00  0.00     0.763 C  
HETATM   28  C   UNL     1      -9.703  17.431  69.011  1.00  0.00    -0.195 C  
HETATM   29  C   UNL     1     -10.891  17.122  68.028  1.00  0.00    -0.317 C  
HETATM   30  C   UNL     1     -12.253  17.720  68.431  1.00  0.00     3.703 C  
HETATM   31  C   UNL     1      -8.652  16.512  68.392  1.00  0.00    -0.213 C  
HETATM   32  O   UNL     1      -7.461  16.717  68.269  1.00  0.00    -0.172 OA 
HETATM   33  C   UNL     1     -10.639  17.562  66.565  1.00  0.00    -0.191 C  
BRANCH  28  34
HETATM   34  C   UNL     1      -9.335  18.897  69.125  1.00  0.00    -0.108 C  
HETATM   35  S   UNL     1     -10.226  20.014  68.052  1.00  0.00    -0.352 S  
HETATM   36  O   UNL     1      -9.924  19.713  66.669  1.00  0.00    -0.356 OA 
HETATM   37  O   UNL     1      -9.349  21.333  68.385  1.00  0.00     0.812 OA 
HETATM   38  O   UNL     1     -11.561  20.285  68.516  1.00  0.00     1.675 OA 
ENDBRANCH  28  34
ENDBRANCH  20  23
ENDBRANCH   8  17
TORSDOF 4
ENDMDL
MODEL      140
REMARK 921   NORMALIZED FREE ENERGY PREDICTED BY IDOCK:   25.96 KCAL/MOL
REMARK 922        TOTAL FREE ENERGY PREDICTED BY IDOCK:   31.54 KCAL/MOL
REMARK 923 INTER-LIGAND FREE ENERGY PREDICTED BY IDOCK:   25.11 KCAL/MOL
REMARK 924 INTRA-LIGAND FREE ENERGY PREDICTED BY IDOCK:    6.43 KCAL/MOL
REMARK 927      BINDING AFFINITY PREDICTED BY RF-SCORE:    0.00 PKD
ROOT
HETATM    1  C   UNL     1     -10.885   5.113  67.038  1.00  0.00     0.053 C  
HETATM    2  C   UNL     1     -10.216   6.461  67.398  1.00  0.00    -0.223 C  
HETATM    3  C   UNL     1     -11.018   7.030  68.589  1.00  0.00    -0.144 C  
HETATM    4  C   UNL     1      -8.693   6.338  67.665  1.00  0.00    -0.113 C  
HETATM    5  C   UNL     1      -8.144   5.911  66.273  1.00  0.00    -0.104 C  
HETATM    6  C   UNL     1      -9.083   6.635  65.259  1.00  0.00     0.337 C  
HETATM    7  C   UNL     1     -10.025   7.445  66.183  1.00  0.00     0.163 C  
HETATM    8  C   UNL     1      -7.536   8.366  68.811  1.00  0.00    -0.092 C  
HETATM    9  C   UNL     1      -9.067   8.469  66.777  1.00  0.00    -0.151 C  
HETATM   10  O   UNL     1      -8.826   9.570  66.311  1.00  0.00    -0.141 OA 
HETATM   11  C   UNL     1      -8.297   7.790  67.870  1.00  0.00    -0.123 C  
ENDROOT
BRANCH   7  12
HETATM   12  C   UNL     1     -11.312   8.022  65.625  1.00  0.00     6.243 C  
HETATM   13  S   UNL     1     -11.204   9.479  64.593  1.00  0.00     6.716 S  
HETATM   14  O   UNL     1     -12.535   9.756  64.093  1.00  0.00     8.478 OA 
HETATM   15  O   UNL     1     -10.069   9.365  63.712  1.00  0.00     1.292 OA 
HETATM   16  O   UNL     1     -10.871  10.600  65.704  1.00  0.00    -0.095 OA 
ENDBRANCH   7  12
BRANCH   8  17
HETATM   17  C   UNL     1      -7.274   9.810  68.847  1.00  0.00    -0.072 A  
HETATM   18  C   UNL     1      -7.229  10.570  67.671  1.00  0.00    -0.086 A  
HETATM   19  C   UNL     1      -6.835  11.915  67.717  1.00  0.00    -0.094 A  
HETATM   20  C   UNL     1      -6.481  12.510  68.932  1.00  0.00    -0.091 A  
HETATM   21  C   UNL     1      -6.964  10.420  70.069  1.00  0.00    -0.159 A  
HETATM   22  C   UNL     1      -6.572  11.763  70.112  1.00  0.00     0.189 A  
BRANCH  20  23
HETATM   23  C   UNL     1      -5.983  13.884  68.966  1.00  0.00    -0.086 C  
HETATM   24  C   UNL     1      -6.782  14.947  69.075  1.00  0.00    -0.117 C  
HETATM   25  C   UNL     1      -8.280  15.092  69.172  1.00  0.00    -0.214 C  
HETATM   26  C   UNL     1      -8.560  15.507  70.633  1.00  0.00     1.897 C  
HETATM   27  C   UNL     1      -8.049  16.972  70.699  1.00  0.00     4.333 C  
HETATM   28  C   UNL     1      -7.550  17.253  69.256  1.00  0.00     0.003 C  
HETATM   29  C   UNL     1      -8.543  16.404  68.379  1.00  0.00    -0.209 C  
HETATM   30  C   UNL     1     -10.017  16.852  68.431  1.00  0.00    -0.275 C  
HETATM   31  C   UNL     1      -6.309  16.377  69.103  1.00  0.00    -0.177 C  
HETATM   32  O   UNL     1      -5.153  16.734  68.996  1.00  0.00    -0.124 OA 
HETATM   33  C   UNL     1      -8.166  16.327  66.880  1.00  0.00    -0.261 C  
BRANCH  28  34
HETATM   34  C   UNL     1      -7.410  18.702  68.835  1.00  0.00    -0.273 C  
HETATM   35  S   UNL     1      -8.292  19.178  67.357  1.00  0.00    -0.285 S  
HETATM   36  O   UNL     1      -7.764  18.461  66.216  1.00  0.00    -0.246 OA 
HETATM   37  O   UNL     1      -7.662  20.664  67.233  1.00  0.00    -0.330 OA 
HETATM   38  O   UNL     1      -9.703  19.352  67.582  1.00  0.00    -0.307 OA 
ENDBRANCH  28  34
ENDBRANCH  20  23
ENDBRANCH   8  17
TORSDOF 4
ENDMDL
MODEL      141
REMARK 921   NORMALIZED FREE ENERGY PREDICTED BY IDOCK:   26.59 KCAL/MOL
REMARK 922        TOTAL FREE ENERGY PREDICTED BY IDOCK:   32.32 KCAL/MOL
REMARK 923 INTER-LIGAND FREE ENERGY PREDICTED BY IDOCK:   29.36 KCAL/MOL
REMARK 924 INTRA-LIGAND FREE ENERGY PREDICTED BY IDOCK:    2.96 KCAL/MOL
REMARK 927      BINDING AFFINITY PREDICTED BY RF-SCORE:    0.00 PKD
ROOT
HETATM    1  C   UNL     1      -7.975  19.057  66.740  1.00  0.00    -0.270 C  
HETATM    2  C   UNL     1      -8.247  17.580  67.109  1.00  0.00    -0.229 C  
HETATM    3  C   UNL     1      -7.021  17.110  67.921  1.00  0.00    -0.173 C  
HETATM    4  C   UNL     1      -9.603  17.369  67.835  1.00  0.00    -0.267 C  
HETATM    5  C   UNL     1     -10.633  17.766  66.739  1.00  0.00    -0.235 C  
HETATM    6  C   UNL     1      -9.957  17.320  65.406  1.00  0.00     0.328 C  
HETATM    7  C   UNL     1      -8.644  16.661  65.893  1.00  0.00    -0.072 C  
HETATM    8  C   UNL     1      -9.960  15.074  69.007  1.00  0.00    -0.246 C  
HETATM    9  C   UNL     1      -9.167  15.424  66.611  1.00  0.00    -0.275 C  
HETATM   10  O   UNL     1      -9.349  14.331  66.102  1.00  0.00    -0.252 OA 
HETATM   11  C   UNL     1      -9.653  15.856  67.963  1.00  0.00    -0.211 C  
ENDROOT
BRANCH   7  12
HETATM   12  C   UNL     1      -7.522  16.399  64.904  1.00  0.00     6.671 C  
HETATM   13  S   UNL     1      -6.049  15.580  65.501  1.00  0.00     9.126 S  
HETATM   14  O   UNL     1      -5.193  15.339  64.358  1.00  0.00    12.365 OA 
HETATM   15  O   UNL     1      -6.417  14.524  66.412  1.00  0.00     1.929 OA 
HETATM   16  O   UNL     1      -5.376  16.771  66.354  1.00  0.00    -0.354 OA 
ENDBRANCH   7  12
BRANCH   8  17
HETATM   17  C   UNL     1      -9.941  13.608  68.935  1.00  0.00    -0.014 A  
HETATM   18  C   UNL     1      -8.772  12.882  69.192  1.00  0.00     0.694 A  
HETATM   19  C   UNL     1      -8.741  11.498  68.977  1.00  0.00     0.134 A  
HETATM   20  C   UNL     1      -9.872  10.828  68.501  1.00  0.00    -0.182 A  
HETATM   21  C   UNL     1     -11.087  12.929  68.503  1.00  0.00    -0.299 A  
HETATM   22  C   UNL     1     -11.054  11.547  68.289  1.00  0.00    -0.295 A  
BRANCH  20  23
HETATM   23  C   UNL     1      -9.811   9.401  68.189  1.00  0.00    -0.183 C  
HETATM   24  C   UNL     1      -9.828   8.449  69.123  1.00  0.00    -0.183 C  
HETATM   25  C   UNL     1      -9.892   8.498  70.630  1.00  0.00    -0.218 C  
HETATM   26  C   UNL     1     -11.313   8.020  70.998  1.00  0.00    -0.294 C  
HETATM   27  C   UNL     1     -11.278   6.499  70.686  1.00  0.00    -0.386 C  
HETATM   28  C   UNL     1      -9.825   6.259  70.193  1.00  0.00    -0.201 C  
HETATM   29  C   UNL     1      -9.000   7.294  71.043  1.00  0.00    -0.149 C  
HETATM   30  C   UNL     1      -8.996   7.043  72.565  1.00  0.00    -0.144 C  
HETATM   31  C   UNL     1      -9.757   6.970  68.844  1.00  0.00    -0.144 C  
HETATM   32  O   UNL     1      -9.641   6.471  67.743  1.00  0.00    -0.123 OA 
HETATM   33  C   UNL     1      -7.516   7.427  70.622  1.00  0.00    -0.078 C  
BRANCH  28  34
HETATM   34  C   UNL     1      -9.300   4.838  70.235  1.00  0.00    -0.151 C  
HETATM   35  S   UNL     1      -9.690   3.816  68.823  1.00  0.00     0.092 S  
HETATM   36  O   UNL     1     -11.122   3.627  68.733  1.00  0.00     3.845 OA 
HETATM   37  O   UNL     1      -9.131   2.426  69.436  1.00  0.00    -0.097 OA 
HETATM   38  O   UNL     1      -8.871   4.114  67.676  1.00  0.00    -0.104 OA 
ENDBRANCH  28  34
ENDBRANCH  20  23
ENDBRANCH   8  17
TORSDOF 4
ENDMDL
MODEL      142
REMARK 921   NORMALIZED FREE ENERGY PREDICTED BY IDOCK:   29.90 KCAL/MOL
REMARK 922        TOTAL FREE ENERGY PREDICTED BY IDOCK:   36.40 KCAL/MOL
REMARK 923 INTER-LIGAND FREE ENERGY PREDICTED BY IDOCK:   31.14 KCAL/MOL
REMARK 924 INTRA-LIGAND FREE ENERGY PREDICTED BY IDOCK:    5.26 KCAL/MOL
REMARK 927      BINDING AFFINITY PREDICTED BY RF-SCORE:    0.00 PKD
ROOT
HETATM    1  C   UNL     1     -12.537   5.181  70.061  1.00  0.00     8.445 C  
HETATM    2  C   UNL     1     -11.820   6.551  70.085  1.00  0.00    -0.331 C  
HETATM    3  C   UNL     1     -11.750   7.022  68.617  1.00  0.00     0.733 C  
HETATM    4  C   UNL     1     -12.485   7.574  71.044  1.00  0.00    -0.243 C  
HETATM    5  C   UNL     1     -12.265   6.916  72.437  1.00  0.00    -0.067 C  
HETATM    6  C   UNL     1     -10.893   6.188  72.299  1.00  0.00    -0.284 C  
HETATM    7  C   UNL     1     -10.450   6.562  70.863  1.00  0.00    -0.263 C  
HETATM    8  C   UNL     1     -11.761  10.060  70.792  1.00  0.00    -0.437 C  
HETATM    9  C   UNL     1     -10.197   8.058  70.999  1.00  0.00    -0.190 C  
HETATM   10  O   UNL     1      -9.134   8.574  71.299  1.00  0.00    -0.160 OA 
HETATM   11  C   UNL     1     -11.527   8.750  70.954  1.00  0.00    -0.330 C  
ENDROOT
BRANCH   7  12
HETATM   12  C   UNL     1      -9.334   5.784  70.192  1.00  0.00    -0.155 C  
HETATM   13  S   UNL     1      -8.952   6.161  68.486  1.00  0.00    -0.114 S  
HETATM   14  O   UNL     1      -7.787   5.382  68.120  1.00  0.00    -0.090 OA 
HETATM   15  O   UNL     1      -9.009   7.587  68.281  1.00  0.00    -0.131 OA 
HETATM   16  O   UNL     1     -10.220   5.493  67.748  1.00  0.00    -0.168 OA 
ENDBRANCH   7  12
BRANCH   8  17
HETATM   17  C   UNL     1     -10.684  11.055  70.718  1.00  0.00     1.344 A  
HETATM   18  C   UNL     1     -10.744  12.247  71.450  1.00  0.00     6.245 A  
HETATM   19  C   UNL     1      -9.779  13.244  71.252  1.00  0.00     9.587 A  
HETATM   20  C   UNL     1      -8.749  13.061  70.324  1.00  0.00     4.654 A  
HETATM   21  C   UNL     1      -9.627  10.854  69.822  1.00  0.00     0.430 A  
HETATM   22  C   UNL     1      -8.663  11.850  69.628  1.00  0.00     1.572 A  
BRANCH  20  23
HETATM   23  C   UNL     1      -7.797  14.137  70.053  1.00  0.00     0.932 C  
HETATM   24  C   UNL     1      -8.098  15.208  69.318  1.00  0.00    -0.217 C  
HETATM   25  C   UNL     1      -9.351  15.629  68.590  1.00  0.00    -0.201 C  
HETATM   26  C   UNL     1      -9.933  16.798  69.412  1.00  0.00    -0.140 C  
HETATM   27  C   UNL     1      -8.946  17.964  69.137  1.00  0.00     0.108 C  
HETATM   28  C   UNL     1      -7.909  17.345  68.160  1.00  0.00    -0.234 C  
HETATM   29  C   UNL     1      -8.784  16.337  67.327  1.00  0.00    -0.200 C  
HETATM   30  C   UNL     1      -9.881  16.981  66.455  1.00  0.00    -0.305 C  
HETATM   31  C   UNL     1      -7.143  16.332  69.008  1.00  0.00    -0.196 C  
HETATM   32  O   UNL     1      -5.982  16.380  69.359  1.00  0.00    -0.144 OA 
HETATM   33  C   UNL     1      -7.971  15.412  66.389  1.00  0.00     0.265 C  
BRANCH  28  34
HETATM   34  C   UNL     1      -7.075  18.300  67.331  1.00  0.00    -0.200 C  
HETATM   35  S   UNL     1      -6.333  17.617  65.857  1.00  0.00    -0.107 S  
HETATM   36  O   UNL     1      -5.381  16.588  66.217  1.00  0.00    -0.196 OA 
HETATM   37  O   UNL     1      -5.424  18.905  65.489  1.00  0.00    -0.152 OA 
HETATM   38  O   UNL     1      -7.276  17.462  64.780  1.00  0.00     2.085 OA 
ENDBRANCH  28  34
ENDBRANCH  20  23
ENDBRANCH   8  17
TORSDOF 4
ENDMDL
MODEL      143
REMARK 921   NORMALIZED FREE ENERGY PREDICTED BY IDOCK:   37.79 KCAL/MOL
REMARK 922        TOTAL FREE ENERGY PREDICTED BY IDOCK:   46.13 KCAL/MOL
REMARK 923 INTER-LIGAND FREE ENERGY PREDICTED BY IDOCK:   39.30 KCAL/MOL
REMARK 924 INTRA-LIGAND FREE ENERGY PREDICTED BY IDOCK:    6.83 KCAL/MOL
REMARK 927      BINDING AFFINITY PREDICTED BY RF-SCORE:    0.00 PKD
ROOT
HETATM    1  C   UNL     1      -7.226   5.036  67.096  1.00  0.00    -0.077 C  
HETATM    2  C   UNL     1      -7.700   6.506  67.182  1.00  0.00    -0.100 C  
HETATM    3  C   UNL     1      -6.697   7.223  68.112  1.00  0.00    -0.058 C  
HETATM    4  C   UNL     1      -7.864   7.179  65.793  1.00  0.00    -0.109 C  
HETATM    5  C   UNL     1      -9.026   6.359  65.162  1.00  0.00     0.252 C  
HETATM    6  C   UNL     1      -9.930   5.985  66.376  1.00  0.00    -0.145 C  
HETATM    7  C   UNL     1      -9.218   6.687  67.559  1.00  0.00    -0.114 C  
HETATM    8  C   UNL     1      -8.106   9.769  65.767  1.00  0.00    -0.119 C  
HETATM    9  C   UNL     1      -9.437   8.156  67.223  1.00  0.00    -0.155 C  
HETATM   10  O   UNL     1     -10.382   8.835  67.586  1.00  0.00    -0.226 OA 
HETATM   11  C   UNL     1      -8.435   8.535  66.173  1.00  0.00    -0.139 C  
ENDROOT
BRANCH   7  12
HETATM   12  C   UNL     1      -9.568   6.299  68.984  1.00  0.00    -0.127 C  
HETATM   13  S   UNL     1      -9.748   7.605  70.192  1.00  0.00    -0.179 S  
HETATM   14  O   UNL     1     -10.196   6.996  71.427  1.00  0.00    -0.197 OA 
HETATM   15  O   UNL     1     -10.441   8.721  69.598  1.00  0.00    -0.213 OA 
HETATM   16  O   UNL     1      -8.205   8.023  70.403  1.00  0.00    -0.113 OA 
ENDBRANCH   7  12
BRANCH   8  17
HETATM   17  C   UNL     1      -8.779  10.975  66.265  1.00  0.00    -0.178 A  
HETATM   18  C   UNL     1      -8.333  12.255  65.911  1.00  0.00     0.694 A  
HETATM   19  C   UNL     1      -8.899  13.388  66.512  1.00  0.00     0.005 A  
HETATM   20  C   UNL     1      -9.910  13.254  67.469  1.00  0.00    -0.220 A  
HETATM   21  C   UNL     1      -9.823  10.844  67.189  1.00  0.00    -0.213 A  
HETATM   22  C   UNL     1     -10.386  11.977  67.786  1.00  0.00    -0.210 A  
BRANCH  20  23
HETATM   23  C   UNL     1     -10.434  14.430  68.161  1.00  0.00    -0.237 C  
HETATM   24  C   UNL     1      -9.802  15.022  69.175  1.00  0.00    -0.223 C  
HETATM   25  C   UNL     1      -8.506  14.720  69.886  1.00  0.00     0.432 C  
HETATM   26  C   UNL     1      -7.525  15.827  69.442  1.00  0.00    -0.216 C  
HETATM   27  C   UNL     1      -8.052  17.093  70.170  1.00  0.00     2.311 C  
HETATM   28  C   UNL     1      -9.270  16.572  70.979  1.00  0.00     4.458 C  
HETATM   29  C   UNL     1      -8.830  15.109  71.356  1.00  0.00     3.791 C  
HETATM   30  C   UNL     1      -7.606  15.008  72.288  1.00  0.00     5.007 C  
HETATM   31  C   UNL     1     -10.314  16.228  69.920  1.00  0.00    -0.160 C  
HETATM   32  O   UNL     1     -11.374  16.782  69.709  1.00  0.00    -0.045 OA 
HETATM   33  C   UNL     1      -9.944  14.255  72.009  1.00  0.00     5.660 C  
BRANCH  28  34
HETATM   34  C   UNL     1      -9.745  17.414  72.147  1.00  0.00     9.179 C  
HETATM   35  S   UNL     1     -11.477  17.850  72.145  1.00  0.00     3.671 S  
HETATM   36  O   UNL     1     -11.772  18.689  71.003  1.00  0.00     5.472 OA 
HETATM   37  O   UNL     1     -11.414  18.873  73.398  1.00  0.00     2.187 OA 
HETATM   38  O   UNL     1     -12.326  16.761  72.551  1.00  0.00    -0.042 OA 
ENDBRANCH  28  34
ENDBRANCH  20  23
ENDBRANCH   8  17
TORSDOF 4
ENDMDL
MODEL      144
REMARK 921   NORMALIZED FREE ENERGY PREDICTED BY IDOCK:   38.74 KCAL/MOL
REMARK 922        TOTAL FREE ENERGY PREDICTED BY IDOCK:   47.31 KCAL/MOL
REMARK 923 INTER-LIGAND FREE ENERGY PREDICTED BY IDOCK:   42.60 KCAL/MOL
REMARK 924 INTRA-LIGAND FREE ENERGY PREDICTED BY IDOCK:    4.71 KCAL/MOL
REMARK 927      BINDING AFFINITY PREDICTED BY RF-SCORE:    0.00 PKD
ROOT
HETATM    1  C   UNL     1     -11.964  17.076  73.586  1.00  0.00    -0.003 C  
HETATM    2  C   UNL     1     -11.639  15.709  72.938  1.00  0.00    -0.408 C  
HETATM    3  C   UNL     1     -10.187  15.380  73.342  1.00  0.00     5.324 C  
HETATM    4  C   UNL     1     -12.662  14.601  73.301  1.00  0.00    -0.552 C  
HETATM    5  C   UNL     1     -13.970  15.124  72.640  1.00  0.00    -0.521 C  
HETATM    6  C   UNL     1     -13.476  15.862  71.358  1.00  0.00     0.036 C  
HETATM    7  C   UNL     1     -11.946  15.625  71.395  1.00  0.00    -0.476 C  
HETATM    8  C   UNL     1     -11.975  12.150  72.765  1.00  0.00     5.124 C  
HETATM    9  C   UNL     1     -11.862  14.123  71.156  1.00  0.00    -0.135 C  
HETATM   10  O   UNL     1     -11.767  13.582  70.068  1.00  0.00    -0.286 OA 
HETATM   11  C   UNL     1     -12.173  13.439  72.454  1.00  0.00     0.753 C  
ENDROOT
BRANCH   7  12
HETATM   12  C   UNL     1     -11.033  16.464  70.521  1.00  0.00    -0.150 C  
HETATM   13  S   UNL     1     -11.613  16.917  68.891  1.00  0.00     0.732 S  
HETATM   14  O   UNL     1     -10.627  17.806  68.311  1.00  0.00    -0.369 OA 
HETATM   15  O   UNL     1     -13.010  17.268  68.954  1.00  0.00     3.743 OA 
HETATM   16  O   UNL     1     -11.482  15.502  68.129  1.00  0.00    -0.336 OA 
ENDBRANCH   7  12
BRANCH   8  17
HETATM   17  C   UNL     1     -11.479  11.166  71.794  1.00  0.00     2.359 A  
HETATM   18  C   UNL     1     -11.109   9.876  72.192  1.00  0.00     1.321 A  
HETATM   19  C   UNL     1     -10.504   9.003  71.276  1.00  0.00    -0.381 A  
HETATM   20  C   UNL     1     -10.261   9.411  69.961  1.00  0.00    -0.262 A  
HETATM   21  C   UNL     1     -11.277  11.557  70.465  1.00  0.00     0.524 A  
HETATM   22  C   UNL     1     -10.674  10.684  69.553  1.00  0.00    -0.290 A  
BRANCH  20  23
HETATM   23  C   UNL     1      -9.548   8.535  69.034  1.00  0.00    -0.167 C  
HETATM   24  C   UNL     1     -10.011   8.221  67.824  1.00  0.00    -0.235 C  
HETATM   25  C   UNL     1     -11.272   8.595  67.085  1.00  0.00     0.823 C  
HETATM   26  C   UNL     1     -10.827   9.578  65.980  1.00  0.00     0.678 C  
HETATM   27  C   UNL     1     -10.071   8.672  64.970  1.00  0.00     1.935 C  
HETATM   28  C   UNL     1     -10.185   7.254  65.593  1.00  0.00     1.655 C  
HETATM   29  C   UNL     1     -11.594   7.298  66.290  1.00  0.00     3.347 C  
HETATM   30  C   UNL     1     -12.796   7.459  65.338  1.00  0.00    15.395 C  
HETATM   31  C   UNL     1      -9.312   7.315  66.844  1.00  0.00    -0.156 C  
HETATM   32  O   UNL     1      -8.265   6.736  67.052  1.00  0.00    -0.111 OA 
HETATM   33  C   UNL     1     -11.906   6.069  67.179  1.00  0.00     1.920 C  
BRANCH  28  34
HETATM   34  C   UNL     1      -9.966   6.069  64.674  1.00  0.00     2.218 C  
HETATM   35  S   UNL     1      -8.663   4.941  65.145  1.00  0.00    -0.150 S  
HETATM   36  O   UNL     1      -7.386   5.620  65.103  1.00  0.00    -0.071 OA 
HETATM   37  O   UNL     1      -8.694   4.044  63.798  1.00  0.00    -0.101 OA 
HETATM   38  O   UNL     1      -9.045   4.068  66.224  1.00  0.00    -0.124 OA 
ENDBRANCH  28  34
ENDBRANCH  20  23
ENDBRANCH   8  17
TORSDOF 4
ENDMDL
MODEL      145
REMARK 921   NORMALIZED FREE ENERGY PREDICTED BY IDOCK:   49.72 KCAL/MOL
REMARK 922        TOTAL FREE ENERGY PREDICTED BY IDOCK:   60.86 KCAL/MOL
REMARK 923 INTER-LIGAND FREE ENERGY PREDICTED BY IDOCK:   55.62 KCAL/MOL
REMARK 924 INTRA-LIGAND FREE ENERGY PREDICTED BY IDOCK:    5.23 KCAL/MOL
REMARK 927      BINDING AFFINITY PREDICTED BY RF-SCORE:    0.00 PKD
ROOT
HETATM    1  C   UNL     1     -10.542   5.488  64.926  1.00  0.00     1.686 C  
HETATM    2  C   UNL     1      -9.846   6.827  65.267  1.00  0.00     1.554 C  
HETATM    3  C   UNL     1      -8.743   6.484  66.291  1.00  0.00    -0.148 C  
HETATM    4  C   UNL     1      -9.332   7.587  64.016  1.00  0.00     2.311 C  
HETATM    5  C   UNL     1     -10.653   7.933  63.270  1.00  0.00    10.941 C  
HETATM    6  C   UNL     1     -11.685   8.164  64.417  1.00  0.00    17.478 C  
HETATM    7  C   UNL     1     -10.824   7.986  65.692  1.00  0.00     3.779 C  
HETATM    8  C   UNL     1      -7.671   9.544  64.434  1.00  0.00    -0.123 C  
HETATM    9  C   UNL     1      -9.903   9.197  65.613  1.00  0.00    -0.094 C  
HETATM   10  O   UNL     1     -10.127  10.292  66.100  1.00  0.00    -0.230 OA 
HETATM   11  C   UNL     1      -8.818   8.878  64.628  1.00  0.00    -0.098 C  
ENDROOT
BRANCH   7  12
HETATM   12  C   UNL     1     -11.502   7.784  67.034  1.00  0.00     1.560 C  
HETATM   13  S   UNL     1     -10.546   8.096  68.514  1.00  0.00    -0.034 S  
HETATM   14  O   UNL     1     -11.440   7.954  69.645  1.00  0.00     0.082 OA 
HETATM   15  O   UNL     1      -9.736   9.274  68.328  1.00  0.00    -0.146 OA 
HETATM   16  O   UNL     1      -9.576   6.809  68.512  1.00  0.00    -0.131 OA 
ENDBRANCH   7  12
BRANCH   8  17
HETATM   17  C   UNL     1      -7.347  10.790  65.139  1.00  0.00     0.154 A  
HETATM   18  C   UNL     1      -8.244  11.866  65.165  1.00  0.00     1.305 A  
HETATM   19  C   UNL     1      -7.855  13.093  65.720  1.00  0.00     3.114 A  
HETATM   20  C   UNL     1      -6.572  13.258  66.249  1.00  0.00     3.483 A  
HETATM   21  C   UNL     1      -6.078  10.943  65.711  1.00  0.00    -0.073 A  
HETATM   22  C   UNL     1      -5.693  12.170  66.265  1.00  0.00     0.990 A  
BRANCH  20  23
HETATM   23  C   UNL     1      -6.137  14.564  66.742  1.00  0.00     2.058 C  
HETATM   24  C   UNL     1      -6.480  15.043  67.939  1.00  0.00    -0.175 C  
HETATM   25  C   UNL     1      -7.336  14.490  69.052  1.00  0.00    -0.132 C  
HETATM   26  C   UNL     1      -6.352  14.105  70.177  1.00  0.00    -0.125 C  
HETATM   27  C   UNL     1      -5.877  15.476  70.731  1.00  0.00     0.069 C  
HETATM   28  C   UNL     1      -6.663  16.509  69.877  1.00  0.00     0.105 C  
HETATM   29  C   UNL     1      -8.025  15.767  69.612  1.00  0.00    -0.027 C  
HETATM   30  C   UNL     1      -8.880  15.490  70.865  1.00  0.00     2.501 C  
HETATM   31  C   UNL     1      -6.062  16.385  68.479  1.00  0.00    -0.123 C  
HETATM   32  O   UNL     1      -5.395  17.203  67.880  1.00  0.00    -0.112 OA 
HETATM   33  C   UNL     1      -8.955  16.483  68.602  1.00  0.00    -0.236 C  
BRANCH  28  34
HETATM   34  C   UNL     1      -6.800  17.912  70.432  1.00  0.00     1.407 C  
HETATM   35  S   UNL     1      -8.177  18.868  69.815  1.00  0.00     1.013 S  
HETATM   36  O   UNL     1      -8.019  19.099  68.395  1.00  0.00    -0.313 OA 
HETATM   37  O   UNL     1      -7.756  20.271  70.506  1.00  0.00     0.573 OA 
HETATM   38  O   UNL     1      -9.432  18.483  70.406  1.00  0.00     1.783 OA 
ENDBRANCH  28  34
ENDBRANCH  20  23
ENDBRANCH   8  17
TORSDOF 4
ENDMDL
MODEL      146
REMARK 921   NORMALIZED FREE ENERGY PREDICTED BY IDOCK:   52.21 KCAL/MOL
REMARK 922        TOTAL FREE ENERGY PREDICTED BY IDOCK:   63.93 KCAL/MOL
REMARK 923 INTER-LIGAND FREE ENERGY PREDICTED BY IDOCK:   60.57 KCAL/MOL
REMARK 924 INTRA-LIGAND FREE ENERGY PREDICTED BY IDOCK:    3.36 KCAL/MOL
REMARK 927      BINDING AFFINITY PREDICTED BY RF-SCORE:    0.00 PKD
ROOT
HETATM    1  C   UNL     1      -6.598  17.423  63.307  1.00  0.00    10.981 C  
HETATM    2  C   UNL     1      -6.672  16.319  64.389  1.00  0.00    12.105 C  
HETATM    3  C   UNL     1      -6.758  14.980  63.625  1.00  0.00    25.338 C  
HETATM    4  C   UNL     1      -5.508  16.387  65.413  1.00  0.00     4.022 C  
HETATM    5  C   UNL     1      -5.770  17.745  66.126  1.00  0.00    -0.246 C  
HETATM    6  C   UNL     1      -7.325  17.873  66.135  1.00  0.00    -0.327 C  
HETATM    7  C   UNL     1      -7.781  16.545  65.484  1.00  0.00     1.872 C  
HETATM    8  C   UNL     1      -5.168  14.307  66.939  1.00  0.00     1.640 C  
HETATM    9  C   UNL     1      -7.369  15.526  66.539  1.00  0.00     0.646 C  
HETATM   10  O   UNL     1      -8.066  15.138  67.461  1.00  0.00    -0.149 OA 
HETATM   11  C   UNL     1      -5.895  15.292  66.392  1.00  0.00     3.061 C  
ENDROOT
BRANCH   7  12
HETATM   12  C   UNL     1      -9.206  16.403  64.981  1.00  0.00     1.930 C  
HETATM   13  S   UNL     1     -10.526  16.400  66.187  1.00  0.00    -0.283 S  
HETATM   14  O   UNL     1     -11.779  16.378  65.458  1.00  0.00     0.568 OA 
HETATM   15  O   UNL     1     -10.256  17.384  67.204  1.00  0.00    -0.305 OA 
HETATM   16  O   UNL     1     -10.329  14.936  66.834  1.00  0.00    -0.258 OA 
ENDBRANCH   7  12
BRANCH   8  17
HETATM   17  C   UNL     1      -5.733  13.325  67.871  1.00  0.00    -0.131 A  
HETATM   18  C   UNL     1      -6.860  12.565  67.532  1.00  0.00    -0.150 A  
HETATM   19  C   UNL     1      -7.467  11.741  68.490  1.00  0.00    -0.110 A  
HETATM   20  C   UNL     1      -6.958  11.670  69.790  1.00  0.00     0.132 A  
HETATM   21  C   UNL     1      -5.197  13.217  69.161  1.00  0.00    -0.069 A  
HETATM   22  C   UNL     1      -5.805  12.392  70.114  1.00  0.00    -0.163 A  
BRANCH  20  23
HETATM   23  C   UNL     1      -7.646  10.882  70.812  1.00  0.00     2.346 C  
HETATM   24  C   UNL     1      -7.656   9.548  70.821  1.00  0.00    -0.099 C  
HETATM   25  C   UNL     1      -7.056   8.517  69.897  1.00  0.00    -0.051 C  
HETATM   26  C   UNL     1      -5.879   7.896  70.681  1.00  0.00    -0.029 C  
HETATM   27  C   UNL     1      -6.579   7.042  71.772  1.00  0.00    -0.049 C  
HETATM   28  C   UNL     1      -8.091   7.243  71.482  1.00  0.00    -0.101 C  
HETATM   29  C   UNL     1      -8.123   7.387  69.916  1.00  0.00    -0.126 C  
HETATM   30  C   UNL     1      -7.687   6.134  69.130  1.00  0.00    -0.100 C  
HETATM   31  C   UNL     1      -8.360   8.701  71.848  1.00  0.00    -0.124 C  
HETATM   32  O   UNL     1      -9.029   9.128  72.767  1.00  0.00     0.008 OA 
HETATM   33  C   UNL     1      -9.499   7.802  69.341  1.00  0.00    -0.156 C  
BRANCH  28  34
HETATM   34  C   UNL     1      -9.053   6.217  72.047  1.00  0.00    -0.143 C  
HETATM   35  S   UNL     1     -10.497   6.867  72.873  1.00  0.00    -0.268 S  
HETATM   36  O   UNL     1     -10.098   7.613  74.047  1.00  0.00    -0.114 OA 
HETATM   37  O   UNL     1     -11.035   5.453  73.451  1.00  0.00    -0.278 OA 
HETATM   38  O   UNL     1     -11.499   7.339  71.954  1.00  0.00    -0.253 OA 
ENDBRANCH  28  34
ENDBRANCH  20  23
ENDBRANCH   8  17
TORSDOF 4
ENDMDL
MODEL      147
REMARK 921   NORMALIZED FREE ENERGY PREDICTED BY IDOCK:   60.66 KCAL/MOL
REMARK 922        TOTAL FREE ENERGY PREDICTED BY IDOCK:   74.36 KCAL/MOL
REMARK 923 INTER-LIGAND FREE ENERGY PREDICTED BY IDOCK:   72.70 KCAL/MOL
REMARK 924 INTRA-LIGAND FREE ENERGY PREDICTED BY IDOCK:    1.66 KCAL/MOL
REMARK 927      BINDING AFFINITY PREDICTED BY RF-SCORE:    0.00 PKD
ROOT
HETATM    1  C   UNL     1     -10.077   4.172  66.102  1.00  0.00    -0.145 C  
HETATM    2  C   UNL     1     -10.336   5.578  66.694  1.00  0.00    -0.322 C  
HETATM    3  C   UNL     1      -9.076   6.412  66.377  1.00  0.00    -0.168 C  
HETATM    4  C   UNL     1     -11.658   6.218  66.195  1.00  0.00     1.930 C  
HETATM    5  C   UNL     1     -12.735   5.265  66.789  1.00  0.00     9.913 C  
HETATM    6  C   UNL     1     -12.120   4.796  68.143  1.00  0.00     9.633 C  
HETATM    7  C   UNL     1     -10.787   5.582  68.203  1.00  0.00    -0.056 C  
HETATM    8  C   UNL     1     -11.970   8.762  66.641  1.00  0.00     6.155 C  
HETATM    9  C   UNL     1     -11.282   7.014  68.362  1.00  0.00     0.099 C  
HETATM   10  O   UNL     1     -11.488   7.580  69.422  1.00  0.00     0.120 OA 
HETATM   11  C   UNL     1     -11.706   7.500  67.008  1.00  0.00     2.232 C  
ENDROOT
BRANCH   7  12
HETATM   12  C   UNL     1      -9.711   5.164  69.187  1.00  0.00    -0.163 C  
HETATM   13  S   UNL     1      -9.959   3.656  70.115  1.00  0.00     0.400 S  
HETATM   14  O   UNL     1      -8.754   3.416  70.883  1.00  0.00    -0.069 OA 
HETATM   15  O   UNL     1     -10.528   2.647  69.257  1.00  0.00     1.536 OA 
HETATM   16  O   UNL     1     -11.095   4.135  71.154  1.00  0.00     1.075 OA 
ENDBRANCH   7  12
BRANCH   8  17
HETATM   17  C   UNL     1     -11.957   9.884  67.587  1.00  0.00     2.486 A  
HETATM   18  C   UNL     1     -11.350   9.770  68.843  1.00  0.00     0.006 A  
HETATM   19  C   UNL     1     -11.476  10.802  69.783  1.00  0.00    -0.386 A  
HETATM   20  C   UNL     1     -12.209  11.953  69.479  1.00  0.00    -0.197 A  
HETATM   21  C   UNL     1     -12.652  11.058  67.267  1.00  0.00     3.710 A  
HETATM   22  C   UNL     1     -12.776  12.087  68.207  1.00  0.00     1.871 A  
BRANCH  20  23
HETATM   23  C   UNL     1     -12.417  12.987  70.491  1.00  0.00    -0.306 C  
HETATM   24  C   UNL     1     -11.635  14.061  70.608  1.00  0.00    -0.126 C  
HETATM   25  C   UNL     1     -10.414  14.522  69.851  1.00  0.00     0.125 C  
HETATM   26  C   UNL     1     -10.884  15.723  69.003  1.00  0.00    -0.248 C  
HETATM   27  C   UNL     1     -11.105  16.846  70.052  1.00  0.00     0.218 C  
HETATM   28  C   UNL     1     -10.713  16.175  71.396  1.00  0.00     0.721 C  
HETATM   29  C   UNL     1      -9.562  15.193  70.965  1.00  0.00     1.808 C  
HETATM   30  C   UNL     1      -8.287  15.869  70.422  1.00  0.00     1.645 C  
HETATM   31  C   UNL     1     -11.810  15.142  71.643  1.00  0.00    -0.387 C  
HETATM   32  O   UNL     1     -12.658  15.148  72.512  1.00  0.00    -0.316 OA 
HETATM   33  C   UNL     1      -9.097  14.225  72.081  1.00  0.00     8.139 C  
BRANCH  28  34
HETATM   34  C   UNL     1     -10.370  17.087  72.557  1.00  0.00     5.668 C  
HETATM   35  S   UNL     1     -11.002  18.754  72.458  1.00  0.00     4.634 S  
HETATM   36  O   UNL     1     -10.410  19.438  71.328  1.00  0.00     1.686 OA 
HETATM   37  O   UNL     1     -10.210  19.333  73.746  1.00  0.00     2.302 OA 
HETATM   38  O   UNL     1     -12.405  18.838  72.771  1.00  0.00     7.479 OA 
ENDBRANCH  28  34
ENDBRANCH  20  23
ENDBRANCH   8  17
TORSDOF 4
ENDMDL
MODEL      148
REMARK 921   NORMALIZED FREE ENERGY PREDICTED BY IDOCK:   84.92 KCAL/MOL
REMARK 922        TOTAL FREE ENERGY PREDICTED BY IDOCK:  104.29 KCAL/MOL
REMARK 923 INTER-LIGAND FREE ENERGY PREDICTED BY IDOCK:   99.49 KCAL/MOL
REMARK 924 INTRA-LIGAND FREE ENERGY PREDICTED BY IDOCK:    4.80 KCAL/MOL
REMARK 927      BINDING AFFINITY PREDICTED BY RF-SCORE:    0.00 PKD
ROOT
HETATM    1  C   UNL     1     -12.698   5.039  70.076  1.00  0.00    10.307 C  
HETATM    2  C   UNL     1     -12.216   6.473  70.398  1.00  0.00    -0.031 C  
HETATM    3  C   UNL     1     -12.189   7.226  69.051  1.00  0.00     2.012 C  
HETATM    4  C   UNL     1     -13.062   7.172  71.495  1.00  0.00    -0.427 C  
HETATM    5  C   UNL     1     -12.770   6.298  72.749  1.00  0.00     0.667 C  
HETATM    6  C   UNL     1     -11.294   5.834  72.551  1.00  0.00    -0.358 C  
HETATM    7  C   UNL     1     -10.886   6.545  71.238  1.00  0.00    -0.294 C  
HETATM    8  C   UNL     1     -12.749   9.741  71.757  1.00  0.00    -0.519 C  
HETATM    9  C   UNL     1     -10.884   8.007  71.668  1.00  0.00    -0.237 C  
HETATM   10  O   UNL     1      -9.927   8.613  72.118  1.00  0.00    -0.297 OA 
HETATM   11  C   UNL     1     -12.308   8.477  71.681  1.00  0.00    -0.371 C  
ENDROOT
BRANCH   7  12
HETATM   12  C   UNL     1      -9.641   6.096  70.495  1.00  0.00    -0.168 C  
HETATM   13  S   UNL     1      -9.310   6.822  68.895  1.00  0.00    -0.128 S  
HETATM   14  O   UNL     1      -8.021   6.329  68.453  1.00  0.00    -0.103 OA 
HETATM   15  O   UNL     1      -9.614   8.231  68.929  1.00  0.00    -0.151 OA 
HETATM   16  O   UNL     1     -10.431   6.084  68.001  1.00  0.00    -0.183 OA 
ENDBRANCH   7  12
BRANCH   8  17
HETATM   17  C   UNL     1     -11.848  10.887  71.931  1.00  0.00     1.116 A  
HETATM   18  C   UNL     1     -11.899  11.684  73.082  1.00  0.00     8.645 A  
HETATM   19  C   UNL     1     -11.132  12.854  73.162  1.00  0.00    10.397 A  
HETATM   20  C   UNL     1     -10.313  13.241  72.097  1.00  0.00    10.283 A  
HETATM   21  C   UNL     1     -10.992  11.251  70.884  1.00  0.00     1.574 A  
HETATM   22  C   UNL     1     -10.228  12.420  70.967  1.00  0.00     6.947 A  
BRANCH  20  23
HETATM   23  C   UNL     1      -9.586  14.508  72.144  1.00  0.00     5.888 C  
HETATM   24  C   UNL     1     -10.149  15.683  71.861  1.00  0.00     2.609 C  
HETATM   25  C   UNL     1     -11.544  16.071  71.434  1.00  0.00    -0.520 C  
HETATM   26  C   UNL     1     -12.173  16.765  72.661  1.00  0.00     0.139 C  
HETATM   27  C   UNL     1     -11.426  18.124  72.733  1.00  0.00     2.683 C  
HETATM   28  C   UNL     1     -10.459  18.077  71.519  1.00  0.00     3.402 C  
HETATM   29  C   UNL     1     -11.280  17.254  70.460  1.00  0.00     1.209 C  
HETATM   30  C   UNL     1     -12.577  17.925  69.964  1.00  0.00    11.196 C  
HETATM   31  C   UNL     1      -9.433  17.009  71.889  1.00  0.00     9.134 C  
HETATM   32  O   UNL     1      -8.254  17.161  72.137  1.00  0.00    11.906 OA 
HETATM   33  C   UNL     1     -10.480  16.868  69.192  1.00  0.00    -0.335 C  
BRANCH  28  34
HETATM   34  C   UNL     1      -9.908  19.395  71.014  1.00  0.00     2.286 C  
HETATM   35  S   UNL     1      -9.371  19.419  69.310  1.00  0.00     0.021 S  
HETATM   36  O   UNL     1      -8.254  18.516  69.134  1.00  0.00    -0.132 OA 
HETATM   37  O   UNL     1      -8.704  20.894  69.344  1.00  0.00     1.716 OA 
HETATM   38  O   UNL     1     -10.469  19.490  68.381  1.00  0.00    -0.395 OA 
ENDBRANCH  28  34
ENDBRANCH  20  23
ENDBRANCH   8  17
TORSDOF 4
ENDMDL
MODEL      149
REMARK 921   NORMALIZED FREE ENERGY PREDICTED BY IDOCK:  104.77 KCAL/MOL
REMARK 922        TOTAL FREE ENERGY PREDICTED BY IDOCK:  128.78 KCAL/MOL
REMARK 923 INTER-LIGAND FREE ENERGY PREDICTED BY IDOCK:  126.63 KCAL/MOL
REMARK 924 INTRA-LIGAND FREE ENERGY PREDICTED BY IDOCK:    2.14 KCAL/MOL
REMARK 927      BINDING AFFINITY PREDICTED BY RF-SCORE:    0.00 PKD
ROOT
HETATM    1  C   UNL     1      -7.831  17.407  63.357  1.00  0.00    17.950 C  
HETATM    2  C   UNL     1      -7.965  15.994  63.974  1.00  0.00    14.863 C  
HETATM    3  C   UNL     1      -9.446  15.594  63.802  1.00  0.00     8.624 C  
HETATM    4  C   UNL     1      -6.962  14.969  63.382  1.00  0.00    25.563 C  
HETATM    5  C   UNL     1      -5.591  15.542  63.842  1.00  0.00    17.582 C  
HETATM    6  C   UNL     1      -5.896  16.188  65.228  1.00  0.00     6.285 C  
HETATM    7  C   UNL     1      -7.395  15.859  65.435  1.00  0.00     4.986 C  
HETATM    8  C   UNL     1      -7.416  12.459  63.890  1.00  0.00     6.378 C  
HETATM    9  C   UNL     1      -7.357  14.345  65.602  1.00  0.00     6.855 C  
HETATM   10  O   UNL     1      -7.236  13.750  66.658  1.00  0.00     0.589 OA 
HETATM   11  C   UNL     1      -7.237  13.742  64.234  1.00  0.00    19.042 C  
ENDROOT
BRANCH   7  12
HETATM   12  C   UNL     1      -8.188  16.598  66.497  1.00  0.00    -0.295 C  
HETATM   13  S   UNL     1      -7.282  17.461  67.775  1.00  0.00    -0.171 S  
HETATM   14  O   UNL     1      -8.248  18.179  68.582  1.00  0.00    -0.308 OA 
HETATM   15  O   UNL     1      -6.136  18.118  67.197  1.00  0.00    -0.149 OA 
HETATM   16  O   UNL     1      -6.761  16.216  68.656  1.00  0.00    -0.120 OA 
ENDBRANCH   7  12
BRANCH   8  17
HETATM   17  C   UNL     1      -7.685  11.403  64.873  1.00  0.00     1.081 A  
HETATM   18  C   UNL     1      -6.896  10.247  64.934  1.00  0.00    -0.100 A  
HETATM   19  C   UNL     1      -7.259   9.191  65.782  1.00  0.00    -0.089 A  
HETATM   20  C   UNL     1      -8.410   9.278  66.570  1.00  0.00    -0.126 A  
HETATM   21  C   UNL     1      -8.812  11.507  65.698  1.00  0.00    -0.016 A  
HETATM   22  C   UNL     1      -9.172  10.451  66.544  1.00  0.00    -0.184 A  
BRANCH  20  23
HETATM   23  C   UNL     1      -8.837   8.140  67.383  1.00  0.00    -0.131 C  
HETATM   24  C   UNL     1      -8.836   8.155  68.717  1.00  0.00    -0.138 C  
HETATM   25  C   UNL     1      -8.434   9.202  69.726  1.00  0.00    -0.140 C  
HETATM   26  C   UNL     1      -9.756   9.714  70.338  1.00  0.00    -0.304 C  
HETATM   27  C   UNL     1     -10.232   8.527  71.219  1.00  0.00    -0.287 C  
HETATM   28  C   UNL     1      -9.115   7.464  71.037  1.00  0.00    -0.152 C  
HETATM   29  C   UNL     1      -7.824   8.348  70.873  1.00  0.00    -0.099 C  
HETATM   30  C   UNL     1      -7.438   9.186  72.107  1.00  0.00     0.402 C  
HETATM   31  C   UNL     1      -9.259   7.001  69.590  1.00  0.00    -0.146 C  
HETATM   32  O   UNL     1      -9.616   5.913  69.186  1.00  0.00    -0.131 OA 
HETATM   33  C   UNL     1      -6.556   7.556  70.471  1.00  0.00    -0.042 C  
BRANCH  28  34
HETATM   34  C   UNL     1      -9.011   6.375  72.087  1.00  0.00    -0.136 C  
HETATM   35  S   UNL     1      -7.667   5.216  71.884  1.00  0.00    -0.111 S  
HETATM   36  O   UNL     1      -7.844   4.466  70.659  1.00  0.00    -0.055 OA 
HETATM   37  O   UNL     1      -8.118   4.197  73.057  1.00  0.00    -0.087 OA 
HETATM   38  O   UNL     1      -6.396   5.762  72.285  1.00  0.00    -0.049 OA 
ENDBRANCH  28  34
ENDBRANCH  20  23
ENDBRANCH   8  17
TORSDOF 4
ENDMDL
