MODEL        1
REMARK 921   NORMALIZED FREE ENERGY PREDICTED BY IDOCK:   -4.50 KCAL/MOL
REMARK 922        TOTAL FREE ENERGY PREDICTED BY IDOCK:   -6.06 KCAL/MOL
REMARK 923 INTER-LIGAND FREE ENERGY PREDICTED BY IDOCK:   -5.81 KCAL/MOL
REMARK 924 INTRA-LIGAND FREE ENERGY PREDICTED BY IDOCK:   -0.25 KCAL/MOL
REMARK 927      BINDING AFFINITY PREDICTED BY RF-SCORE:    0.00 PKD
ROOT
HETATM    1  C   UNL     1     -10.946  12.222  63.562  1.00  0.00    -0.521 C  
HETATM    2  C   UNL     1     -10.695  13.442  64.422  1.00  0.00    -0.408 C  
ENDROOT
BRANCH   2   3
HETATM    3  O   UNL     1     -10.490  12.989  65.750  1.00  0.00    -0.271 OA 
HETATM    4  P   UNL     1     -10.921  14.054  67.043  1.00  0.00    -0.310 P  
HETATM    5  O   UNL     1     -10.652  12.777  68.073  1.00  0.00    -0.214 OA 
HETATM    6  S   UNL     1     -11.448  15.360  68.627  1.00  0.00    -0.359 SA 
HETATM    7  O   UNL     1     -12.407  14.053  66.670  1.00  0.00    -0.451 OA 
BRANCH   5   8
HETATM    8  C   UNL     1     -11.652  11.765  68.159  1.00  0.00    -0.323 C  
HETATM    9  C   UNL     1     -11.324  10.838  69.318  1.00  0.00    -0.352 C  
ENDBRANCH   5   8
BRANCH   6  10
HETATM   10  C   UNL     1     -12.061  14.396  70.019  1.00  0.00    -0.343 C  
BRANCH  10  11
HETATM   11  C   UNL     1     -11.935  15.169  71.335  1.00  0.00    -0.350 C  
BRANCH  11  12
HETATM   12  N   UNL     1     -12.981  14.736  72.402  1.00  0.00    -0.335 N  
HETATM   13  C   UNL     1     -13.279  13.239  72.325  1.00  0.00    -0.467 C  
HETATM   14  C   UNL     1     -14.279  15.497  72.117  1.00  0.00    -0.522 C  
HETATM   15  C   UNL     1     -12.518  15.093  73.812  1.00  0.00    -0.586 C  
ENDBRANCH  11  12
ENDBRANCH  10  11
ENDBRANCH   6  10
ENDBRANCH   2   3
TORSDOF 5
ENDMDL
MODEL        2
REMARK 921   NORMALIZED FREE ENERGY PREDICTED BY IDOCK:   -4.41 KCAL/MOL
REMARK 922        TOTAL FREE ENERGY PREDICTED BY IDOCK:   -5.95 KCAL/MOL
REMARK 923 INTER-LIGAND FREE ENERGY PREDICTED BY IDOCK:   -5.62 KCAL/MOL
REMARK 924 INTRA-LIGAND FREE ENERGY PREDICTED BY IDOCK:   -0.33 KCAL/MOL
REMARK 927      BINDING AFFINITY PREDICTED BY RF-SCORE:    0.00 PKD
ROOT
HETATM    1  C   UNL     1     -12.309  15.227  74.235  1.00  0.00    -0.755 C  
HETATM    2  C   UNL     1     -12.716  16.034  73.021  1.00  0.00    -0.493 C  
ENDROOT
BRANCH   2   3
HETATM    3  O   UNL     1     -11.649  15.965  72.091  1.00  0.00    -0.424 OA 
HETATM    4  P   UNL     1     -11.718  14.738  70.872  1.00  0.00    -0.255 P  
HETATM    5  O   UNL     1     -10.407  15.482  70.169  1.00  0.00    -0.304 OA 
HETATM    6  S   UNL     1     -11.802  13.236  69.379  1.00  0.00    -0.319 SA 
HETATM    7  O   UNL     1     -12.985  15.317  70.234  1.00  0.00    -0.303 OA 
BRANCH   5   8
HETATM    8  C   UNL     1     -10.636  16.675  69.422  1.00  0.00    -0.333 C  
HETATM    9  C   UNL     1      -9.367  17.043  68.672  1.00  0.00    -0.270 C  
ENDBRANCH   5   8
BRANCH   6  10
HETATM   10  C   UNL     1     -11.063  13.859  67.860  1.00  0.00    -0.258 C  
BRANCH  10  11
HETATM   11  C   UNL     1     -12.133  14.270  66.845  1.00  0.00    -0.409 C  
BRANCH  11  12
HETATM   12  N   UNL     1     -11.716  13.996  65.371  1.00  0.00    -0.330 N  
HETATM   13  C   UNL     1     -12.204  12.629  64.892  1.00  0.00    -0.471 C  
HETATM   14  C   UNL     1     -10.186  14.007  65.311  1.00  0.00    -0.360 C  
HETATM   15  C   UNL     1     -12.238  15.081  64.434  1.00  0.00    -0.337 C  
ENDBRANCH  11  12
ENDBRANCH  10  11
ENDBRANCH   6  10
ENDBRANCH   2   3
TORSDOF 5
ENDMDL
MODEL        3
REMARK 921   NORMALIZED FREE ENERGY PREDICTED BY IDOCK:   -4.34 KCAL/MOL
REMARK 922        TOTAL FREE ENERGY PREDICTED BY IDOCK:   -5.86 KCAL/MOL
REMARK 923 INTER-LIGAND FREE ENERGY PREDICTED BY IDOCK:   -5.62 KCAL/MOL
REMARK 924 INTRA-LIGAND FREE ENERGY PREDICTED BY IDOCK:   -0.24 KCAL/MOL
REMARK 927      BINDING AFFINITY PREDICTED BY RF-SCORE:    0.00 PKD
ROOT
HETATM    1  C   UNL     1     -12.306  15.294  74.489  1.00  0.00    -0.630 C  
HETATM    2  C   UNL     1     -13.145  15.945  73.410  1.00  0.00    -0.587 C  
ENDROOT
BRANCH   2   3
HETATM    3  O   UNL     1     -13.313  14.994  72.373  1.00  0.00    -0.344 OA 
HETATM    4  P   UNL     1     -12.600  15.341  70.836  1.00  0.00    -0.470 P  
HETATM    5  O   UNL     1     -12.998  13.787  70.395  1.00  0.00    -0.171 OA 
HETATM    6  S   UNL     1     -11.726  15.766  68.951  1.00  0.00    -0.339 SA 
HETATM    7  O   UNL     1     -11.173  15.321  71.392  1.00  0.00    -0.356 OA 
BRANCH   5   8
HETATM    8  C   UNL     1     -12.182  12.724  70.883  1.00  0.00    -0.191 C  
HETATM    9  C   UNL     1     -13.073  11.652  71.487  1.00  0.00    -0.405 C  
ENDBRANCH   5   8
BRANCH   6  10
HETATM   10  C   UNL     1     -11.174  14.231  68.187  1.00  0.00    -0.275 C  
BRANCH  10  11
HETATM   11  C   UNL     1     -12.084  13.826  67.025  1.00  0.00    -0.397 C  
BRANCH  11  12
HETATM   12  N   UNL     1     -11.301  13.480  65.725  1.00  0.00    -0.303 N  
HETATM   13  C   UNL     1     -10.849  14.740  64.987  1.00  0.00    -0.425 C  
HETATM   14  C   UNL     1     -12.245  12.700  64.807  1.00  0.00    -0.465 C  
HETATM   15  C   UNL     1     -10.090  12.601  66.023  1.00  0.00    -0.262 C  
ENDBRANCH  11  12
ENDBRANCH  10  11
ENDBRANCH   6  10
ENDBRANCH   2   3
TORSDOF 5
ENDMDL
MODEL        4
REMARK 921   NORMALIZED FREE ENERGY PREDICTED BY IDOCK:   -4.29 KCAL/MOL
REMARK 922        TOTAL FREE ENERGY PREDICTED BY IDOCK:   -5.79 KCAL/MOL
REMARK 923 INTER-LIGAND FREE ENERGY PREDICTED BY IDOCK:   -5.49 KCAL/MOL
REMARK 924 INTRA-LIGAND FREE ENERGY PREDICTED BY IDOCK:   -0.31 KCAL/MOL
REMARK 927      BINDING AFFINITY PREDICTED BY RF-SCORE:    0.00 PKD
ROOT
HETATM    1  C   UNL     1     -10.997  10.233  67.536  1.00  0.00    -0.344 C  
HETATM    2  C   UNL     1     -11.748  11.365  68.204  1.00  0.00    -0.284 C  
ENDROOT
BRANCH   2   3
HETATM    3  O   UNL     1     -12.019  12.338  67.209  1.00  0.00    -0.546 OA 
HETATM    4  P   UNL     1     -11.511  13.964  67.509  1.00  0.00    -0.382 P  
HETATM    5  O   UNL     1     -11.920  14.294  65.932  1.00  0.00    -0.375 OA 
HETATM    6  S   UNL     1     -10.887  15.956  67.877  1.00  0.00    -0.327 SA 
HETATM    7  O   UNL     1     -10.025  13.589  67.541  1.00  0.00    -0.225 OA 
BRANCH   5   8
HETATM    8  C   UNL     1     -11.024  13.873  64.906  1.00  0.00    -0.386 C  
HETATM    9  C   UNL     1     -11.813  13.173  63.812  1.00  0.00    -0.546 C  
ENDBRANCH   5   8
BRANCH   6  10
HETATM   10  C   UNL     1     -10.395  16.726  66.326  1.00  0.00    -0.310 C  
BRANCH  10  11
HETATM   11  C   UNL     1      -9.046  17.439  66.457  1.00  0.00    -0.266 C  
BRANCH  11  12
HETATM   12  N   UNL     1      -9.182  18.977  66.646  1.00  0.00    -0.317 N  
HETATM   13  C   UNL     1      -8.007  19.728  66.020  1.00  0.00    -0.330 C  
HETATM   14  C   UNL     1      -9.184  19.262  68.151  1.00  0.00    -0.334 C  
HETATM   15  C   UNL     1     -10.491  19.497  66.059  1.00  0.00    -0.516 C  
ENDBRANCH  11  12
ENDBRANCH  10  11
ENDBRANCH   6  10
ENDBRANCH   2   3
TORSDOF 5
ENDMDL
MODEL        5
REMARK 921   NORMALIZED FREE ENERGY PREDICTED BY IDOCK:   -4.27 KCAL/MOL
REMARK 922        TOTAL FREE ENERGY PREDICTED BY IDOCK:   -5.77 KCAL/MOL
REMARK 923 INTER-LIGAND FREE ENERGY PREDICTED BY IDOCK:   -5.47 KCAL/MOL
REMARK 924 INTRA-LIGAND FREE ENERGY PREDICTED BY IDOCK:   -0.30 KCAL/MOL
REMARK 927      BINDING AFFINITY PREDICTED BY RF-SCORE:    0.00 PKD
ROOT
HETATM    1  C   UNL     1     -12.142  11.109  69.978  1.00  0.00    -0.437 C  
HETATM    2  C   UNL     1     -11.545  10.942  68.597  1.00  0.00    -0.303 C  
ENDROOT
BRANCH   2   3
HETATM    3  O   UNL     1     -11.991  12.033  67.809  1.00  0.00    -0.538 OA 
HETATM    4  P   UNL     1     -11.694  13.632  68.401  1.00  0.00    -0.378 P  
HETATM    5  O   UNL     1     -12.216  14.185  66.922  1.00  0.00    -0.439 OA 
HETATM    6  S   UNL     1     -11.331  15.590  69.126  1.00  0.00    -0.354 SA 
HETATM    7  O   UNL     1     -10.172  13.472  68.332  1.00  0.00    -0.237 OA 
BRANCH   5   8
HETATM    8  C   UNL     1     -11.319  14.092  65.818  1.00  0.00    -0.312 C  
HETATM    9  C   UNL     1     -12.072  14.413  64.537  1.00  0.00    -0.498 C  
ENDBRANCH   5   8
BRANCH   6  10
HETATM   10  C   UNL     1     -11.019  16.695  67.738  1.00  0.00    -0.234 C  
BRANCH  10  11
HETATM   11  C   UNL     1      -9.641  17.353  67.844  1.00  0.00    -0.267 C  
BRANCH  11  12
HETATM   12  N   UNL     1      -9.651  18.861  67.462  1.00  0.00    -0.300 N  
HETATM   13  C   UNL     1     -10.499  19.122  66.216  1.00  0.00    -0.467 C  
HETATM   14  C   UNL     1      -8.209  19.272  67.154  1.00  0.00    -0.268 C  
HETATM   15  C   UNL     1     -10.158  19.723  68.614  1.00  0.00    -0.440 C  
ENDBRANCH  11  12
ENDBRANCH  10  11
ENDBRANCH   6  10
ENDBRANCH   2   3
TORSDOF 5
ENDMDL
MODEL        6
REMARK 921   NORMALIZED FREE ENERGY PREDICTED BY IDOCK:   -4.21 KCAL/MOL
REMARK 922        TOTAL FREE ENERGY PREDICTED BY IDOCK:   -5.69 KCAL/MOL
REMARK 923 INTER-LIGAND FREE ENERGY PREDICTED BY IDOCK:   -5.29 KCAL/MOL
REMARK 924 INTRA-LIGAND FREE ENERGY PREDICTED BY IDOCK:   -0.40 KCAL/MOL
REMARK 927      BINDING AFFINITY PREDICTED BY RF-SCORE:    0.00 PKD
ROOT
HETATM    1  C   UNL     1     -11.264  11.794  63.486  1.00  0.00    -0.494 C  
HETATM    2  C   UNL     1     -12.362  12.380  64.348  1.00  0.00    -0.447 C  
ENDROOT
BRANCH   2   3
HETATM    3  O   UNL     1     -11.823  12.577  65.644  1.00  0.00    -0.402 OA 
HETATM    4  P   UNL     1     -10.721  13.891  65.869  1.00  0.00    -0.300 P  
HETATM    5  O   UNL     1     -10.816  13.581  67.500  1.00  0.00    -0.259 OA 
HETATM    6  S   UNL     1      -9.370  15.502  66.146  1.00  0.00    -0.349 SA 
HETATM    7  O   UNL     1     -11.774  14.951  65.530  1.00  0.00    -0.313 OA 
BRANCH   5   8
HETATM    8  C   UNL     1     -11.977  14.026  68.199  1.00  0.00    -0.347 C  
HETATM    9  C   UNL     1     -11.818  13.711  69.678  1.00  0.00    -0.396 C  
ENDBRANCH   5   8
BRANCH   6  10
HETATM   10  C   UNL     1      -9.585  16.188  67.797  1.00  0.00    -0.223 C  
BRANCH  10  11
HETATM   11  C   UNL     1     -10.439  17.458  67.769  1.00  0.00    -0.376 C  
BRANCH  11  12
HETATM   12  N   UNL     1      -9.594  18.765  67.809  1.00  0.00    -0.304 N  
HETATM   13  C   UNL     1     -10.261  19.841  68.665  1.00  0.00    -0.405 C  
HETATM   14  C   UNL     1      -9.485  19.292  66.376  1.00  0.00    -0.365 C  
HETATM   15  C   UNL     1      -8.184  18.500  68.329  1.00  0.00    -0.314 C  
ENDBRANCH  11  12
ENDBRANCH  10  11
ENDBRANCH   6  10
ENDBRANCH   2   3
TORSDOF 5
ENDMDL
MODEL        7
REMARK 921   NORMALIZED FREE ENERGY PREDICTED BY IDOCK:   -4.20 KCAL/MOL
REMARK 922        TOTAL FREE ENERGY PREDICTED BY IDOCK:   -5.68 KCAL/MOL
REMARK 923 INTER-LIGAND FREE ENERGY PREDICTED BY IDOCK:   -5.39 KCAL/MOL
REMARK 924 INTRA-LIGAND FREE ENERGY PREDICTED BY IDOCK:   -0.29 KCAL/MOL
REMARK 927      BINDING AFFINITY PREDICTED BY RF-SCORE:    0.00 PKD
ROOT
HETATM    1  C   UNL     1     -11.958  11.613  69.462  1.00  0.00    -0.383 C  
HETATM    2  C   UNL     1     -11.520  11.240  68.062  1.00  0.00    -0.298 C  
ENDROOT
BRANCH   2   3
HETATM    3  O   UNL     1     -11.911  12.295  67.201  1.00  0.00    -0.564 OA 
HETATM    4  P   UNL     1     -11.418  13.901  67.615  1.00  0.00    -0.365 P  
HETATM    5  O   UNL     1     -11.987  14.370  66.125  1.00  0.00    -0.389 OA 
HETATM    6  S   UNL     1     -10.812  15.868  68.122  1.00  0.00    -0.329 SA 
HETATM    7  O   UNL     1      -9.927  13.577  67.468  1.00  0.00    -0.225 OA 
BRANCH   5   8
HETATM    8  C   UNL     1     -11.185  14.083  64.981  1.00  0.00    -0.352 C  
HETATM    9  C   UNL     1     -12.031  13.357  63.949  1.00  0.00    -0.520 C  
ENDBRANCH   5   8
BRANCH   6  10
HETATM   10  C   UNL     1     -10.494  16.804  66.617  1.00  0.00    -0.258 C  
BRANCH  10  11
HETATM   11  C   UNL     1      -9.125  17.489  66.662  1.00  0.00    -0.269 C  
BRANCH  11  12
HETATM   12  N   UNL     1      -9.219  19.033  66.829  1.00  0.00    -0.307 N  
HETATM   13  C   UNL     1      -9.049  19.454  68.289  1.00  0.00    -0.345 C  
HETATM   14  C   UNL     1     -10.612  19.467  66.366  1.00  0.00    -0.472 C  
HETATM   15  C   UNL     1      -8.184  19.750  65.968  1.00  0.00    -0.311 C  
ENDBRANCH  11  12
ENDBRANCH  10  11
ENDBRANCH   6  10
ENDBRANCH   2   3
TORSDOF 5
ENDMDL
MODEL        8
REMARK 921   NORMALIZED FREE ENERGY PREDICTED BY IDOCK:   -4.18 KCAL/MOL
REMARK 922        TOTAL FREE ENERGY PREDICTED BY IDOCK:   -5.65 KCAL/MOL
REMARK 923 INTER-LIGAND FREE ENERGY PREDICTED BY IDOCK:   -5.41 KCAL/MOL
REMARK 924 INTRA-LIGAND FREE ENERGY PREDICTED BY IDOCK:   -0.24 KCAL/MOL
REMARK 927      BINDING AFFINITY PREDICTED BY RF-SCORE:    0.00 PKD
ROOT
HETATM    1  C   UNL     1      -5.798  20.095  68.603  1.00  0.00    -0.297 C  
HETATM    2  C   UNL     1      -6.860  19.063  68.918  1.00  0.00    -0.314 C  
ENDROOT
BRANCH   2   3
HETATM    3  O   UNL     1      -7.643  18.890  67.749  1.00  0.00    -0.229 OA 
HETATM    4  P   UNL     1      -8.123  17.282  67.329  1.00  0.00    -0.205 P  
HETATM    5  O   UNL     1      -9.097  17.967  66.168  1.00  0.00    -0.472 OA 
HETATM    6  S   UNL     1      -8.711  15.312  66.814  1.00  0.00    -0.277 SA 
HETATM    7  O   UNL     1      -8.960  17.103  68.599  1.00  0.00    -0.263 OA 
BRANCH   5   8
HETATM    8  C   UNL     1     -10.325  18.558  66.588  1.00  0.00    -0.408 C  
HETATM    9  C   UNL     1     -10.409  19.973  66.041  1.00  0.00    -0.556 C  
ENDBRANCH   5   8
BRANCH   6  10
HETATM   10  C   UNL     1     -10.343  15.354  66.053  1.00  0.00    -0.324 C  
BRANCH  10  11
HETATM   11  C   UNL     1     -10.415  14.433  64.832  1.00  0.00    -0.423 C  
BRANCH  11  12
HETATM   12  N   UNL     1     -11.485  13.312  64.972  1.00  0.00    -0.299 N  
HETATM   13  C   UNL     1     -10.961  12.131  65.787  1.00  0.00    -0.297 C  
HETATM   14  C   UNL     1     -11.820  12.811  63.564  1.00  0.00    -0.546 C  
HETATM   15  C   UNL     1     -12.767  13.842  65.608  1.00  0.00    -0.495 C  
ENDBRANCH  11  12
ENDBRANCH  10  11
ENDBRANCH   6  10
ENDBRANCH   2   3
TORSDOF 5
ENDMDL
MODEL        9
REMARK 921   NORMALIZED FREE ENERGY PREDICTED BY IDOCK:   -4.18 KCAL/MOL
REMARK 922        TOTAL FREE ENERGY PREDICTED BY IDOCK:   -5.64 KCAL/MOL
REMARK 923 INTER-LIGAND FREE ENERGY PREDICTED BY IDOCK:   -5.41 KCAL/MOL
REMARK 924 INTRA-LIGAND FREE ENERGY PREDICTED BY IDOCK:   -0.23 KCAL/MOL
REMARK 927      BINDING AFFINITY PREDICTED BY RF-SCORE:    0.00 PKD
ROOT
HETATM    1  C   UNL     1      -9.443  11.250  63.047  1.00  0.00    -0.385 C  
HETATM    2  C   UNL     1     -10.695  11.627  63.808  1.00  0.00    -0.419 C  
ENDROOT
BRANCH   2   3
HETATM    3  O   UNL     1     -10.377  11.595  65.189  1.00  0.00    -0.255 OA 
HETATM    4  P   UNL     1     -10.927  12.906  66.175  1.00  0.00    -0.297 P  
HETATM    5  O   UNL     1     -10.426  12.017  67.488  1.00  0.00    -0.207 OA 
HETATM    6  S   UNL     1     -11.601  14.512  67.384  1.00  0.00    -0.395 SA 
HETATM    7  O   UNL     1     -12.406  12.588  65.930  1.00  0.00    -0.626 OA 
BRANCH   5   8
HETATM    8  C   UNL     1     -11.250  10.937  67.920  1.00  0.00    -0.321 C  
HETATM    9  C   UNL     1     -10.749  10.435  69.264  1.00  0.00    -0.270 C  
ENDBRANCH   5   8
BRANCH   6  10
HETATM   10  C   UNL     1     -12.007  13.896  69.027  1.00  0.00    -0.364 C  
BRANCH  10  11
HETATM   11  C   UNL     1     -12.237  15.043  70.014  1.00  0.00    -0.328 C  
BRANCH  11  12
HETATM   12  N   UNL     1     -12.826  14.572  71.375  1.00  0.00    -0.316 N  
HETATM   13  C   UNL     1     -12.903  13.047  71.458  1.00  0.00    -0.290 C  
HETATM   14  C   UNL     1     -14.248  15.129  71.484  1.00  0.00    -0.549 C  
HETATM   15  C   UNL     1     -12.011  15.107  72.549  1.00  0.00    -0.391 C  
ENDBRANCH  11  12
ENDBRANCH  10  11
ENDBRANCH   6  10
ENDBRANCH   2   3
TORSDOF 5
ENDMDL
MODEL       10
REMARK 921   NORMALIZED FREE ENERGY PREDICTED BY IDOCK:   -4.17 KCAL/MOL
REMARK 922        TOTAL FREE ENERGY PREDICTED BY IDOCK:   -5.63 KCAL/MOL
REMARK 923 INTER-LIGAND FREE ENERGY PREDICTED BY IDOCK:   -5.28 KCAL/MOL
REMARK 924 INTRA-LIGAND FREE ENERGY PREDICTED BY IDOCK:   -0.35 KCAL/MOL
REMARK 927      BINDING AFFINITY PREDICTED BY RF-SCORE:    0.00 PKD
ROOT
HETATM    1  C   UNL     1     -12.013  15.196  72.449  1.00  0.00    -0.488 C  
HETATM    2  C   UNL     1     -12.446  15.817  71.138  1.00  0.00    -0.436 C  
ENDROOT
BRANCH   2   3
HETATM    3  O   UNL     1     -12.519  14.774  70.180  1.00  0.00    -0.329 OA 
HETATM    4  P   UNL     1     -11.779  15.040  68.639  1.00  0.00    -0.283 P  
HETATM    5  O   UNL     1     -12.062  13.432  68.320  1.00  0.00    -0.343 OA 
HETATM    6  S   UNL     1     -10.872  15.365  66.750  1.00  0.00    -0.280 SA 
HETATM    7  O   UNL     1     -10.372  15.160  69.234  1.00  0.00    -0.238 OA 
BRANCH   5   8
HETATM    8  C   UNL     1     -11.197  12.469  68.918  1.00  0.00    -0.281 C  
HETATM    9  C   UNL     1     -12.029  11.310  69.441  1.00  0.00    -0.410 C  
ENDBRANCH   5   8
BRANCH   6  10
HETATM   10  C   UNL     1     -10.199  13.812  66.134  1.00  0.00    -0.301 C  
BRANCH  10  11
HETATM   11  C   UNL     1     -10.501  13.624  64.645  1.00  0.00    -0.423 C  
BRANCH  11  12
HETATM   12  N   UNL     1     -10.869  12.158  64.275  1.00  0.00    -0.314 N  
HETATM   13  C   UNL     1      -9.925  11.589  63.216  1.00  0.00    -0.409 C  
HETATM   14  C   UNL     1     -12.287  12.167  63.696  1.00  0.00    -0.568 C  
HETATM   15  C   UNL     1     -10.861  11.255  65.505  1.00  0.00    -0.179 C  
ENDBRANCH  11  12
ENDBRANCH  10  11
ENDBRANCH   6  10
ENDBRANCH   2   3
TORSDOF 5
ENDMDL
MODEL       11
REMARK 921   NORMALIZED FREE ENERGY PREDICTED BY IDOCK:   -4.11 KCAL/MOL
REMARK 922        TOTAL FREE ENERGY PREDICTED BY IDOCK:   -5.57 KCAL/MOL
REMARK 923 INTER-LIGAND FREE ENERGY PREDICTED BY IDOCK:   -5.26 KCAL/MOL
REMARK 924 INTRA-LIGAND FREE ENERGY PREDICTED BY IDOCK:   -0.30 KCAL/MOL
REMARK 927      BINDING AFFINITY PREDICTED BY RF-SCORE:    0.00 PKD
ROOT
HETATM    1  C   UNL     1      -9.911   7.973  66.872  1.00  0.00    -0.338 C  
HETATM    2  C   UNL     1      -9.884   9.485  66.937  1.00  0.00    -0.204 C  
ENDROOT
BRANCH   2   3
HETATM    3  O   UNL     1     -10.264   9.859  68.251  1.00  0.00    -0.162 OA 
HETATM    4  P   UNL     1     -10.625  11.525  68.544  1.00  0.00    -0.227 P  
HETATM    5  O   UNL     1     -11.170  11.056  70.044  1.00  0.00    -0.273 OA 
HETATM    6  S   UNL     1     -11.066  13.567  68.904  1.00  0.00    -0.263 SA 
HETATM    7  O   UNL     1     -11.822  11.528  67.588  1.00  0.00    -0.595 OA 
BRANCH   5   8
HETATM    8  C   UNL     1     -12.454  10.442  70.126  1.00  0.00    -0.176 C  
HETATM    9  C   UNL     1     -12.675   9.939  71.543  1.00  0.00    -0.515 C  
ENDBRANCH   5   8
BRANCH   6  10
HETATM   10  C   UNL     1     -12.376  13.689  70.134  1.00  0.00    -0.304 C  
BRANCH  10  11
HETATM   11  C   UNL     1     -12.074  14.778  71.167  1.00  0.00    -0.332 C  
BRANCH  11  12
HETATM   12  N   UNL     1     -13.099  14.813  72.338  1.00  0.00    -0.348 N  
HETATM   13  C   UNL     1     -12.450  15.281  73.641  1.00  0.00    -0.589 C  
HETATM   14  C   UNL     1     -13.614  13.386  72.546  1.00  0.00    -0.554 C  
HETATM   15  C   UNL     1     -14.289  15.708  72.009  1.00  0.00    -0.384 C  
ENDBRANCH  11  12
ENDBRANCH  10  11
ENDBRANCH   6  10
ENDBRANCH   2   3
TORSDOF 5
ENDMDL
MODEL       12
REMARK 921   NORMALIZED FREE ENERGY PREDICTED BY IDOCK:   -4.06 KCAL/MOL
REMARK 922        TOTAL FREE ENERGY PREDICTED BY IDOCK:   -5.49 KCAL/MOL
REMARK 923 INTER-LIGAND FREE ENERGY PREDICTED BY IDOCK:   -5.23 KCAL/MOL
REMARK 924 INTRA-LIGAND FREE ENERGY PREDICTED BY IDOCK:   -0.26 KCAL/MOL
REMARK 927      BINDING AFFINITY PREDICTED BY RF-SCORE:    0.00 PKD
ROOT
HETATM    1  C   UNL     1      -9.793  20.335  67.572  1.00  0.00    -0.576 C  
HETATM    2  C   UNL     1      -9.393  19.461  68.742  1.00  0.00    -0.387 C  
ENDROOT
BRANCH   2   3
HETATM    3  O   UNL     1     -10.239  18.324  68.729  1.00  0.00    -0.378 OA 
HETATM    4  P   UNL     1     -10.333  17.403  67.267  1.00  0.00    -0.296 P  
HETATM    5  O   UNL     1     -11.195  16.275  68.133  1.00  0.00    -0.350 OA 
HETATM    6  S   UNL     1     -10.447  16.275  65.476  1.00  0.00    -0.310 SA 
HETATM    7  O   UNL     1      -8.854  17.005  67.317  1.00  0.00    -0.206 OA 
BRANCH   5   8
HETATM    8  C   UNL     1     -10.473  15.404  69.002  1.00  0.00    -0.249 C  
HETATM    9  C   UNL     1     -11.418  14.342  69.538  1.00  0.00    -0.336 C  
ENDBRANCH   5   8
BRANCH   6  10
HETATM   10  C   UNL     1     -10.664  14.533  65.878  1.00  0.00    -0.305 C  
BRANCH  10  11
HETATM   11  C   UNL     1     -10.354  13.638  64.675  1.00  0.00    -0.384 C  
BRANCH  11  12
HETATM   12  N   UNL     1     -11.035  12.241  64.760  1.00  0.00    -0.293 N  
HETATM   13  C   UNL     1     -10.154  11.148  64.155  1.00  0.00    -0.333 C  
HETATM   14  C   UNL     1     -12.335  12.309  63.953  1.00  0.00    -0.509 C  
HETATM   15  C   UNL     1     -11.384  11.878  66.200  1.00  0.00    -0.324 C  
ENDBRANCH  11  12
ENDBRANCH  10  11
ENDBRANCH   6  10
ENDBRANCH   2   3
TORSDOF 5
ENDMDL
MODEL       13
REMARK 921   NORMALIZED FREE ENERGY PREDICTED BY IDOCK:   -4.02 KCAL/MOL
REMARK 922        TOTAL FREE ENERGY PREDICTED BY IDOCK:   -5.44 KCAL/MOL
REMARK 923 INTER-LIGAND FREE ENERGY PREDICTED BY IDOCK:   -5.02 KCAL/MOL
REMARK 924 INTRA-LIGAND FREE ENERGY PREDICTED BY IDOCK:   -0.43 KCAL/MOL
REMARK 927      BINDING AFFINITY PREDICTED BY RF-SCORE:    0.00 PKD
ROOT
HETATM    1  C   UNL     1     -10.451  19.967  65.864  1.00  0.00    -0.567 C  
HETATM    2  C   UNL     1     -10.315  19.863  67.368  1.00  0.00    -0.426 C  
ENDROOT
BRANCH   2   3
HETATM    3  O   UNL     1     -10.900  18.633  67.762  1.00  0.00    -0.390 OA 
HETATM    4  P   UNL     1     -10.258  17.178  67.080  1.00  0.00    -0.306 P  
HETATM    5  O   UNL     1     -11.210  16.351  68.163  1.00  0.00    -0.346 OA 
HETATM    6  S   UNL     1      -9.471  15.396  66.245  1.00  0.00    -0.332 SA 
HETATM    7  O   UNL     1      -8.881  17.378  67.722  1.00  0.00    -0.226 OA 
BRANCH   5   8
HETATM    8  C   UNL     1     -10.773  16.277  69.519  1.00  0.00    -0.323 C  
HETATM    9  C   UNL     1     -11.890  15.698  70.371  1.00  0.00    -0.395 C  
ENDBRANCH   5   8
BRANCH   6  10
HETATM   10  C   UNL     1      -9.562  14.073  67.464  1.00  0.00    -0.228 C  
BRANCH  10  11
HETATM   11  C   UNL     1      -9.649  12.699  66.793  1.00  0.00    -0.241 C  
BRANCH  11  12
HETATM   12  N   UNL     1     -11.070  12.069  66.870  1.00  0.00    -0.284 N  
HETATM   13  C   UNL     1     -11.833  12.238  65.556  1.00  0.00    -0.359 C  
HETATM   14  C   UNL     1     -11.844  12.801  67.970  1.00  0.00    -0.336 C  
HETATM   15  C   UNL     1     -11.004  10.590  67.235  1.00  0.00    -0.260 C  
ENDBRANCH  11  12
ENDBRANCH  10  11
ENDBRANCH   6  10
ENDBRANCH   2   3
TORSDOF 5
ENDMDL
MODEL       14
REMARK 921   NORMALIZED FREE ENERGY PREDICTED BY IDOCK:   -4.01 KCAL/MOL
REMARK 922        TOTAL FREE ENERGY PREDICTED BY IDOCK:   -5.43 KCAL/MOL
REMARK 923 INTER-LIGAND FREE ENERGY PREDICTED BY IDOCK:   -5.04 KCAL/MOL
REMARK 924 INTRA-LIGAND FREE ENERGY PREDICTED BY IDOCK:   -0.39 KCAL/MOL
REMARK 927      BINDING AFFINITY PREDICTED BY RF-SCORE:    0.00 PKD
ROOT
HETATM    1  C   UNL     1     -10.420   7.757  67.237  1.00  0.00    -0.392 C  
HETATM    2  C   UNL     1     -10.224   9.082  67.943  1.00  0.00    -0.221 C  
ENDROOT
BRANCH   2   3
HETATM    3  O   UNL     1     -11.111  10.013  67.347  1.00  0.00    -0.257 OA 
HETATM    4  P   UNL     1     -11.278  11.563  68.097  1.00  0.00    -0.325 P  
HETATM    5  O   UNL     1     -12.156  12.021  66.761  1.00  0.00    -0.613 OA 
HETATM    6  S   UNL     1     -11.484  13.463  69.016  1.00  0.00    -0.320 SA 
HETATM    7  O   UNL     1      -9.814  11.941  67.850  1.00  0.00    -0.180 OA 
BRANCH   5   8
HETATM    8  C   UNL     1     -11.442  12.331  65.566  1.00  0.00    -0.361 C  
HETATM    9  C   UNL     1     -12.434  12.527  64.431  1.00  0.00    -0.530 C  
ENDBRANCH   5   8
BRANCH   6  10
HETATM   10  C   UNL     1     -11.752  14.715  67.750  1.00  0.00    -0.359 C  
BRANCH  10  11
HETATM   11  C   UNL     1     -10.856  15.936  67.972  1.00  0.00    -0.317 C  
BRANCH  11  12
HETATM   12  N   UNL     1      -9.922  16.238  66.764  1.00  0.00    -0.252 N  
HETATM   13  C   UNL     1      -9.403  17.675  66.798  1.00  0.00    -0.278 C  
HETATM   14  C   UNL     1     -10.744  16.057  65.485  1.00  0.00    -0.361 C  
HETATM   15  C   UNL     1      -8.744  15.270  66.716  1.00  0.00    -0.270 C  
ENDBRANCH  11  12
ENDBRANCH  10  11
ENDBRANCH   6  10
ENDBRANCH   2   3
TORSDOF 5
ENDMDL
MODEL       15
REMARK 921   NORMALIZED FREE ENERGY PREDICTED BY IDOCK:   -3.99 KCAL/MOL
REMARK 922        TOTAL FREE ENERGY PREDICTED BY IDOCK:   -5.40 KCAL/MOL
REMARK 923 INTER-LIGAND FREE ENERGY PREDICTED BY IDOCK:   -4.95 KCAL/MOL
REMARK 924 INTRA-LIGAND FREE ENERGY PREDICTED BY IDOCK:   -0.45 KCAL/MOL
REMARK 927      BINDING AFFINITY PREDICTED BY RF-SCORE:    0.00 PKD
ROOT
HETATM    1  C   UNL     1      -9.206  19.836  66.102  1.00  0.00    -0.418 C  
HETATM    2  C   UNL     1     -10.617  19.286  66.073  1.00  0.00    -0.461 C  
ENDROOT
BRANCH   2   3
HETATM    3  O   UNL     1     -10.565  18.021  65.436  1.00  0.00    -0.648 OA 
HETATM    4  P   UNL     1      -9.638  16.772  66.193  1.00  0.00    -0.208 P  
HETATM    5  O   UNL     1     -10.286  15.728  65.073  1.00  0.00    -0.468 OA 
HETATM    6  S   UNL     1      -8.503  15.242  67.122  1.00  0.00    -0.224 SA 
HETATM    7  O   UNL     1     -10.531  16.740  67.438  1.00  0.00    -0.308 OA 
BRANCH   5   8
HETATM    8  C   UNL     1     -11.626  15.283  65.270  1.00  0.00    -0.139 C  
HETATM    9  C   UNL     1     -11.969  14.252  64.208  1.00  0.00    -0.449 C  
ENDBRANCH   5   8
BRANCH   6  10
HETATM   10  C   UNL     1      -9.292  13.649  66.830  1.00  0.00    -0.257 C  
BRANCH  10  11
HETATM   11  C   UNL     1      -9.607  12.931  68.145  1.00  0.00    -0.223 C  
BRANCH  11  12
HETATM   12  N   UNL     1     -11.083  12.447  68.241  1.00  0.00    -0.226 N  
HETATM   13  C   UNL     1     -11.583  11.895  66.905  1.00  0.00    -0.285 C  
HETATM   14  C   UNL     1     -11.946  13.657  68.611  1.00  0.00    -0.360 C  
HETATM   15  C   UNL     1     -11.252  11.389  69.326  1.00  0.00    -0.277 C  
ENDBRANCH  11  12
ENDBRANCH  10  11
ENDBRANCH   6  10
ENDBRANCH   2   3
TORSDOF 5
ENDMDL
MODEL       16
REMARK 921   NORMALIZED FREE ENERGY PREDICTED BY IDOCK:   -3.98 KCAL/MOL
REMARK 922        TOTAL FREE ENERGY PREDICTED BY IDOCK:   -5.38 KCAL/MOL
REMARK 923 INTER-LIGAND FREE ENERGY PREDICTED BY IDOCK:   -5.36 KCAL/MOL
REMARK 924 INTRA-LIGAND FREE ENERGY PREDICTED BY IDOCK:   -0.02 KCAL/MOL
REMARK 927      BINDING AFFINITY PREDICTED BY RF-SCORE:    0.00 PKD
ROOT
HETATM    1  C   UNL     1      -6.698  19.529  65.330  1.00  0.00    -0.283 C  
HETATM    2  C   UNL     1      -6.912  18.179  65.980  1.00  0.00    -0.292 C  
ENDROOT
BRANCH   2   3
HETATM    3  O   UNL     1      -8.308  18.015  66.165  1.00  0.00    -0.440 OA 
HETATM    4  P   UNL     1      -8.836  17.008  67.469  1.00  0.00    -0.214 P  
HETATM    5  O   UNL     1     -10.376  17.550  67.151  1.00  0.00    -0.320 OA 
HETATM    6  S   UNL     1      -9.485  15.774  69.066  1.00  0.00    -0.264 SA 
HETATM    7  O   UNL     1      -8.229  17.920  68.539  1.00  0.00    -0.288 OA 
BRANCH   5   8
HETATM    8  C   UNL     1     -10.733  18.854  67.603  1.00  0.00    -0.394 C  
HETATM    9  C   UNL     1     -10.610  19.832  66.446  1.00  0.00    -0.575 C  
ENDBRANCH   5   8
BRANCH   6  10
HETATM   10  C   UNL     1     -11.018  16.430  69.745  1.00  0.00    -0.341 C  
BRANCH  10  11
HETATM   11  C   UNL     1     -12.138  15.386  69.709  1.00  0.00    -0.347 C  
BRANCH  11  12
HETATM   12  N   UNL     1     -12.550  14.880  71.122  1.00  0.00    -0.309 N  
HETATM   13  C   UNL     1     -11.613  15.411  72.206  1.00  0.00    -0.459 C  
HETATM   14  C   UNL     1     -12.455  13.352  71.114  1.00  0.00    -0.327 C  
HETATM   15  C   UNL     1     -13.987  15.268  71.454  1.00  0.00    -0.508 C  
ENDBRANCH  11  12
ENDBRANCH  10  11
ENDBRANCH   6  10
ENDBRANCH   2   3
TORSDOF 5
ENDMDL
MODEL       17
REMARK 921   NORMALIZED FREE ENERGY PREDICTED BY IDOCK:   -3.97 KCAL/MOL
REMARK 922        TOTAL FREE ENERGY PREDICTED BY IDOCK:   -5.38 KCAL/MOL
REMARK 923 INTER-LIGAND FREE ENERGY PREDICTED BY IDOCK:   -5.04 KCAL/MOL
REMARK 924 INTRA-LIGAND FREE ENERGY PREDICTED BY IDOCK:   -0.34 KCAL/MOL
REMARK 927      BINDING AFFINITY PREDICTED BY RF-SCORE:    0.00 PKD
ROOT
HETATM    1  C   UNL     1     -11.178  10.628  69.172  1.00  0.00    -0.324 C  
HETATM    2  C   UNL     1     -11.853  11.676  68.314  1.00  0.00    -0.265 C  
ENDROOT
BRANCH   2   3
HETATM    3  O   UNL     1     -11.266  12.926  68.633  1.00  0.00    -0.248 OA 
HETATM    4  P   UNL     1     -10.784  13.950  67.324  1.00  0.00    -0.289 P  
HETATM    5  O   UNL     1     -10.511  15.133  68.461  1.00  0.00    -0.225 OA 
HETATM    6  S   UNL     1     -10.194  15.205  65.721  1.00  0.00    -0.372 SA 
HETATM    7  O   UNL     1     -12.217  14.116  66.808  1.00  0.00    -0.447 OA 
BRANCH   5   8
HETATM    8  C   UNL     1     -11.640  15.821  68.994  1.00  0.00    -0.400 C  
HETATM    9  C   UNL     1     -11.410  16.083  70.473  1.00  0.00    -0.420 C  
ENDBRANCH   5   8
BRANCH   6  10
HETATM   10  C   UNL     1     -10.436  16.927  66.187  1.00  0.00    -0.272 C  
BRANCH  10  11
HETATM   11  C   UNL     1      -9.106  17.612  66.510  1.00  0.00    -0.265 C  
BRANCH  11  12
HETATM   12  N   UNL     1      -9.280  19.046  67.090  1.00  0.00    -0.288 N  
HETATM   13  C   UNL     1      -9.538  19.018  68.596  1.00  0.00    -0.403 C  
HETATM   14  C   UNL     1     -10.497  19.678  66.408  1.00  0.00    -0.513 C  
HETATM   15  C   UNL     1      -8.062  19.917  66.796  1.00  0.00    -0.315 C  
ENDBRANCH  11  12
ENDBRANCH  10  11
ENDBRANCH   6  10
ENDBRANCH   2   3
TORSDOF 5
ENDMDL
MODEL       18
REMARK 921   NORMALIZED FREE ENERGY PREDICTED BY IDOCK:   -3.97 KCAL/MOL
REMARK 922        TOTAL FREE ENERGY PREDICTED BY IDOCK:   -5.37 KCAL/MOL
REMARK 923 INTER-LIGAND FREE ENERGY PREDICTED BY IDOCK:   -5.03 KCAL/MOL
REMARK 924 INTRA-LIGAND FREE ENERGY PREDICTED BY IDOCK:   -0.35 KCAL/MOL
REMARK 927      BINDING AFFINITY PREDICTED BY RF-SCORE:    0.00 PKD
ROOT
HETATM    1  C   UNL     1     -11.888   9.309  71.824  1.00  0.00    -0.454 C  
HETATM    2  C   UNL     1     -12.831  10.472  71.597  1.00  0.00    -0.475 C  
ENDROOT
BRANCH   2   3
HETATM    3  O   UNL     1     -12.084  11.508  70.982  1.00  0.00    -0.307 OA 
HETATM    4  P   UNL     1     -11.298  11.157  69.482  1.00  0.00    -0.310 P  
HETATM    5  O   UNL     1     -10.961  12.782  69.375  1.00  0.00    -0.125 OA 
HETATM    6  S   UNL     1     -10.335  10.726  67.643  1.00  0.00    -0.215 SA 
HETATM    7  O   UNL     1     -12.617  10.901  68.747  1.00  0.00    -0.317 OA 
BRANCH   5   8
HETATM    8  C   UNL     1     -12.012  13.658  68.976  1.00  0.00    -0.353 C  
HETATM    9  C   UNL     1     -12.021  14.872  69.890  1.00  0.00    -0.376 C  
ENDBRANCH   5   8
BRANCH   6  10
HETATM   10  C   UNL     1     -10.340  12.198  66.605  1.00  0.00    -0.208 C  
BRANCH  10  11
HETATM   11  C   UNL     1     -11.248  12.020  65.386  1.00  0.00    -0.322 C  
BRANCH  11  12
HETATM   12  N   UNL     1     -11.615  13.365  64.694  1.00  0.00    -0.340 N  
HETATM   13  C   UNL     1     -12.831  14.021  65.347  1.00  0.00    -0.410 C  
HETATM   14  C   UNL     1     -11.963  13.056  63.235  1.00  0.00    -0.421 C  
HETATM   15  C   UNL     1     -10.440  14.337  64.710  1.00  0.00    -0.395 C  
ENDBRANCH  11  12
ENDBRANCH  10  11
ENDBRANCH   6  10
ENDBRANCH   2   3
TORSDOF 5
ENDMDL
MODEL       19
REMARK 921   NORMALIZED FREE ENERGY PREDICTED BY IDOCK:   -3.96 KCAL/MOL
REMARK 922        TOTAL FREE ENERGY PREDICTED BY IDOCK:   -5.36 KCAL/MOL
REMARK 923 INTER-LIGAND FREE ENERGY PREDICTED BY IDOCK:   -5.16 KCAL/MOL
REMARK 924 INTRA-LIGAND FREE ENERGY PREDICTED BY IDOCK:   -0.21 KCAL/MOL
REMARK 927      BINDING AFFINITY PREDICTED BY RF-SCORE:    0.00 PKD
ROOT
HETATM    1  C   UNL     1     -10.136  11.170  63.397  1.00  0.00    -0.439 C  
HETATM    2  C   UNL     1     -10.155  10.977  64.898  1.00  0.00    -0.300 C  
ENDROOT
BRANCH   2   3
HETATM    3  O   UNL     1     -10.832  12.088  65.459  1.00  0.00    -0.274 OA 
HETATM    4  P   UNL     1     -11.351  11.971  67.105  1.00  0.00    -0.320 P  
HETATM    5  O   UNL     1     -11.729  13.588  67.013  1.00  0.00    -0.341 OA 
HETATM    6  S   UNL     1     -11.988  11.827  69.122  1.00  0.00    -0.253 SA 
HETATM    7  O   UNL     1      -9.922  11.852  67.643  1.00  0.00    -0.185 OA 
BRANCH   5   8
HETATM    8  C   UNL     1     -10.661  14.529  67.092  1.00  0.00    -0.286 C  
HETATM    9  C   UNL     1     -10.784  15.517  65.943  1.00  0.00    -0.346 C  
ENDBRANCH   5   8
BRANCH   6  10
HETATM   10  C   UNL     1     -11.872  13.445  69.904  1.00  0.00    -0.315 C  
BRANCH  10  11
HETATM   11  C   UNL     1     -12.567  13.459  71.268  1.00  0.00    -0.322 C  
BRANCH  11  12
HETATM   12  N   UNL     1     -12.877  14.894  71.783  1.00  0.00    -0.312 N  
HETATM   13  C   UNL     1     -11.937  15.930  71.166  1.00  0.00    -0.427 C  
HETATM   14  C   UNL     1     -12.665  14.899  73.299  1.00  0.00    -0.509 C  
HETATM   15  C   UNL     1     -14.324  15.286  71.501  1.00  0.00    -0.527 C  
ENDBRANCH  11  12
ENDBRANCH  10  11
ENDBRANCH   6  10
ENDBRANCH   2   3
TORSDOF 5
ENDMDL
MODEL       20
REMARK 921   NORMALIZED FREE ENERGY PREDICTED BY IDOCK:   -3.95 KCAL/MOL
REMARK 922        TOTAL FREE ENERGY PREDICTED BY IDOCK:   -5.36 KCAL/MOL
REMARK 923 INTER-LIGAND FREE ENERGY PREDICTED BY IDOCK:   -5.06 KCAL/MOL
REMARK 924 INTRA-LIGAND FREE ENERGY PREDICTED BY IDOCK:   -0.29 KCAL/MOL
REMARK 927      BINDING AFFINITY PREDICTED BY RF-SCORE:    0.00 PKD
ROOT
HETATM    1  C   UNL     1     -12.587  13.332  65.416  1.00  0.00    -0.526 C  
HETATM    2  C   UNL     1     -11.581  13.270  66.546  1.00  0.00    -0.350 C  
ENDROOT
BRANCH   2   3
HETATM    3  O   UNL     1     -12.119  12.421  67.545  1.00  0.00    -0.491 OA 
HETATM    4  P   UNL     1     -11.256  10.970  67.923  1.00  0.00    -0.291 P  
HETATM    5  O   UNL     1     -12.302  10.781  69.201  1.00  0.00    -0.400 OA 
HETATM    6  S   UNL     1     -10.198   9.193  68.386  1.00  0.00    -0.206 SA 
HETATM    7  O   UNL     1     -10.025  11.728  68.430  1.00  0.00    -0.194 OA 
BRANCH   5   8
HETATM    8  C   UNL     1     -12.090  11.580  70.363  1.00  0.00    -0.382 C  
HETATM    9  C   UNL     1     -12.930  11.031  71.504  1.00  0.00    -0.553 C  
ENDBRANCH   5   8
BRANCH   6  10
HETATM   10  C   UNL     1     -10.378   8.828  70.140  1.00  0.00    -0.208 C  
BRANCH  10  11
HETATM   11  C   UNL     1     -10.694   7.349  70.375  1.00  0.00    -0.237 C  
BRANCH  11  12
HETATM   12  N   UNL     1     -11.543   7.099  71.655  1.00  0.00    -0.264 N  
HETATM   13  C   UNL     1     -11.187   8.084  72.769  1.00  0.00    -0.382 C  
HETATM   14  C   UNL     1     -11.233   5.684  72.150  1.00  0.00    -0.227 C  
HETATM   15  C   UNL     1     -13.037   7.185  71.357  1.00  0.00    -0.352 C  
ENDBRANCH  11  12
ENDBRANCH  10  11
ENDBRANCH   6  10
ENDBRANCH   2   3
TORSDOF 5
ENDMDL
MODEL       21
REMARK 921   NORMALIZED FREE ENERGY PREDICTED BY IDOCK:   -3.94 KCAL/MOL
REMARK 922        TOTAL FREE ENERGY PREDICTED BY IDOCK:   -5.34 KCAL/MOL
REMARK 923 INTER-LIGAND FREE ENERGY PREDICTED BY IDOCK:   -5.06 KCAL/MOL
REMARK 924 INTRA-LIGAND FREE ENERGY PREDICTED BY IDOCK:   -0.29 KCAL/MOL
REMARK 927      BINDING AFFINITY PREDICTED BY RF-SCORE:    0.00 PKD
ROOT
HETATM    1  C   UNL     1     -12.203  12.574  63.538  1.00  0.00    -0.652 C  
HETATM    2  C   UNL     1     -11.961  13.794  64.402  1.00  0.00    -0.445 C  
ENDROOT
BRANCH   2   3
HETATM    3  O   UNL     1     -12.288  13.440  65.735  1.00  0.00    -0.437 OA 
HETATM    4  P   UNL     1     -11.434  12.117  66.452  1.00  0.00    -0.293 P  
HETATM    5  O   UNL     1     -12.153  12.542  67.890  1.00  0.00    -0.384 OA 
HETATM    6  S   UNL     1     -10.388  10.496  67.330  1.00  0.00    -0.240 SA 
HETATM    7  O   UNL     1     -10.081  12.830  66.374  1.00  0.00    -0.248 OA 
BRANCH   5   8
HETATM    8  C   UNL     1     -11.630  13.666  68.593  1.00  0.00    -0.329 C  
HETATM    9  C   UNL     1     -12.135  13.636  70.026  1.00  0.00    -0.417 C  
ENDBRANCH   5   8
BRANCH   6  10
HETATM   10  C   UNL     1     -10.163  10.811  69.089  1.00  0.00    -0.211 C  
BRANCH  10  11
HETATM   11  C   UNL     1      -9.502   9.621  69.790  1.00  0.00    -0.220 C  
BRANCH  11  12
HETATM   12  N   UNL     1     -10.429   8.932  70.833  1.00  0.00    -0.218 N  
HETATM   13  C   UNL     1      -9.673   8.579  72.114  1.00  0.00    -0.317 C  
HETATM   14  C   UNL     1     -10.945   7.633  70.208  1.00  0.00    -0.252 C  
HETATM   15  C   UNL     1     -11.631   9.808  71.174  1.00  0.00    -0.392 C  
ENDBRANCH  11  12
ENDBRANCH  10  11
ENDBRANCH   6  10
ENDBRANCH   2   3
TORSDOF 5
ENDMDL
MODEL       22
REMARK 921   NORMALIZED FREE ENERGY PREDICTED BY IDOCK:   -3.90 KCAL/MOL
REMARK 922        TOTAL FREE ENERGY PREDICTED BY IDOCK:   -5.29 KCAL/MOL
REMARK 923 INTER-LIGAND FREE ENERGY PREDICTED BY IDOCK:   -4.93 KCAL/MOL
REMARK 924 INTRA-LIGAND FREE ENERGY PREDICTED BY IDOCK:   -0.37 KCAL/MOL
REMARK 927      BINDING AFFINITY PREDICTED BY RF-SCORE:    0.00 PKD
ROOT
HETATM    1  C   UNL     1      -9.589  20.423  67.192  1.00  0.00    -0.587 C  
HETATM    2  C   UNL     1     -10.165  19.738  68.413  1.00  0.00    -0.449 C  
ENDROOT
BRANCH   2   3
HETATM    3  O   UNL     1      -9.465  18.518  68.584  1.00  0.00    -0.333 OA 
HETATM    4  P   UNL     1     -10.385  17.053  68.599  1.00  0.00    -0.374 P  
HETATM    5  O   UNL     1      -8.935  16.241  68.561  1.00  0.00    -0.201 OA 
HETATM    6  S   UNL     1     -11.513  15.258  68.617  1.00  0.00    -0.351 SA 
HETATM    7  O   UNL     1     -10.862  17.232  67.154  1.00  0.00    -0.231 OA 
BRANCH   5   8
HETATM    8  C   UNL     1      -8.245  16.161  67.316  1.00  0.00    -0.177 C  
HETATM    9  C   UNL     1      -7.076  15.200  67.457  1.00  0.00    -0.225 C  
ENDBRANCH   5   8
BRANCH   6  10
HETATM   10  C   UNL     1     -10.549  13.937  67.864  1.00  0.00    -0.245 C  
BRANCH  10  11
HETATM   11  C   UNL     1     -11.441  12.966  67.086  1.00  0.00    -0.336 C  
BRANCH  11  12
HETATM   12  N   UNL     1     -11.515  13.287  65.565  1.00  0.00    -0.306 N  
HETATM   13  C   UNL     1     -10.410  14.253  65.138  1.00  0.00    -0.415 C  
HETATM   14  C   UNL     1     -12.865  13.957  65.297  1.00  0.00    -0.398 C  
HETATM   15  C   UNL     1     -11.436  12.017  64.724  1.00  0.00    -0.298 C  
ENDBRANCH  11  12
ENDBRANCH  10  11
ENDBRANCH   6  10
ENDBRANCH   2   3
TORSDOF 5
ENDMDL
MODEL       23
REMARK 921   NORMALIZED FREE ENERGY PREDICTED BY IDOCK:   -3.89 KCAL/MOL
REMARK 922        TOTAL FREE ENERGY PREDICTED BY IDOCK:   -5.27 KCAL/MOL
REMARK 923 INTER-LIGAND FREE ENERGY PREDICTED BY IDOCK:   -4.81 KCAL/MOL
REMARK 924 INTRA-LIGAND FREE ENERGY PREDICTED BY IDOCK:   -0.46 KCAL/MOL
REMARK 927      BINDING AFFINITY PREDICTED BY RF-SCORE:    0.00 PKD
ROOT
HETATM    1  C   UNL     1      -9.685  20.367  66.926  1.00  0.00    -0.567 C  
HETATM    2  C   UNL     1     -10.354  19.371  66.003  1.00  0.00    -0.497 C  
ENDROOT
BRANCH   2   3
HETATM    3  O   UNL     1     -10.645  18.214  66.768  1.00  0.00    -0.357 OA 
HETATM    4  P   UNL     1     -10.632  16.686  65.958  1.00  0.00    -0.087 P  
HETATM    5  O   UNL     1     -10.771  15.984  67.460  1.00  0.00    -0.312 OA 
HETATM    6  S   UNL     1     -10.617  14.812  64.966  1.00  0.00    -0.409 SA 
HETATM    7  O   UNL     1      -9.141  16.776  65.618  1.00  0.00    -0.489 OA 
BRANCH   5   8
HETATM    8  C   UNL     1      -9.604  15.912  68.275  1.00  0.00    -0.205 C  
HETATM    9  C   UNL     1     -10.021  15.716  69.724  1.00  0.00    -0.281 C  
ENDBRANCH   5   8
BRANCH   6  10
HETATM   10  C   UNL     1     -10.019  13.542  66.093  1.00  0.00    -0.304 C  
BRANCH  10  11
HETATM   11  C   UNL     1     -11.153  12.624  66.555  1.00  0.00    -0.280 C  
BRANCH  11  12
HETATM   12  N   UNL     1     -10.865  11.930  67.918  1.00  0.00    -0.203 N  
HETATM   13  C   UNL     1     -11.744  12.494  69.034  1.00  0.00    -0.318 C  
HETATM   14  C   UNL     1      -9.402  12.203  68.277  1.00  0.00    -0.198 C  
HETATM   15  C   UNL     1     -11.061  10.420  67.826  1.00  0.00    -0.299 C  
ENDBRANCH  11  12
ENDBRANCH  10  11
ENDBRANCH   6  10
ENDBRANCH   2   3
TORSDOF 5
ENDMDL
MODEL       24
REMARK 921   NORMALIZED FREE ENERGY PREDICTED BY IDOCK:   -3.88 KCAL/MOL
REMARK 922        TOTAL FREE ENERGY PREDICTED BY IDOCK:   -5.26 KCAL/MOL
REMARK 923 INTER-LIGAND FREE ENERGY PREDICTED BY IDOCK:   -4.98 KCAL/MOL
REMARK 924 INTRA-LIGAND FREE ENERGY PREDICTED BY IDOCK:   -0.29 KCAL/MOL
REMARK 927      BINDING AFFINITY PREDICTED BY RF-SCORE:    0.00 PKD
ROOT
HETATM    1  C   UNL     1     -10.129  20.007  66.267  1.00  0.00    -0.603 C  
HETATM    2  C   UNL     1     -10.632  19.254  67.480  1.00  0.00    -0.474 C  
ENDROOT
BRANCH   2   3
HETATM    3  O   UNL     1      -9.807  18.113  67.642  1.00  0.00    -0.293 OA 
HETATM    4  P   UNL     1     -10.512  16.559  67.359  1.00  0.00    -0.264 P  
HETATM    5  O   UNL     1      -8.977  15.933  67.480  1.00  0.00    -0.190 OA 
HETATM    6  S   UNL     1     -11.377  14.655  67.013  1.00  0.00    -0.361 SA 
HETATM    7  O   UNL     1     -10.786  16.852  65.880  1.00  0.00    -0.268 OA 
BRANCH   5   8
HETATM    8  C   UNL     1      -8.103  16.084  66.364  1.00  0.00    -0.220 C  
HETATM    9  C   UNL     1      -6.747  16.565  66.855  1.00  0.00    -0.233 C  
ENDBRANCH   5   8
BRANCH   6  10
HETATM   10  C   UNL     1     -10.141  13.556  66.302  1.00  0.00    -0.298 C  
BRANCH  10  11
HETATM   11  C   UNL     1     -10.292  13.452  64.782  1.00  0.00    -0.379 C  
BRANCH  11  12
HETATM   12  N   UNL     1     -10.655  12.018  64.298  1.00  0.00    -0.306 N  
HETATM   13  C   UNL     1      -9.788  11.585  63.116  1.00  0.00    -0.390 C  
HETATM   14  C   UNL     1     -12.115  12.039  63.838  1.00  0.00    -0.457 C  
HETATM   15  C   UNL     1     -10.525  11.001  65.428  1.00  0.00    -0.241 C  
ENDBRANCH  11  12
ENDBRANCH  10  11
ENDBRANCH   6  10
ENDBRANCH   2   3
TORSDOF 5
ENDMDL
MODEL       25
REMARK 921   NORMALIZED FREE ENERGY PREDICTED BY IDOCK:   -3.88 KCAL/MOL
REMARK 922        TOTAL FREE ENERGY PREDICTED BY IDOCK:   -5.26 KCAL/MOL
REMARK 923 INTER-LIGAND FREE ENERGY PREDICTED BY IDOCK:   -4.94 KCAL/MOL
REMARK 924 INTRA-LIGAND FREE ENERGY PREDICTED BY IDOCK:   -0.33 KCAL/MOL
REMARK 927      BINDING AFFINITY PREDICTED BY RF-SCORE:    0.00 PKD
ROOT
HETATM    1  C   UNL     1     -12.525  12.094  64.165  1.00  0.00    -0.497 C  
HETATM    2  C   UNL     1     -11.618  12.803  65.148  1.00  0.00    -0.338 C  
ENDROOT
BRANCH   2   3
HETATM    3  O   UNL     1     -12.039  12.436  66.452  1.00  0.00    -0.607 OA 
HETATM    4  P   UNL     1     -11.178  11.167  67.251  1.00  0.00    -0.124 P  
HETATM    5  O   UNL     1     -12.042  11.556  68.618  1.00  0.00    -0.483 OA 
HETATM    6  S   UNL     1     -10.123   9.611  68.231  1.00  0.00    -0.186 SA 
HETATM    7  O   UNL     1      -9.865  11.955  67.284  1.00  0.00    -0.186 OA 
BRANCH   5   8
HETATM    8  C   UNL     1     -11.645  12.711  69.353  1.00  0.00    -0.306 C  
HETATM    9  C   UNL     1     -12.397  12.743  70.674  1.00  0.00    -0.381 C  
ENDBRANCH   5   8
BRANCH   6  10
HETATM   10  C   UNL     1     -10.069   9.945  70.000  1.00  0.00    -0.260 C  
BRANCH  10  11
HETATM   11  C   UNL     1      -9.927   8.654  70.810  1.00  0.00    -0.197 C  
BRANCH  11  12
HETATM   12  N   UNL     1     -11.269   8.169  71.430  1.00  0.00    -0.248 N  
HETATM   13  C   UNL     1     -12.338   9.261  71.385  1.00  0.00    -0.343 C  
HETATM   14  C   UNL     1     -11.004   7.819  72.896  1.00  0.00    -0.407 C  
HETATM   15  C   UNL     1     -11.787   6.918  70.726  1.00  0.00    -0.377 C  
ENDBRANCH  11  12
ENDBRANCH  10  11
ENDBRANCH   6  10
ENDBRANCH   2   3
TORSDOF 5
ENDMDL
MODEL       26
REMARK 921   NORMALIZED FREE ENERGY PREDICTED BY IDOCK:   -3.87 KCAL/MOL
REMARK 922        TOTAL FREE ENERGY PREDICTED BY IDOCK:   -5.25 KCAL/MOL
REMARK 923 INTER-LIGAND FREE ENERGY PREDICTED BY IDOCK:   -5.03 KCAL/MOL
REMARK 924 INTRA-LIGAND FREE ENERGY PREDICTED BY IDOCK:   -0.22 KCAL/MOL
REMARK 927      BINDING AFFINITY PREDICTED BY RF-SCORE:    0.00 PKD
ROOT
HETATM    1  C   UNL     1      -8.909  10.034  63.510  1.00  0.00    -0.251 C  
HETATM    2  C   UNL     1      -9.307   9.804  64.952  1.00  0.00    -0.265 C  
ENDROOT
BRANCH   2   3
HETATM    3  O   UNL     1     -10.513  10.514  65.177  1.00  0.00    -0.270 OA 
HETATM    4  P   UNL     1     -10.585  11.573  66.543  1.00  0.00    -0.275 P  
HETATM    5  O   UNL     1     -12.037  12.114  65.942  1.00  0.00    -0.594 OA 
HETATM    6  S   UNL     1     -10.672  12.869  68.218  1.00  0.00    -0.251 SA 
HETATM    7  O   UNL     1      -9.482  12.490  66.005  1.00  0.00    -0.231 OA 
BRANCH   5   8
HETATM    8  C   UNL     1     -12.010  13.025  64.846  1.00  0.00    -0.396 C  
HETATM    9  C   UNL     1     -12.531  12.323  63.603  1.00  0.00    -0.647 C  
ENDBRANCH   5   8
BRANCH   6  10
HETATM   10  C   UNL     1     -11.697  14.295  67.819  1.00  0.00    -0.374 C  
BRANCH  10  11
HETATM   11  C   UNL     1     -11.248  15.540  68.588  1.00  0.00    -0.325 C  
BRANCH  11  12
HETATM   12  N   UNL     1     -10.209  16.399  67.812  1.00  0.00    -0.266 N  
HETATM   13  C   UNL     1     -10.519  17.892  67.918  1.00  0.00    -0.396 C  
HETATM   14  C   UNL     1     -10.285  15.999  66.336  1.00  0.00    -0.305 C  
HETATM   15  C   UNL     1      -8.789  16.136  68.305  1.00  0.00    -0.188 C  
ENDBRANCH  11  12
ENDBRANCH  10  11
ENDBRANCH   6  10
ENDBRANCH   2   3
TORSDOF 5
ENDMDL
MODEL       27
REMARK 921   NORMALIZED FREE ENERGY PREDICTED BY IDOCK:   -3.87 KCAL/MOL
REMARK 922        TOTAL FREE ENERGY PREDICTED BY IDOCK:   -5.25 KCAL/MOL
REMARK 923 INTER-LIGAND FREE ENERGY PREDICTED BY IDOCK:   -5.01 KCAL/MOL
REMARK 924 INTRA-LIGAND FREE ENERGY PREDICTED BY IDOCK:   -0.24 KCAL/MOL
REMARK 927      BINDING AFFINITY PREDICTED BY RF-SCORE:    0.00 PKD
ROOT
HETATM    1  C   UNL     1      -8.972  17.742  66.612  1.00  0.00    -0.283 C  
HETATM    2  C   UNL     1     -10.338  17.582  65.981  1.00  0.00    -0.306 C  
ENDROOT
BRANCH   2   3
HETATM    3  O   UNL     1     -10.335  16.354  65.273  1.00  0.00    -0.581 OA 
HETATM    4  P   UNL     1     -10.193  14.893  66.188  1.00  0.00    -0.341 P  
HETATM    5  O   UNL     1     -10.522  14.076  64.777  1.00  0.00    -0.413 OA 
HETATM    6  S   UNL     1     -10.019  13.103  67.310  1.00  0.00    -0.234 SA 
HETATM    7  O   UNL     1     -11.520  15.117  66.922  1.00  0.00    -0.314 OA 
BRANCH   5   8
HETATM    8  C   UNL     1     -11.875  14.031  64.330  1.00  0.00    -0.431 C  
HETATM    9  C   UNL     1     -12.035  12.887  63.344  1.00  0.00    -0.612 C  
ENDBRANCH   5   8
BRANCH   6  10
HETATM   10  C   UNL     1     -10.976  11.801  66.514  1.00  0.00    -0.295 C  
BRANCH  10  11
HETATM   11  C   UNL     1     -11.006  10.529  67.364  1.00  0.00    -0.288 C  
BRANCH  11  12
HETATM   12  N   UNL     1     -10.026   9.431  66.859  1.00  0.00    -0.211 N  
HETATM   13  C   UNL     1     -10.621   8.031  67.010  1.00  0.00    -0.294 C  
HETATM   14  C   UNL     1      -8.760   9.507  67.716  1.00  0.00    -0.115 C  
HETATM   15  C   UNL     1      -9.632   9.663  65.403  1.00  0.00    -0.291 C  
ENDBRANCH  11  12
ENDBRANCH  10  11
ENDBRANCH   6  10
ENDBRANCH   2   3
TORSDOF 5
ENDMDL
MODEL       28
REMARK 921   NORMALIZED FREE ENERGY PREDICTED BY IDOCK:   -3.84 KCAL/MOL
REMARK 922        TOTAL FREE ENERGY PREDICTED BY IDOCK:   -5.22 KCAL/MOL
REMARK 923 INTER-LIGAND FREE ENERGY PREDICTED BY IDOCK:   -4.97 KCAL/MOL
REMARK 924 INTRA-LIGAND FREE ENERGY PREDICTED BY IDOCK:   -0.24 KCAL/MOL
REMARK 927      BINDING AFFINITY PREDICTED BY RF-SCORE:    0.00 PKD
ROOT
HETATM    1  C   UNL     1     -10.024   9.405  66.257  1.00  0.00    -0.353 C  
HETATM    2  C   UNL     1     -10.661  10.331  67.271  1.00  0.00    -0.267 C  
ENDROOT
BRANCH   2   3
HETATM    3  O   UNL     1     -11.141  11.464  66.567  1.00  0.00    -0.292 OA 
HETATM    4  P   UNL     1     -10.451  13.004  66.949  1.00  0.00    -0.258 P  
HETATM    5  O   UNL     1     -11.280  13.605  65.639  1.00  0.00    -0.296 OA 
HETATM    6  S   UNL     1      -9.606  14.891  67.417  1.00  0.00    -0.208 SA 
HETATM    7  O   UNL     1      -9.053  12.596  66.474  1.00  0.00    -0.223 OA 
BRANCH   5   8
HETATM    8  C   UNL     1     -10.756  13.344  64.339  1.00  0.00    -0.408 C  
HETATM    9  C   UNL     1     -11.878  12.856  63.438  1.00  0.00    -0.576 C  
ENDBRANCH   5   8
BRANCH   6  10
HETATM   10  C   UNL     1      -9.536  15.901  65.928  1.00  0.00    -0.343 C  
BRANCH  10  11
HETATM   11  C   UNL     1     -10.478  17.104  66.023  1.00  0.00    -0.266 C  
BRANCH  11  12
HETATM   12  N   UNL     1      -9.828  18.339  66.711  1.00  0.00    -0.323 N  
HETATM   13  C   UNL     1     -10.246  18.453  68.177  1.00  0.00    -0.384 C  
HETATM   14  C   UNL     1     -10.315  19.591  65.976  1.00  0.00    -0.511 C  
HETATM   15  C   UNL     1      -8.306  18.291  66.617  1.00  0.00    -0.264 C  
ENDBRANCH  11  12
ENDBRANCH  10  11
ENDBRANCH   6  10
ENDBRANCH   2   3
TORSDOF 5
ENDMDL
MODEL       29
REMARK 921   NORMALIZED FREE ENERGY PREDICTED BY IDOCK:   -3.80 KCAL/MOL
REMARK 922        TOTAL FREE ENERGY PREDICTED BY IDOCK:   -5.16 KCAL/MOL
REMARK 923 INTER-LIGAND FREE ENERGY PREDICTED BY IDOCK:   -4.74 KCAL/MOL
REMARK 924 INTRA-LIGAND FREE ENERGY PREDICTED BY IDOCK:   -0.43 KCAL/MOL
REMARK 927      BINDING AFFINITY PREDICTED BY RF-SCORE:    0.00 PKD
ROOT
HETATM    1  C   UNL     1      -9.891   7.916  68.421  1.00  0.00    -0.185 C  
HETATM    2  C   UNL     1     -10.112   9.250  69.100  1.00  0.00    -0.199 C  
ENDROOT
BRANCH   2   3
HETATM    3  O   UNL     1     -10.967  10.013  68.265  1.00  0.00    -0.248 OA 
HETATM    4  P   UNL     1     -11.250  11.665  68.693  1.00  0.00    -0.308 P  
HETATM    5  O   UNL     1     -12.014  11.827  67.224  1.00  0.00    -0.618 OA 
HETATM    6  S   UNL     1     -11.597  13.690  69.217  1.00  0.00    -0.328 SA 
HETATM    7  O   UNL     1      -9.782  12.060  68.506  1.00  0.00    -0.207 OA 
BRANCH   5   8
HETATM    8  C   UNL     1     -11.202  11.943  66.058  1.00  0.00    -0.324 C  
HETATM    9  C   UNL     1     -12.087  12.268  64.866  1.00  0.00    -0.422 C  
ENDBRANCH   5   8
BRANCH   6  10
HETATM   10  C   UNL     1     -11.785  14.673  67.719  1.00  0.00    -0.359 C  
BRANCH  10  11
HETATM   11  C   UNL     1     -10.895  15.918  67.752  1.00  0.00    -0.324 C  
BRANCH  11  12
HETATM   12  N   UNL     1      -9.952  16.030  66.519  1.00  0.00    -0.265 N  
HETATM   13  C   UNL     1     -10.700  15.769  65.212  1.00  0.00    -0.428 C  
HETATM   14  C   UNL     1      -8.864  14.963  66.669  1.00  0.00    -0.254 C  
HETATM   15  C   UNL     1      -9.276  17.396  66.458  1.00  0.00    -0.266 C  
ENDBRANCH  11  12
ENDBRANCH  10  11
ENDBRANCH   6  10
ENDBRANCH   2   3
TORSDOF 5
ENDMDL
MODEL       30
REMARK 921   NORMALIZED FREE ENERGY PREDICTED BY IDOCK:   -3.79 KCAL/MOL
REMARK 922        TOTAL FREE ENERGY PREDICTED BY IDOCK:   -5.15 KCAL/MOL
REMARK 923 INTER-LIGAND FREE ENERGY PREDICTED BY IDOCK:   -4.82 KCAL/MOL
REMARK 924 INTRA-LIGAND FREE ENERGY PREDICTED BY IDOCK:   -0.33 KCAL/MOL
REMARK 927      BINDING AFFINITY PREDICTED BY RF-SCORE:    0.00 PKD
ROOT
HETATM    1  C   UNL     1     -11.979  12.825  63.402  1.00  0.00    -0.613 C  
HETATM    2  C   UNL     1     -12.136  12.316  64.819  1.00  0.00    -0.365 C  
ENDROOT
BRANCH   2   3
HETATM    3  O   UNL     1     -10.969  12.686  65.533  1.00  0.00    -0.270 OA 
HETATM    4  P   UNL     1     -10.686  14.371  65.801  1.00  0.00    -0.344 P  
HETATM    5  O   UNL     1      -9.444  13.916  66.809  1.00  0.00    -0.260 OA 
HETATM    6  S   UNL     1     -10.339  16.437  66.130  1.00  0.00    -0.335 SA 
HETATM    7  O   UNL     1     -11.946  14.540  66.656  1.00  0.00    -0.393 OA 
BRANCH   5   8
HETATM    8  C   UNL     1      -9.778  13.446  68.113  1.00  0.00    -0.226 C  
HETATM    9  C   UNL     1      -9.075  12.121  68.359  1.00  0.00    -0.151 C  
ENDBRANCH   5   8
BRANCH   6  10
HETATM   10  C   UNL     1      -9.538  16.663  67.727  1.00  0.00    -0.236 C  
BRANCH  10  11
HETATM   11  C   UNL     1      -8.250  17.480  67.597  1.00  0.00    -0.215 C  
BRANCH  11  12
HETATM   12  N   UNL     1      -8.431  18.975  67.989  1.00  0.00    -0.292 N  
HETATM   13  C   UNL     1      -8.458  19.882  66.758  1.00  0.00    -0.328 C  
HETATM   14  C   UNL     1      -7.233  19.377  68.853  1.00  0.00    -0.362 C  
HETATM   15  C   UNL     1      -9.702  19.187  68.806  1.00  0.00    -0.430 C  
ENDBRANCH  11  12
ENDBRANCH  10  11
ENDBRANCH   6  10
ENDBRANCH   2   3
TORSDOF 5
ENDMDL
MODEL       31
REMARK 921   NORMALIZED FREE ENERGY PREDICTED BY IDOCK:   -3.79 KCAL/MOL
REMARK 922        TOTAL FREE ENERGY PREDICTED BY IDOCK:   -5.15 KCAL/MOL
REMARK 923 INTER-LIGAND FREE ENERGY PREDICTED BY IDOCK:   -4.88 KCAL/MOL
REMARK 924 INTRA-LIGAND FREE ENERGY PREDICTED BY IDOCK:   -0.27 KCAL/MOL
REMARK 927      BINDING AFFINITY PREDICTED BY RF-SCORE:    0.00 PKD
ROOT
HETATM    1  C   UNL     1      -9.494  20.588  67.143  1.00  0.00    -0.544 C  
HETATM    2  C   UNL     1      -8.174  19.847  67.190  1.00  0.00    -0.312 C  
ENDROOT
BRANCH   2   3
HETATM    3  O   UNL     1      -8.430  18.561  67.730  1.00  0.00    -0.263 OA 
HETATM    4  P   UNL     1      -9.372  17.461  66.784  1.00  0.00    -0.288 P  
HETATM    5  O   UNL     1      -8.976  16.294  67.901  1.00  0.00    -0.186 OA 
HETATM    6  S   UNL     1     -10.527  16.113  65.625  1.00  0.00    -0.359 SA 
HETATM    7  O   UNL     1      -8.338  17.403  65.656  1.00  0.00    -0.487 OA 
BRANCH   5   8
HETATM    8  C   UNL     1      -7.672  15.721  67.835  1.00  0.00    -0.133 C  
HETATM    9  C   UNL     1      -7.039  15.767  69.216  1.00  0.00    -0.199 C  
ENDBRANCH   5   8
BRANCH   6  10
HETATM   10  C   UNL     1      -9.942  14.432  65.901  1.00  0.00    -0.328 C  
BRANCH  10  11
HETATM   11  C   UNL     1     -10.037  13.590  64.626  1.00  0.00    -0.217 C  
BRANCH  11  12
HETATM   12  N   UNL     1     -11.010  12.383  64.761  1.00  0.00    -0.290 N  
HETATM   13  C   UNL     1     -11.702  12.366  66.124  1.00  0.00    -0.400 C  
HETATM   14  C   UNL     1     -10.181  11.102  64.630  1.00  0.00    -0.317 C  
HETATM   15  C   UNL     1     -12.060  12.388  63.655  1.00  0.00    -0.556 C  
ENDBRANCH  11  12
ENDBRANCH  10  11
ENDBRANCH   6  10
ENDBRANCH   2   3
TORSDOF 5
ENDMDL
MODEL       32
REMARK 921   NORMALIZED FREE ENERGY PREDICTED BY IDOCK:   -3.76 KCAL/MOL
REMARK 922        TOTAL FREE ENERGY PREDICTED BY IDOCK:   -5.10 KCAL/MOL
REMARK 923 INTER-LIGAND FREE ENERGY PREDICTED BY IDOCK:   -4.82 KCAL/MOL
REMARK 924 INTRA-LIGAND FREE ENERGY PREDICTED BY IDOCK:   -0.28 KCAL/MOL
REMARK 927      BINDING AFFINITY PREDICTED BY RF-SCORE:    0.00 PKD
ROOT
HETATM    1  C   UNL     1      -9.704  19.957  66.402  1.00  0.00    -0.558 C  
HETATM    2  C   UNL     1      -9.231  19.513  67.770  1.00  0.00    -0.324 C  
ENDROOT
BRANCH   2   3
HETATM    3  O   UNL     1     -10.177  18.578  68.261  1.00  0.00    -0.361 OA 
HETATM    4  P   UNL     1     -10.393  17.107  67.376  1.00  0.00    -0.305 P  
HETATM    5  O   UNL     1     -11.329  16.580  68.645  1.00  0.00    -0.344 OA 
HETATM    6  S   UNL     1     -10.658  15.305  66.291  1.00  0.00    -0.317 SA 
HETATM    7  O   UNL     1      -8.955  16.640  67.626  1.00  0.00    -0.203 OA 
BRANCH   5   8
HETATM    8  C   UNL     1     -10.666  16.136  69.826  1.00  0.00    -0.336 C  
HETATM    9  C   UNL     1     -11.698  15.896  70.916  1.00  0.00    -0.456 C  
ENDBRANCH   5   8
BRANCH   6  10
HETATM   10  C   UNL     1     -11.020  13.964  67.437  1.00  0.00    -0.288 C  
BRANCH  10  11
HETATM   11  C   UNL     1     -11.499  12.712  66.699  1.00  0.00    -0.351 C  
BRANCH  11  12
HETATM   12  N   UNL     1     -10.504  11.520  66.803  1.00  0.00    -0.230 N  
HETATM   13  C   UNL     1     -10.223  10.899  65.435  1.00  0.00    -0.277 C  
HETATM   14  C   UNL     1     -11.149  10.452  67.690  1.00  0.00    -0.293 C  
HETATM   15  C   UNL     1      -9.190  11.948  67.449  1.00  0.00    -0.177 C  
ENDBRANCH  11  12
ENDBRANCH  10  11
ENDBRANCH   6  10
ENDBRANCH   2   3
TORSDOF 5
ENDMDL
MODEL       33
REMARK 921   NORMALIZED FREE ENERGY PREDICTED BY IDOCK:   -3.74 KCAL/MOL
REMARK 922        TOTAL FREE ENERGY PREDICTED BY IDOCK:   -5.08 KCAL/MOL
REMARK 923 INTER-LIGAND FREE ENERGY PREDICTED BY IDOCK:   -4.82 KCAL/MOL
REMARK 924 INTRA-LIGAND FREE ENERGY PREDICTED BY IDOCK:   -0.26 KCAL/MOL
REMARK 927      BINDING AFFINITY PREDICTED BY RF-SCORE:    0.00 PKD
ROOT
HETATM    1  C   UNL     1     -10.295  17.529  68.682  1.00  0.00    -0.369 C  
HETATM    2  C   UNL     1     -10.879  16.484  67.756  1.00  0.00    -0.304 C  
ENDROOT
BRANCH   2   3
HETATM    3  O   UNL     1     -11.738  15.666  68.532  1.00  0.00    -0.371 OA 
HETATM    4  P   UNL     1     -11.603  13.951  68.348  1.00  0.00    -0.373 P  
HETATM    5  O   UNL     1     -12.628  13.815  69.650  1.00  0.00    -0.217 OA 
HETATM    6  S   UNL     1     -11.437  11.849  68.123  1.00  0.00    -0.338 SA 
HETATM    7  O   UNL     1     -10.165  13.917  68.876  1.00  0.00    -0.213 OA 
BRANCH   5   8
HETATM    8  C   UNL     1     -12.087  14.031  70.952  1.00  0.00    -0.329 C  
HETATM    9  C   UNL     1     -13.187  13.843  71.984  1.00  0.00    -0.503 C  
ENDBRANCH   5   8
BRANCH   6  10
HETATM   10  C   UNL     1     -11.762  11.050  69.703  1.00  0.00    -0.329 C  
BRANCH  10  11
HETATM   11  C   UNL     1     -11.150   9.648  69.758  1.00  0.00    -0.217 C  
BRANCH  11  12
HETATM   12  N   UNL     1     -11.491   8.881  71.069  1.00  0.00    -0.282 N  
HETATM   13  C   UNL     1     -12.558   9.609  71.887  1.00  0.00    -0.396 C  
HETATM   14  C   UNL     1     -10.213   8.806  71.908  1.00  0.00    -0.345 C  
HETATM   15  C   UNL     1     -11.955   7.458  70.776  1.00  0.00    -0.230 C  
ENDBRANCH  11  12
ENDBRANCH  10  11
ENDBRANCH   6  10
ENDBRANCH   2   3
TORSDOF 5
ENDMDL
MODEL       34
REMARK 921   NORMALIZED FREE ENERGY PREDICTED BY IDOCK:   -3.72 KCAL/MOL
REMARK 922        TOTAL FREE ENERGY PREDICTED BY IDOCK:   -5.06 KCAL/MOL
REMARK 923 INTER-LIGAND FREE ENERGY PREDICTED BY IDOCK:   -4.83 KCAL/MOL
REMARK 924 INTRA-LIGAND FREE ENERGY PREDICTED BY IDOCK:   -0.23 KCAL/MOL
REMARK 927      BINDING AFFINITY PREDICTED BY RF-SCORE:    0.00 PKD
ROOT
HETATM    1  C   UNL     1     -11.707  13.445  64.427  1.00  0.00    -0.435 C  
HETATM    2  C   UNL     1     -12.780  13.892  65.396  1.00  0.00    -0.490 C  
ENDROOT
BRANCH   2   3
HETATM    3  O   UNL     1     -12.161  14.079  66.657  1.00  0.00    -0.428 OA 
HETATM    4  P   UNL     1     -10.561  14.736  66.681  1.00  0.00    -0.312 P  
HETATM    5  O   UNL     1     -10.725  14.855  68.332  1.00  0.00    -0.235 OA 
HETATM    6  S   UNL     1      -8.600  15.541  66.711  1.00  0.00    -0.290 SA 
HETATM    7  O   UNL     1     -11.001  16.068  66.068  1.00  0.00    -0.233 OA 
BRANCH   5   8
HETATM    8  C   UNL     1     -11.509  15.927  68.850  1.00  0.00    -0.386 C  
HETATM    9  C   UNL     1     -11.405  15.932  70.366  1.00  0.00    -0.399 C  
ENDBRANCH   5   8
BRANCH   6  10
HETATM   10  C   UNL     1      -8.399  16.575  68.172  1.00  0.00    -0.186 C  
BRANCH  10  11
HETATM   11  C   UNL     1      -7.380  17.692  67.932  1.00  0.00    -0.202 C  
BRANCH  11  12
HETATM   12  N   UNL     1      -8.023  19.107  67.874  1.00  0.00    -0.276 N  
HETATM   13  C   UNL     1      -8.075  19.645  66.444  1.00  0.00    -0.326 C  
HETATM   14  C   UNL     1      -7.151  20.049  68.708  1.00  0.00    -0.244 C  
HETATM   15  C   UNL     1      -9.428  19.104  68.469  1.00  0.00    -0.389 C  
ENDBRANCH  11  12
ENDBRANCH  10  11
ENDBRANCH   6  10
ENDBRANCH   2   3
TORSDOF 5
ENDMDL
MODEL       35
REMARK 921   NORMALIZED FREE ENERGY PREDICTED BY IDOCK:   -3.72 KCAL/MOL
REMARK 922        TOTAL FREE ENERGY PREDICTED BY IDOCK:   -5.05 KCAL/MOL
REMARK 923 INTER-LIGAND FREE ENERGY PREDICTED BY IDOCK:   -4.75 KCAL/MOL
REMARK 924 INTRA-LIGAND FREE ENERGY PREDICTED BY IDOCK:   -0.31 KCAL/MOL
REMARK 927      BINDING AFFINITY PREDICTED BY RF-SCORE:    0.00 PKD
ROOT
HETATM    1  C   UNL     1     -11.757  12.449  65.206  1.00  0.00    -0.437 C  
HETATM    2  C   UNL     1     -11.483  13.742  64.470  1.00  0.00    -0.384 C  
ENDROOT
BRANCH   2   3
HETATM    3  O   UNL     1     -10.266  14.266  64.974  1.00  0.00    -0.402 OA 
HETATM    4  P   UNL     1     -10.313  15.805  65.762  1.00  0.00    -0.409 P  
HETATM    5  O   UNL     1      -8.736  15.529  66.212  1.00  0.00    -0.304 OA 
HETATM    6  S   UNL     1     -10.372  17.692  66.728  1.00  0.00    -0.306 SA 
HETATM    7  O   UNL     1     -11.219  15.301  66.889  1.00  0.00    -0.322 OA 
BRANCH   5   8
HETATM    8  C   UNL     1      -8.497  14.634  67.295  1.00  0.00    -0.215 C  
HETATM    9  C   UNL     1      -6.998  14.452  67.469  1.00  0.00    -0.182 C  
ENDBRANCH   5   8
BRANCH   6  10
HETATM   10  C   UNL     1      -9.162  17.720  68.061  1.00  0.00    -0.273 C  
BRANCH  10  11
HETATM   11  C   UNL     1      -8.763  19.152  68.425  1.00  0.00    -0.351 C  
BRANCH  11  12
HETATM   12  N   UNL     1      -7.282  19.483  68.079  1.00  0.00    -0.269 N  
HETATM   13  C   UNL     1      -7.170  20.755  67.239  1.00  0.00    -0.360 C  
HETATM   14  C   UNL     1      -6.725  18.317  67.258  1.00  0.00    -0.195 C  
HETATM   15  C   UNL     1      -6.435  19.628  69.340  1.00  0.00    -0.335 C  
ENDBRANCH  11  12
ENDBRANCH  10  11
ENDBRANCH   6  10
ENDBRANCH   2   3
TORSDOF 5
ENDMDL
MODEL       36
REMARK 921   NORMALIZED FREE ENERGY PREDICTED BY IDOCK:   -3.72 KCAL/MOL
REMARK 922        TOTAL FREE ENERGY PREDICTED BY IDOCK:   -5.05 KCAL/MOL
REMARK 923 INTER-LIGAND FREE ENERGY PREDICTED BY IDOCK:   -4.72 KCAL/MOL
REMARK 924 INTRA-LIGAND FREE ENERGY PREDICTED BY IDOCK:   -0.33 KCAL/MOL
REMARK 927      BINDING AFFINITY PREDICTED BY RF-SCORE:    0.00 PKD
ROOT
HETATM    1  C   UNL     1      -5.407  20.459  63.613  1.00  0.00    -0.249 C  
HETATM    2  C   UNL     1      -5.297  19.306  64.587  1.00  0.00    -0.203 C  
ENDROOT
BRANCH   2   3
HETATM    3  O   UNL     1      -6.615  18.886  64.896  1.00  0.00    -0.500 OA 
HETATM    4  P   UNL     1      -6.827  17.803  66.228  1.00  0.00    -0.302 P  
HETATM    5  O   UNL     1      -8.463  18.047  66.057  1.00  0.00    -0.494 OA 
HETATM    6  S   UNL     1      -7.087  16.476  67.861  1.00  0.00    -0.143 SA 
HETATM    7  O   UNL     1      -6.305  18.816  67.251  1.00  0.00    -0.185 OA 
BRANCH   5   8
HETATM    8  C   UNL     1      -9.013  19.264  66.556  1.00  0.00    -0.346 C  
HETATM    9  C   UNL     1     -10.484  19.336  66.179  1.00  0.00    -0.577 C  
ENDBRANCH   5   8
BRANCH   6  10
HETATM   10  C   UNL     1      -8.647  16.837  68.684  1.00  0.00    -0.263 C  
BRANCH  10  11
HETATM   11  C   UNL     1      -9.175  15.616  69.442  1.00  0.00    -0.279 C  
BRANCH  11  12
HETATM   12  N   UNL     1     -10.711  15.416  69.288  1.00  0.00    -0.237 N  
HETATM   13  C   UNL     1     -11.078  13.937  69.175  1.00  0.00    -0.245 C  
HETATM   14  C   UNL     1     -11.143  16.117  67.997  1.00  0.00    -0.317 C  
HETATM   15  C   UNL     1     -11.474  16.044  70.450  1.00  0.00    -0.377 C  
ENDBRANCH  11  12
ENDBRANCH  10  11
ENDBRANCH   6  10
ENDBRANCH   2   3
TORSDOF 5
ENDMDL
MODEL       37
REMARK 921   NORMALIZED FREE ENERGY PREDICTED BY IDOCK:   -3.71 KCAL/MOL
REMARK 922        TOTAL FREE ENERGY PREDICTED BY IDOCK:   -5.04 KCAL/MOL
REMARK 923 INTER-LIGAND FREE ENERGY PREDICTED BY IDOCK:   -4.90 KCAL/MOL
REMARK 924 INTRA-LIGAND FREE ENERGY PREDICTED BY IDOCK:   -0.14 KCAL/MOL
REMARK 927      BINDING AFFINITY PREDICTED BY RF-SCORE:    0.00 PKD
ROOT
HETATM    1  C   UNL     1     -10.551  19.522  65.711  1.00  0.00    -0.522 C  
HETATM    2  C   UNL     1     -10.330  18.262  66.519  1.00  0.00    -0.392 C  
ENDROOT
BRANCH   2   3
HETATM    3  O   UNL     1     -10.379  17.168  65.619  1.00  0.00    -0.557 OA 
HETATM    4  P   UNL     1      -9.850  15.624  66.193  1.00  0.00    -0.371 P  
HETATM    5  O   UNL     1     -10.443  14.988  64.776  1.00  0.00    -0.381 OA 
HETATM    6  S   UNL     1      -9.202  13.732  66.897  1.00  0.00    -0.245 SA 
HETATM    7  O   UNL     1     -10.958  15.536  67.248  1.00  0.00    -0.317 OA 
BRANCH   5   8
HETATM    8  C   UNL     1     -11.853  14.809  64.662  1.00  0.00    -0.436 C  
HETATM    9  C   UNL     1     -12.135  13.702  63.659  1.00  0.00    -0.397 C  
ENDBRANCH   5   8
BRANCH   6  10
HETATM   10  C   UNL     1     -10.187  12.437  66.127  1.00  0.00    -0.242 C  
BRANCH  10  11
HETATM   11  C   UNL     1      -9.381  11.146  65.958  1.00  0.00    -0.206 C  
BRANCH  11  12
HETATM   12  N   UNL     1      -9.618  10.122  67.106  1.00  0.00    -0.165 N  
HETATM   13  C   UNL     1      -8.504  10.177  68.150  1.00  0.00    -0.118 C  
HETATM   14  C   UNL     1      -9.622   8.722  66.485  1.00  0.00    -0.237 C  
HETATM   15  C   UNL     1     -10.966  10.348  67.784  1.00  0.00    -0.309 C  
ENDBRANCH  11  12
ENDBRANCH  10  11
ENDBRANCH   6  10
ENDBRANCH   2   3
TORSDOF 5
ENDMDL
MODEL       38
REMARK 921   NORMALIZED FREE ENERGY PREDICTED BY IDOCK:   -3.70 KCAL/MOL
REMARK 922        TOTAL FREE ENERGY PREDICTED BY IDOCK:   -5.03 KCAL/MOL
REMARK 923 INTER-LIGAND FREE ENERGY PREDICTED BY IDOCK:   -4.69 KCAL/MOL
REMARK 924 INTRA-LIGAND FREE ENERGY PREDICTED BY IDOCK:   -0.34 KCAL/MOL
REMARK 927      BINDING AFFINITY PREDICTED BY RF-SCORE:    0.00 PKD
ROOT
HETATM    1  C   UNL     1     -10.731  19.813  67.001  1.00  0.00    -0.542 C  
HETATM    2  C   UNL     1      -9.324  19.582  66.491  1.00  0.00    -0.370 C  
ENDROOT
BRANCH   2   3
HETATM    3  O   UNL     1      -8.834  18.410  67.121  1.00  0.00    -0.256 OA 
HETATM    4  P   UNL     1      -9.873  17.028  67.177  1.00  0.00    -0.288 P  
HETATM    5  O   UNL     1      -8.565  16.173  67.747  1.00  0.00    -0.165 OA 
HETATM    6  S   UNL     1     -11.146  15.334  67.246  1.00  0.00    -0.299 SA 
HETATM    7  O   UNL     1      -9.904  16.877  65.653  1.00  0.00    -0.549 OA 
BRANCH   5   8
HETATM    8  C   UNL     1      -7.567  15.774  66.811  1.00  0.00    -0.142 C  
HETATM    9  C   UNL     1      -6.194  16.049  67.400  1.00  0.00    -0.191 C  
ENDBRANCH   5   8
BRANCH   6  10
HETATM   10  C   UNL     1     -10.156  13.835  67.116  1.00  0.00    -0.241 C  
BRANCH  10  11
HETATM   11  C   UNL     1     -10.099  13.325  65.673  1.00  0.00    -0.272 C  
BRANCH  11  12
HETATM   12  N   UNL     1     -11.009  12.087  65.425  1.00  0.00    -0.292 N  
HETATM   13  C   UNL     1     -12.351  12.487  64.812  1.00  0.00    -0.474 C  
HETATM   14  C   UNL     1     -11.280  11.430  66.782  1.00  0.00    -0.252 C  
HETATM   15  C   UNL     1     -10.322  11.063  64.527  1.00  0.00    -0.354 C  
ENDBRANCH  11  12
ENDBRANCH  10  11
ENDBRANCH   6  10
ENDBRANCH   2   3
TORSDOF 5
ENDMDL
MODEL       39
REMARK 921   NORMALIZED FREE ENERGY PREDICTED BY IDOCK:   -3.69 KCAL/MOL
REMARK 922        TOTAL FREE ENERGY PREDICTED BY IDOCK:   -5.02 KCAL/MOL
REMARK 923 INTER-LIGAND FREE ENERGY PREDICTED BY IDOCK:   -4.64 KCAL/MOL
REMARK 924 INTRA-LIGAND FREE ENERGY PREDICTED BY IDOCK:   -0.38 KCAL/MOL
REMARK 927      BINDING AFFINITY PREDICTED BY RF-SCORE:    0.00 PKD
ROOT
HETATM    1  C   UNL     1      -9.547   9.213  69.951  1.00  0.00    -0.206 C  
HETATM    2  C   UNL     1     -10.952   9.778  69.956  1.00  0.00    -0.277 C  
ENDROOT
BRANCH   2   3
HETATM    3  O   UNL     1     -10.840  11.190  69.909  1.00  0.00    -0.169 OA 
HETATM    4  P   UNL     1     -10.786  11.946  68.353  1.00  0.00    -0.259 P  
HETATM    5  O   UNL     1     -10.924  13.400  69.148  1.00  0.00    -0.237 OA 
HETATM    6  S   UNL     1     -10.721  12.871  66.447  1.00  0.00    -0.273 SA 
HETATM    7  O   UNL     1     -12.197  11.479  67.979  1.00  0.00    -0.582 OA 
BRANCH   5   8
HETATM    8  C   UNL     1     -12.210  13.778  69.633  1.00  0.00    -0.305 C  
HETATM    9  C   UNL     1     -12.068  14.336  71.039  1.00  0.00    -0.416 C  
ENDBRANCH   5   8
BRANCH   6  10
HETATM   10  C   UNL     1     -11.549  14.468  66.528  1.00  0.00    -0.371 C  
BRANCH  10  11
HETATM   11  C   UNL     1     -10.905  15.481  65.578  1.00  0.00    -0.361 C  
BRANCH  11  12
HETATM   12  N   UNL     1     -10.110  16.596  66.317  1.00  0.00    -0.313 N  
HETATM   13  C   UNL     1      -8.602  16.349  66.254  1.00  0.00    -0.340 C  
HETATM   14  C   UNL     1     -10.537  16.574  67.787  1.00  0.00    -0.332 C  
HETATM   15  C   UNL     1     -10.425  17.976  65.748  1.00  0.00    -0.198 C  
ENDBRANCH  11  12
ENDBRANCH  10  11
ENDBRANCH   6  10
ENDBRANCH   2   3
TORSDOF 5
ENDMDL
MODEL       40
REMARK 921   NORMALIZED FREE ENERGY PREDICTED BY IDOCK:   -3.67 KCAL/MOL
REMARK 922        TOTAL FREE ENERGY PREDICTED BY IDOCK:   -4.99 KCAL/MOL
REMARK 923 INTER-LIGAND FREE ENERGY PREDICTED BY IDOCK:   -4.64 KCAL/MOL
REMARK 924 INTRA-LIGAND FREE ENERGY PREDICTED BY IDOCK:   -0.35 KCAL/MOL
REMARK 927      BINDING AFFINITY PREDICTED BY RF-SCORE:    0.00 PKD
ROOT
HETATM    1  C   UNL     1     -11.904  14.168  64.595  1.00  0.00    -0.443 C  
HETATM    2  C   UNL     1     -12.384  13.973  66.018  1.00  0.00    -0.473 C  
ENDROOT
BRANCH   2   3
HETATM    3  O   UNL     1     -11.257  13.618  66.800  1.00  0.00    -0.302 OA 
HETATM    4  P   UNL     1     -11.505  12.547  68.136  1.00  0.00    -0.360 P  
HETATM    5  O   UNL     1      -9.850  12.471  68.274  1.00  0.00    -0.222 OA 
HETATM    6  S   UNL     1     -11.810  11.234  69.772  1.00  0.00    -0.392 SA 
HETATM    7  O   UNL     1     -11.956  11.389  67.240  1.00  0.00    -0.580 OA 
BRANCH   5   8
HETATM    8  C   UNL     1      -9.139  11.653  67.348  1.00  0.00    -0.169 C  
HETATM    9  C   UNL     1      -7.648  11.900  67.509  1.00  0.00    -0.140 C  
ENDBRANCH   5   8
BRANCH   6  10
HETATM   10  C   UNL     1     -10.364  10.179  69.970  1.00  0.00    -0.250 C  
BRANCH  10  11
HETATM   11  C   UNL     1     -10.673   8.729  69.587  1.00  0.00    -0.208 C  
BRANCH  11  12
HETATM   12  N   UNL     1     -10.704   7.766  70.809  1.00  0.00    -0.223 N  
HETATM   13  C   UNL     1     -10.477   8.514  72.123  1.00  0.00    -0.342 C  
HETATM   14  C   UNL     1      -9.568   6.755  70.632  1.00  0.00    -0.169 C  
HETATM   15  C   UNL     1     -12.020   6.998  70.879  1.00  0.00    -0.364 C  
ENDBRANCH  11  12
ENDBRANCH  10  11
ENDBRANCH   6  10
ENDBRANCH   2   3
TORSDOF 5
ENDMDL
MODEL       41
REMARK 921   NORMALIZED FREE ENERGY PREDICTED BY IDOCK:   -3.65 KCAL/MOL
REMARK 922        TOTAL FREE ENERGY PREDICTED BY IDOCK:   -4.96 KCAL/MOL
REMARK 923 INTER-LIGAND FREE ENERGY PREDICTED BY IDOCK:   -4.71 KCAL/MOL
REMARK 924 INTRA-LIGAND FREE ENERGY PREDICTED BY IDOCK:   -0.25 KCAL/MOL
REMARK 927      BINDING AFFINITY PREDICTED BY RF-SCORE:    0.00 PKD
ROOT
HETATM    1  C   UNL     1      -9.648   6.930  74.079  1.00  0.00    -0.299 C  
HETATM    2  C   UNL     1     -10.720   6.891  73.011  1.00  0.00    -0.297 C  
ENDROOT
BRANCH   2   3
HETATM    3  O   UNL     1     -10.955   8.227  72.599  1.00  0.00    -0.352 OA 
HETATM    4  P   UNL     1     -10.602   8.640  70.957  1.00  0.00    -0.262 P  
HETATM    5  O   UNL     1     -11.343  10.099  71.253  1.00  0.00    -0.325 OA 
HETATM    6  S   UNL     1     -10.169   9.146  68.944  1.00  0.00    -0.211 SA 
HETATM    7  O   UNL     1     -11.657   7.682  70.394  1.00  0.00    -0.231 OA 
BRANCH   5   8
HETATM    8  C   UNL     1     -12.768  10.132  71.281  1.00  0.00    -0.407 C  
HETATM    9  C   UNL     1     -13.222  11.418  71.951  1.00  0.00    -0.485 C  
ENDBRANCH   5   8
BRANCH   6  10
HETATM   10  C   UNL     1     -11.351  10.377  68.369  1.00  0.00    -0.227 C  
BRANCH  10  11
HETATM   11  C   UNL     1     -10.923  10.980  67.028  1.00  0.00    -0.272 C  
BRANCH  11  12
HETATM   12  N   UNL     1     -11.136  12.519  66.953  1.00  0.00    -0.265 N  
HETATM   13  C   UNL     1     -11.740  13.069  68.245  1.00  0.00    -0.353 C  
HETATM   14  C   UNL     1     -12.117  12.797  65.811  1.00  0.00    -0.448 C  
HETATM   15  C   UNL     1      -9.831  13.248  66.649  1.00  0.00    -0.276 C  
ENDBRANCH  11  12
ENDBRANCH  10  11
ENDBRANCH   6  10
ENDBRANCH   2   3
TORSDOF 5
ENDMDL
MODEL       42
REMARK 921   NORMALIZED FREE ENERGY PREDICTED BY IDOCK:   -3.64 KCAL/MOL
REMARK 922        TOTAL FREE ENERGY PREDICTED BY IDOCK:   -4.95 KCAL/MOL
REMARK 923 INTER-LIGAND FREE ENERGY PREDICTED BY IDOCK:   -4.68 KCAL/MOL
REMARK 924 INTRA-LIGAND FREE ENERGY PREDICTED BY IDOCK:   -0.27 KCAL/MOL
REMARK 927      BINDING AFFINITY PREDICTED BY RF-SCORE:    0.00 PKD
ROOT
HETATM    1  C   UNL     1      -5.513  20.873  68.825  1.00  0.00    -0.391 C  
HETATM    2  C   UNL     1      -6.251  19.627  69.266  1.00  0.00    -0.302 C  
ENDROOT
BRANCH   2   3
HETATM    3  O   UNL     1      -7.264  19.375  68.307  1.00  0.00    -0.273 OA 
HETATM    4  P   UNL     1      -7.419  17.762  67.701  1.00  0.00    -0.206 P  
HETATM    5  O   UNL     1      -8.824  18.263  66.966  1.00  0.00    -0.254 OA 
HETATM    6  S   UNL     1      -7.609  15.785  66.959  1.00  0.00    -0.199 SA 
HETATM    7  O   UNL     1      -7.786  17.186  69.072  1.00  0.00    -0.235 OA 
BRANCH   5   8
HETATM    8  C   UNL     1      -9.989  18.404  67.775  1.00  0.00    -0.346 C  
HETATM    9  C   UNL     1     -10.818  19.567  67.256  1.00  0.00    -0.557 C  
ENDBRANCH   5   8
BRANCH   6  10
HETATM   10  C   UNL     1      -9.345  15.432  66.633  1.00  0.00    -0.263 C  
BRANCH  10  11
HETATM   11  C   UNL     1      -9.816  14.190  67.395  1.00  0.00    -0.239 C  
BRANCH  11  12
HETATM   12  N   UNL     1     -11.348  14.186  67.671  1.00  0.00    -0.303 N  
HETATM   13  C   UNL     1     -11.756  15.326  68.605  1.00  0.00    -0.346 C  
HETATM   14  C   UNL     1     -11.692  12.860  68.356  1.00  0.00    -0.345 C  
HETATM   15  C   UNL     1     -12.147  14.276  66.375  1.00  0.00    -0.419 C  
ENDBRANCH  11  12
ENDBRANCH  10  11
ENDBRANCH   6  10
ENDBRANCH   2   3
TORSDOF 5
ENDMDL
MODEL       43
REMARK 921   NORMALIZED FREE ENERGY PREDICTED BY IDOCK:   -3.64 KCAL/MOL
REMARK 922        TOTAL FREE ENERGY PREDICTED BY IDOCK:   -4.95 KCAL/MOL
REMARK 923 INTER-LIGAND FREE ENERGY PREDICTED BY IDOCK:   -4.52 KCAL/MOL
REMARK 924 INTRA-LIGAND FREE ENERGY PREDICTED BY IDOCK:   -0.42 KCAL/MOL
REMARK 927      BINDING AFFINITY PREDICTED BY RF-SCORE:    0.00 PKD
ROOT
HETATM    1  C   UNL     1      -9.157  19.647  67.239  1.00  0.00    -0.396 C  
HETATM    2  C   UNL     1      -8.755  18.525  68.173  1.00  0.00    -0.310 C  
ENDROOT
BRANCH   2   3
HETATM    3  O   UNL     1      -9.866  17.652  68.287  1.00  0.00    -0.290 OA 
HETATM    4  P   UNL     1     -10.276  16.683  66.914  1.00  0.00    -0.279 P  
HETATM    5  O   UNL     1     -11.351  15.887  67.903  1.00  0.00    -0.330 OA 
HETATM    6  S   UNL     1     -10.779  15.495  65.232  1.00  0.00    -0.437 SA 
HETATM    7  O   UNL     1      -8.951  15.915  66.947  1.00  0.00    -0.202 OA 
BRANCH   5   8
HETATM    8  C   UNL     1     -10.832  14.925  68.818  1.00  0.00    -0.252 C  
HETATM    9  C   UNL     1     -11.989  14.214  69.500  1.00  0.00    -0.389 C  
ENDBRANCH   5   8
BRANCH   6  10
HETATM   10  C   UNL     1     -11.417  13.906  65.790  1.00  0.00    -0.321 C  
BRANCH  10  11
HETATM   11  C   UNL     1     -10.725  12.742  65.073  1.00  0.00    -0.296 C  
BRANCH  11  12
HETATM   12  N   UNL     1     -10.217  11.639  66.046  1.00  0.00    -0.224 N  
HETATM   13  C   UNL     1     -11.196  11.407  67.197  1.00  0.00    -0.296 C  
HETATM   14  C   UNL     1      -8.889  12.119  66.638  1.00  0.00    -0.182 C  
HETATM   15  C   UNL     1      -9.967  10.324  65.314  1.00  0.00    -0.317 C  
ENDBRANCH  11  12
ENDBRANCH  10  11
ENDBRANCH   6  10
ENDBRANCH   2   3
TORSDOF 5
ENDMDL
MODEL       44
REMARK 921   NORMALIZED FREE ENERGY PREDICTED BY IDOCK:   -3.63 KCAL/MOL
REMARK 922        TOTAL FREE ENERGY PREDICTED BY IDOCK:   -4.94 KCAL/MOL
REMARK 923 INTER-LIGAND FREE ENERGY PREDICTED BY IDOCK:   -4.66 KCAL/MOL
REMARK 924 INTRA-LIGAND FREE ENERGY PREDICTED BY IDOCK:   -0.28 KCAL/MOL
REMARK 927      BINDING AFFINITY PREDICTED BY RF-SCORE:    0.00 PKD
ROOT
HETATM    1  C   UNL     1     -11.871   8.334  71.869  1.00  0.00    -0.380 C  
HETATM    2  C   UNL     1     -13.093   9.194  72.112  1.00  0.00    -0.446 C  
ENDROOT
BRANCH   2   3
HETATM    3  O   UNL     1     -12.692  10.546  71.976  1.00  0.00    -0.384 OA 
HETATM    4  P   UNL     1     -12.102  11.063  70.434  1.00  0.00    -0.402 P  
HETATM    5  O   UNL     1     -12.139  12.613  71.033  1.00  0.00    -0.219 OA 
HETATM    6  S   UNL     1     -11.379  11.695  68.544  1.00  0.00    -0.305 SA 
HETATM    7  O   UNL     1     -13.438  10.797  69.733  1.00  0.00     0.256 OA 
BRANCH   5   8
HETATM    8  C   UNL     1     -13.403  13.268  71.116  1.00  0.00     0.020 C  
HETATM    9  C   UNL     1     -13.558  13.874  72.501  1.00  0.00    -0.680 C  
ENDBRANCH   5   8
BRANCH   6  10
HETATM   10  C   UNL     1     -11.863  13.406  68.259  1.00  0.00    -0.358 C  
BRANCH  10  11
HETATM   11  C   UNL     1     -10.786  14.172  67.487  1.00  0.00    -0.269 C  
BRANCH  11  12
HETATM   12  N   UNL     1     -11.045  14.215  65.953  1.00  0.00    -0.302 N  
HETATM   13  C   UNL     1     -10.662  15.569  65.355  1.00  0.00    -0.405 C  
HETATM   14  C   UNL     1     -12.544  14.001  65.730  1.00  0.00    -0.479 C  
HETATM   15  C   UNL     1     -10.290  13.105  65.230  1.00  0.00    -0.305 C  
ENDBRANCH  11  12
ENDBRANCH  10  11
ENDBRANCH   6  10
ENDBRANCH   2   3
TORSDOF 5
ENDMDL
MODEL       45
REMARK 921   NORMALIZED FREE ENERGY PREDICTED BY IDOCK:   -3.63 KCAL/MOL
REMARK 922        TOTAL FREE ENERGY PREDICTED BY IDOCK:   -4.94 KCAL/MOL
REMARK 923 INTER-LIGAND FREE ENERGY PREDICTED BY IDOCK:   -4.62 KCAL/MOL
REMARK 924 INTRA-LIGAND FREE ENERGY PREDICTED BY IDOCK:   -0.32 KCAL/MOL
REMARK 927      BINDING AFFINITY PREDICTED BY RF-SCORE:    0.00 PKD
ROOT
HETATM    1  C   UNL     1     -11.328   6.290  69.826  1.00  0.00    -0.506 C  
HETATM    2  C   UNL     1     -10.289   7.121  69.105  1.00  0.00    -0.200 C  
ENDROOT
BRANCH   2   3
HETATM    3  O   UNL     1     -10.426   8.457  69.557  1.00  0.00    -0.220 OA 
HETATM    4  P   UNL     1      -9.883   9.724  68.512  1.00  0.00    -0.168 P  
HETATM    5  O   UNL     1     -10.594  10.789  69.573  1.00  0.00    -0.223 OA 
HETATM    6  S   UNL     1      -9.217  11.277  67.231  1.00  0.00    -0.167 SA 
HETATM    7  O   UNL     1     -10.908   9.389  67.424  1.00  0.00    -0.263 OA 
BRANCH   5   8
HETATM    8  C   UNL     1     -12.011  10.935  69.525  1.00  0.00    -0.330 C  
HETATM    9  C   UNL     1     -12.564  10.884  70.940  1.00  0.00    -0.494 C  
ENDBRANCH   5   8
BRANCH   6  10
HETATM   10  C   UNL     1     -10.282  12.715  67.431  1.00  0.00    -0.217 C  
BRANCH  10  11
HETATM   11  C   UNL     1     -10.075  13.726  66.299  1.00  0.00    -0.300 C  
BRANCH  11  12
HETATM   12  N   UNL     1     -11.156  13.626  65.184  1.00  0.00    -0.308 N  
HETATM   13  C   UNL     1     -12.401  12.884  65.670  1.00  0.00    -0.423 C  
HETATM   14  C   UNL     1     -10.552  12.834  64.021  1.00  0.00    -0.416 C  
HETATM   15  C   UNL     1     -11.553  15.006  64.668  1.00  0.00    -0.386 C  
ENDBRANCH  11  12
ENDBRANCH  10  11
ENDBRANCH   6  10
ENDBRANCH   2   3
TORSDOF 5
ENDMDL
MODEL       46
REMARK 921   NORMALIZED FREE ENERGY PREDICTED BY IDOCK:   -3.62 KCAL/MOL
REMARK 922        TOTAL FREE ENERGY PREDICTED BY IDOCK:   -4.92 KCAL/MOL
REMARK 923 INTER-LIGAND FREE ENERGY PREDICTED BY IDOCK:   -4.57 KCAL/MOL
REMARK 924 INTRA-LIGAND FREE ENERGY PREDICTED BY IDOCK:   -0.35 KCAL/MOL
REMARK 927      BINDING AFFINITY PREDICTED BY RF-SCORE:    0.00 PKD
ROOT
HETATM    1  C   UNL     1     -11.570  15.764  64.455  1.00  0.00    -0.247 C  
HETATM    2  C   UNL     1     -12.153  14.369  64.378  1.00  0.00    -0.470 C  
ENDROOT
BRANCH   2   3
HETATM    3  O   UNL     1     -11.089  13.455  64.579  1.00  0.00    -0.346 OA 
HETATM    4  P   UNL     1     -10.733  12.972  66.202  1.00  0.00    -0.282 P  
HETATM    5  O   UNL     1      -9.699  11.845  65.551  1.00  0.00    -0.233 OA 
HETATM    6  S   UNL     1     -10.298  12.381  68.191  1.00  0.00    -0.231 SA 
HETATM    7  O   UNL     1     -12.097  12.302  66.397  1.00  0.00    -0.623 OA 
BRANCH   5   8
HETATM    8  C   UNL     1     -10.265  10.661  64.992  1.00  0.00    -0.310 C  
HETATM    9  C   UNL     1      -9.730  10.471  63.583  1.00  0.00    -0.375 C  
ENDBRANCH   5   8
BRANCH   6  10
HETATM   10  C   UNL     1      -9.743  10.668  68.198  1.00  0.00    -0.156 C  
BRANCH  10  11
HETATM   11  C   UNL     1     -10.851   9.722  68.668  1.00  0.00    -0.188 C  
BRANCH  11  12
HETATM   12  N   UNL     1     -10.582   9.112  70.074  1.00  0.00    -0.218 N  
HETATM   13  C   UNL     1     -10.949   7.629  70.124  1.00  0.00    -0.246 C  
HETATM   14  C   UNL     1     -11.462   9.858  71.080  1.00  0.00    -0.388 C  
HETATM   15  C   UNL     1      -9.124   9.292  70.488  1.00  0.00    -0.259 C  
ENDBRANCH  11  12
ENDBRANCH  10  11
ENDBRANCH   6  10
ENDBRANCH   2   3
TORSDOF 5
ENDMDL
MODEL       47
REMARK 921   NORMALIZED FREE ENERGY PREDICTED BY IDOCK:   -3.60 KCAL/MOL
REMARK 922        TOTAL FREE ENERGY PREDICTED BY IDOCK:   -4.90 KCAL/MOL
REMARK 923 INTER-LIGAND FREE ENERGY PREDICTED BY IDOCK:   -4.59 KCAL/MOL
REMARK 924 INTRA-LIGAND FREE ENERGY PREDICTED BY IDOCK:   -0.31 KCAL/MOL
REMARK 927      BINDING AFFINITY PREDICTED BY RF-SCORE:    0.00 PKD
ROOT
HETATM    1  C   UNL     1     -11.502   6.354  70.146  1.00  0.00    -0.484 C  
HETATM    2  C   UNL     1     -10.665   7.096  69.125  1.00  0.00    -0.198 C  
ENDROOT
BRANCH   2   3
HETATM    3  O   UNL     1     -10.614   8.454  69.527  1.00  0.00    -0.227 OA 
HETATM    4  P   UNL     1      -9.886   9.590  68.444  1.00  0.00    -0.170 P  
HETATM    5  O   UNL     1     -10.446  10.786  69.455  1.00  0.00    -0.220 OA 
HETATM    6  S   UNL     1      -8.993  10.982  67.117  1.00  0.00    -0.144 SA 
HETATM    7  O   UNL     1     -10.939   9.364  67.355  1.00  0.00    -0.210 OA 
BRANCH   5   8
HETATM    8  C   UNL     1     -11.828  11.130  69.382  1.00  0.00    -0.345 C  
HETATM    9  C   UNL     1     -12.398  11.198  70.789  1.00  0.00    -0.504 C  
ENDBRANCH   5   8
BRANCH   6  10
HETATM   10  C   UNL     1      -9.843  12.565  67.249  1.00  0.00    -0.204 C  
BRANCH  10  11
HETATM   11  C   UNL     1     -10.466  12.979  65.913  1.00  0.00    -0.281 C  
BRANCH  11  12
HETATM   12  N   UNL     1     -11.387  14.227  66.028  1.00  0.00    -0.328 N  
HETATM   13  C   UNL     1     -10.784  15.440  65.319  1.00  0.00    -0.421 C  
HETATM   14  C   UNL     1     -11.530  14.565  67.515  1.00  0.00    -0.356 C  
HETATM   15  C   UNL     1     -12.777  13.946  65.466  1.00  0.00    -0.499 C  
ENDBRANCH  11  12
ENDBRANCH  10  11
ENDBRANCH   6  10
ENDBRANCH   2   3
TORSDOF 5
ENDMDL
MODEL       48
REMARK 921   NORMALIZED FREE ENERGY PREDICTED BY IDOCK:   -3.59 KCAL/MOL
REMARK 922        TOTAL FREE ENERGY PREDICTED BY IDOCK:   -4.89 KCAL/MOL
REMARK 923 INTER-LIGAND FREE ENERGY PREDICTED BY IDOCK:   -4.63 KCAL/MOL
REMARK 924 INTRA-LIGAND FREE ENERGY PREDICTED BY IDOCK:   -0.26 KCAL/MOL
REMARK 927      BINDING AFFINITY PREDICTED BY RF-SCORE:    0.00 PKD
ROOT
HETATM    1  C   UNL     1     -12.439  14.069  65.407  1.00  0.00    -0.520 C  
HETATM    2  C   UNL     1     -11.913  14.222  66.818  1.00  0.00    -0.436 C  
ENDROOT
BRANCH   2   3
HETATM    3  O   UNL     1     -12.304  13.068  67.543  1.00  0.00    -0.220 OA 
HETATM    4  P   UNL     1     -11.340  11.642  67.373  1.00  0.00    -0.253 P  
HETATM    5  O   UNL     1     -12.237  10.990  68.612  1.00  0.00    -0.571 OA 
HETATM    6  S   UNL     1     -10.158   9.894  67.164  1.00  0.00    -0.228 SA 
HETATM    7  O   UNL     1     -10.099  12.298  67.985  1.00  0.00    -0.194 OA 
BRANCH   5   8
HETATM    8  C   UNL     1     -11.941  11.406  69.943  1.00  0.00    -0.359 C  
HETATM    9  C   UNL     1     -12.837  10.652  70.911  1.00  0.00    -0.473 C  
ENDBRANCH   5   8
BRANCH   6  10
HETATM   10  C   UNL     1     -10.137   8.995  68.724  1.00  0.00    -0.199 C  
BRANCH  10  11
HETATM   11  C   UNL     1      -9.351   7.687  68.607  1.00  0.00    -0.147 C  
BRANCH  11  12
HETATM   12  N   UNL     1     -10.259   6.424  68.604  1.00  0.00    -0.161 N  
HETATM   13  C   UNL     1     -11.329   6.497  69.694  1.00  0.00    -0.380 C  
HETATM   14  C   UNL     1      -9.369   5.211  68.888  1.00  0.00    -0.125 C  
HETATM   15  C   UNL     1     -10.926   6.221  67.247  1.00  0.00    -0.366 C  
ENDBRANCH  11  12
ENDBRANCH  10  11
ENDBRANCH   6  10
ENDBRANCH   2   3
TORSDOF 5
ENDMDL
MODEL       49
REMARK 921   NORMALIZED FREE ENERGY PREDICTED BY IDOCK:   -3.57 KCAL/MOL
REMARK 922        TOTAL FREE ENERGY PREDICTED BY IDOCK:   -4.87 KCAL/MOL
REMARK 923 INTER-LIGAND FREE ENERGY PREDICTED BY IDOCK:   -4.50 KCAL/MOL
REMARK 924 INTRA-LIGAND FREE ENERGY PREDICTED BY IDOCK:   -0.36 KCAL/MOL
REMARK 927      BINDING AFFINITY PREDICTED BY RF-SCORE:    0.00 PKD
ROOT
HETATM    1  C   UNL     1     -13.650  13.219  72.274  1.00  0.00    -0.703 C  
HETATM    2  C   UNL     1     -13.191  14.544  71.702  1.00  0.00    -0.348 C  
ENDROOT
BRANCH   2   3
HETATM    3  O   UNL     1     -12.833  14.318  70.349  1.00  0.00    -0.336 OA 
HETATM    4  P   UNL     1     -11.823  15.490  69.575  1.00  0.00    -0.318 P  
HETATM    5  O   UNL     1     -11.702  14.423  68.305  1.00  0.00    -0.310 OA 
HETATM    6  S   UNL     1     -10.585  16.926  68.626  1.00  0.00    -0.357 SA 
HETATM    7  O   UNL     1     -10.645  15.232  70.520  1.00  0.00    -0.271 OA 
BRANCH   5   8
HETATM    8  C   UNL     1     -10.827  13.307  68.451  1.00  0.00    -0.258 C  
HETATM    9  C   UNL     1     -11.529  12.056  67.949  1.00  0.00    -0.396 C  
ENDBRANCH   5   8
BRANCH   6  10
HETATM   10  C   UNL     1      -9.495  16.097  67.457  1.00  0.00    -0.223 C  
BRANCH  10  11
HETATM   11  C   UNL     1      -8.089  15.912  68.035  1.00  0.00    -0.141 C  
BRANCH  11  12
HETATM   12  N   UNL     1      -7.068  16.963  67.511  1.00  0.00    -0.141 N  
HETATM   13  C   UNL     1      -5.652  16.389  67.448  1.00  0.00    -0.147 C  
HETATM   14  C   UNL     1      -7.064  18.137  68.493  1.00  0.00    -0.257 C  
HETATM   15  C   UNL     1      -7.467  17.490  66.137  1.00  0.00    -0.299 C  
ENDBRANCH  11  12
ENDBRANCH  10  11
ENDBRANCH   6  10
ENDBRANCH   2   3
TORSDOF 5
ENDMDL
MODEL       50
REMARK 921   NORMALIZED FREE ENERGY PREDICTED BY IDOCK:   -3.55 KCAL/MOL
REMARK 922        TOTAL FREE ENERGY PREDICTED BY IDOCK:   -4.84 KCAL/MOL
REMARK 923 INTER-LIGAND FREE ENERGY PREDICTED BY IDOCK:   -4.39 KCAL/MOL
REMARK 924 INTRA-LIGAND FREE ENERGY PREDICTED BY IDOCK:   -0.45 KCAL/MOL
REMARK 927      BINDING AFFINITY PREDICTED BY RF-SCORE:    0.00 PKD
ROOT
HETATM    1  C   UNL     1     -12.523  11.913  63.503  1.00  0.00    -0.609 C  
HETATM    2  C   UNL     1     -12.126  13.371  63.594  1.00  0.00    -0.450 C  
ENDROOT
BRANCH   2   3
HETATM    3  O   UNL     1     -10.961  13.443  64.397  1.00  0.00    -0.370 OA 
HETATM    4  P   UNL     1     -10.758  14.835  65.404  1.00  0.00    -0.434 P  
HETATM    5  O   UNL     1      -9.466  14.045  66.091  1.00  0.00    -0.263 OA 
HETATM    6  S   UNL     1     -10.509  16.541  66.638  1.00  0.00    -0.226 SA 
HETATM    7  O   UNL     1     -12.001  14.521  66.243  1.00  0.00    -0.382 OA 
BRANCH   5   8
HETATM    8  C   UNL     1      -9.739  13.014  67.038  1.00  0.00    -0.235 C  
HETATM    9  C   UNL     1      -8.439  12.316  67.401  1.00  0.00    -0.176 C  
ENDBRANCH   5   8
BRANCH   6  10
HETATM   10  C   UNL     1      -9.677  16.061  68.162  1.00  0.00    -0.217 C  
BRANCH  10  11
HETATM   11  C   UNL     1      -8.552  17.037  68.516  1.00  0.00    -0.257 C  
BRANCH  11  12
HETATM   12  N   UNL     1      -7.172  16.341  68.701  1.00  0.00    -0.156 N  
HETATM   13  C   UNL     1      -6.113  17.316  69.215  1.00  0.00    -0.229 C  
HETATM   14  C   UNL     1      -6.724  15.827  67.330  1.00  0.00    -0.194 C  
HETATM   15  C   UNL     1      -7.273  15.150  69.649  1.00  0.00    -0.194 C  
ENDBRANCH  11  12
ENDBRANCH  10  11
ENDBRANCH   6  10
ENDBRANCH   2   3
TORSDOF 5
ENDMDL
MODEL       51
REMARK 921   NORMALIZED FREE ENERGY PREDICTED BY IDOCK:   -3.54 KCAL/MOL
REMARK 922        TOTAL FREE ENERGY PREDICTED BY IDOCK:   -4.82 KCAL/MOL
REMARK 923 INTER-LIGAND FREE ENERGY PREDICTED BY IDOCK:   -4.42 KCAL/MOL
REMARK 924 INTRA-LIGAND FREE ENERGY PREDICTED BY IDOCK:   -0.40 KCAL/MOL
REMARK 927      BINDING AFFINITY PREDICTED BY RF-SCORE:    0.00 PKD
ROOT
HETATM    1  C   UNL     1     -11.909  11.391  69.772  1.00  0.00    -0.435 C  
HETATM    2  C   UNL     1     -11.844  11.610  68.276  1.00  0.00    -0.265 C  
ENDROOT
BRANCH   2   3
HETATM    3  O   UNL     1     -10.661  12.343  68.006  1.00  0.00    -0.210 OA 
HETATM    4  P   UNL     1     -10.764  13.662  66.892  1.00  0.00    -0.277 P  
HETATM    5  O   UNL     1      -9.212  14.055  67.344  1.00  0.00    -0.199 OA 
HETATM    6  S   UNL     1     -10.890  15.279  65.527  1.00  0.00    -0.388 SA 
HETATM    7  O   UNL     1     -11.727  14.456  67.781  1.00  0.00    -0.342 OA 
BRANCH   5   8
HETATM    8  C   UNL     1      -9.027  14.717  68.593  1.00  0.00    -0.185 C  
HETATM    9  C   UNL     1      -7.554  14.671  68.966  1.00  0.00    -0.136 C  
ENDBRANCH   5   8
BRANCH   6  10
HETATM   10  C   UNL     1      -9.756  16.582  66.035  1.00  0.00    -0.301 C  
BRANCH  10  11
HETATM   11  C   UNL     1     -10.467  17.649  66.872  1.00  0.00    -0.290 C  
BRANCH  11  12
HETATM   12  N   UNL     1      -9.511  18.767  67.381  1.00  0.00    -0.294 N  
HETATM   13  C   UNL     1      -9.996  19.364  68.703  1.00  0.00    -0.444 C  
HETATM   14  C   UNL     1      -9.497  19.880  66.330  1.00  0.00    -0.412 C  
HETATM   15  C   UNL     1      -8.087  18.247  67.547  1.00  0.00    -0.239 C  
ENDBRANCH  11  12
ENDBRANCH  10  11
ENDBRANCH   6  10
ENDBRANCH   2   3
TORSDOF 5
ENDMDL
MODEL       52
REMARK 921   NORMALIZED FREE ENERGY PREDICTED BY IDOCK:   -3.54 KCAL/MOL
REMARK 922        TOTAL FREE ENERGY PREDICTED BY IDOCK:   -4.82 KCAL/MOL
REMARK 923 INTER-LIGAND FREE ENERGY PREDICTED BY IDOCK:   -4.56 KCAL/MOL
REMARK 924 INTRA-LIGAND FREE ENERGY PREDICTED BY IDOCK:   -0.26 KCAL/MOL
REMARK 927      BINDING AFFINITY PREDICTED BY RF-SCORE:    0.00 PKD
ROOT
HETATM    1  C   UNL     1     -11.903  15.767  69.479  1.00  0.00    -0.359 C  
HETATM    2  C   UNL     1     -11.676  14.940  68.232  1.00  0.00    -0.315 C  
ENDROOT
BRANCH   2   3
HETATM    3  O   UNL     1     -12.090  13.615  68.523  1.00  0.00    -0.364 OA 
HETATM    4  P   UNL     1     -11.320  12.323  67.667  1.00  0.00    -0.351 P  
HETATM    5  O   UNL     1     -12.107  11.284  68.700  1.00  0.00    -0.543 OA 
HETATM    6  S   UNL     1     -10.378  10.740  66.619  1.00  0.00    -0.242 SA 
HETATM    7  O   UNL     1      -9.943  12.627  68.265  1.00  0.00    -0.223 OA 
BRANCH   5   8
HETATM    8  C   UNL     1     -11.589  11.134  70.020  1.00  0.00    -0.338 C  
HETATM    9  C   UNL     1     -12.663  10.532  70.910  1.00  0.00    -0.495 C  
ENDBRANCH   5   8
BRANCH   6  10
HETATM   10  C   UNL     1     -10.243   9.304  67.698  1.00  0.00    -0.230 C  
BRANCH  10  11
HETATM   11  C   UNL     1     -10.761   8.037  67.011  1.00  0.00    -0.193 C  
BRANCH  11  12
HETATM   12  N   UNL     1     -10.213   6.727  67.647  1.00  0.00    -0.162 N  
HETATM   13  C   UNL     1      -8.746   6.870  68.056  1.00  0.00    -0.125 C  
HETATM   14  C   UNL     1     -10.309   5.623  66.591  1.00  0.00    -0.256 C  
HETATM   15  C   UNL     1     -11.042   6.307  68.857  1.00  0.00    -0.362 C  
ENDBRANCH  11  12
ENDBRANCH  10  11
ENDBRANCH   6  10
ENDBRANCH   2   3
TORSDOF 5
ENDMDL
MODEL       53
REMARK 921   NORMALIZED FREE ENERGY PREDICTED BY IDOCK:   -3.50 KCAL/MOL
REMARK 922        TOTAL FREE ENERGY PREDICTED BY IDOCK:   -4.77 KCAL/MOL
REMARK 923 INTER-LIGAND FREE ENERGY PREDICTED BY IDOCK:   -4.38 KCAL/MOL
REMARK 924 INTRA-LIGAND FREE ENERGY PREDICTED BY IDOCK:   -0.38 KCAL/MOL
REMARK 927      BINDING AFFINITY PREDICTED BY RF-SCORE:    0.00 PKD
ROOT
HETATM    1  C   UNL     1     -10.680  10.103  70.307  1.00  0.00    -0.352 C  
HETATM    2  C   UNL     1     -11.462  10.255  69.020  1.00  0.00    -0.137 C  
ENDROOT
BRANCH   2   3
HETATM    3  O   UNL     1     -10.561  10.719  68.029  1.00  0.00    -0.181 OA 
HETATM    4  P   UNL     1     -11.148  11.867  66.876  1.00  0.00    -0.329 P  
HETATM    5  O   UNL     1      -9.574  12.034  66.367  1.00  0.00    -0.217 OA 
HETATM    6  S   UNL     1     -11.868  13.274  65.463  1.00  0.00    -0.395 SA 
HETATM    7  O   UNL     1     -11.414  12.936  67.941  1.00  0.00    -0.276 OA 
BRANCH   5   8
HETATM    8  C   UNL     1      -8.693  12.820  67.165  1.00  0.00    -0.202 C  
HETATM    9  C   UNL     1      -7.349  12.116  67.263  1.00  0.00    -0.149 C  
ENDBRANCH   5   8
BRANCH   6  10
HETATM   10  C   UNL     1     -10.543  14.410  65.021  1.00  0.00    -0.432 C  
BRANCH  10  11
HETATM   11  C   UNL     1     -10.983  15.869  65.171  1.00  0.00    -0.377 C  
BRANCH  11  12
HETATM   12  N   UNL     1     -10.171  16.646  66.247  1.00  0.00    -0.322 N  
HETATM   13  C   UNL     1      -8.680  16.316  66.176  1.00  0.00    -0.318 C  
HETATM   14  C   UNL     1     -10.691  16.217  67.622  1.00  0.00    -0.311 C  
HETATM   15  C   UNL     1     -10.367  18.153  66.111  1.00  0.00    -0.385 C  
ENDBRANCH  11  12
ENDBRANCH  10  11
ENDBRANCH   6  10
ENDBRANCH   2   3
TORSDOF 5
ENDMDL
MODEL       54
REMARK 921   NORMALIZED FREE ENERGY PREDICTED BY IDOCK:   -3.50 KCAL/MOL
REMARK 922        TOTAL FREE ENERGY PREDICTED BY IDOCK:   -4.77 KCAL/MOL
REMARK 923 INTER-LIGAND FREE ENERGY PREDICTED BY IDOCK:   -4.50 KCAL/MOL
REMARK 924 INTRA-LIGAND FREE ENERGY PREDICTED BY IDOCK:   -0.27 KCAL/MOL
REMARK 927      BINDING AFFINITY PREDICTED BY RF-SCORE:    0.00 PKD
ROOT
HETATM    1  C   UNL     1     -10.660  16.061  65.321  1.00  0.00    -0.424 C  
HETATM    2  C   UNL     1     -11.427  14.954  64.631  1.00  0.00    -0.379 C  
ENDROOT
BRANCH   2   3
HETATM    3  O   UNL     1     -10.654  13.771  64.742  1.00  0.00    -0.386 OA 
HETATM    4  P   UNL     1     -10.836  12.818  66.175  1.00  0.00    -0.295 P  
HETATM    5  O   UNL     1      -9.911  11.660  65.422  1.00  0.00    -0.234 OA 
HETATM    6  S   UNL     1     -11.060  11.652  67.931  1.00  0.00    -0.269 SA 
HETATM    7  O   UNL     1     -12.308  12.505  65.888  1.00  0.00    -0.626 OA 
BRANCH   5   8
HETATM    8  C   UNL     1     -10.534  10.848  64.429  1.00  0.00    -0.333 C  
HETATM    9  C   UNL     1      -9.483  10.387  63.433  1.00  0.00    -0.356 C  
ENDBRANCH   5   8
BRANCH   6  10
HETATM   10  C   UNL     1     -10.875   9.908  67.520  1.00  0.00    -0.243 C  
BRANCH  10  11
HETATM   11  C   UNL     1      -9.844   9.226  68.422  1.00  0.00    -0.155 C  
BRANCH  11  12
HETATM   12  N   UNL     1      -9.878   7.673  68.328  1.00  0.00    -0.161 N  
HETATM   13  C   UNL     1      -8.489   7.066  68.518  1.00  0.00    -0.121 C  
HETATM   14  C   UNL     1     -10.375   7.304  66.927  1.00  0.00    -0.288 C  
HETATM   15  C   UNL     1     -10.841   7.075  69.350  1.00  0.00    -0.227 C  
ENDBRANCH  11  12
ENDBRANCH  10  11
ENDBRANCH   6  10
ENDBRANCH   2   3
TORSDOF 5
ENDMDL
MODEL       55
REMARK 921   NORMALIZED FREE ENERGY PREDICTED BY IDOCK:   -3.49 KCAL/MOL
REMARK 922        TOTAL FREE ENERGY PREDICTED BY IDOCK:   -4.75 KCAL/MOL
REMARK 923 INTER-LIGAND FREE ENERGY PREDICTED BY IDOCK:   -4.44 KCAL/MOL
REMARK 924 INTRA-LIGAND FREE ENERGY PREDICTED BY IDOCK:   -0.31 KCAL/MOL
REMARK 927      BINDING AFFINITY PREDICTED BY RF-SCORE:    0.00 PKD
ROOT
HETATM    1  C   UNL     1      -9.671  20.378  66.614  1.00  0.00    -0.498 C  
HETATM    2  C   UNL     1     -10.613  19.389  67.266  1.00  0.00    -0.486 C  
ENDROOT
BRANCH   2   3
HETATM    3  O   UNL     1      -9.863  18.224  67.566  1.00  0.00    -0.298 OA 
HETATM    4  P   UNL     1     -10.528  16.695  67.107  1.00  0.00    -0.221 P  
HETATM    5  O   UNL     1      -9.064  16.027  67.526  1.00  0.00    -0.196 OA 
HETATM    6  S   UNL     1     -11.344  14.820  66.544  1.00  0.00    -0.319 SA 
HETATM    7  O   UNL     1     -10.485  17.023  65.611  1.00  0.00    -0.519 OA 
BRANCH   5   8
HETATM    8  C   UNL     1      -7.976  16.177  66.616  1.00  0.00    -0.270 C  
HETATM    9  C   UNL     1      -6.670  15.968  67.365  1.00  0.00    -0.224 C  
ENDBRANCH   5   8
BRANCH   6  10
HETATM   10  C   UNL     1     -10.011  13.704  66.075  1.00  0.00    -0.302 C  
BRANCH  10  11
HETATM   11  C   UNL     1      -9.933  12.498  67.015  1.00  0.00    -0.214 C  
BRANCH  11  12
HETATM   12  N   UNL     1      -9.647  11.160  66.274  1.00  0.00    -0.200 N  
HETATM   13  C   UNL     1     -10.323   9.977  66.965  1.00  0.00    -0.243 C  
HETATM   14  C   UNL     1      -8.134  10.929  66.301  1.00  0.00    -0.165 C  
HETATM   15  C   UNL     1     -10.095  11.225  64.817  1.00  0.00    -0.285 C  
ENDBRANCH  11  12
ENDBRANCH  10  11
ENDBRANCH   6  10
ENDBRANCH   2   3
TORSDOF 5
ENDMDL
MODEL       56
REMARK 921   NORMALIZED FREE ENERGY PREDICTED BY IDOCK:   -3.47 KCAL/MOL
REMARK 922        TOTAL FREE ENERGY PREDICTED BY IDOCK:   -4.73 KCAL/MOL
REMARK 923 INTER-LIGAND FREE ENERGY PREDICTED BY IDOCK:   -4.42 KCAL/MOL
REMARK 924 INTRA-LIGAND FREE ENERGY PREDICTED BY IDOCK:   -0.32 KCAL/MOL
REMARK 927      BINDING AFFINITY PREDICTED BY RF-SCORE:    0.00 PKD
ROOT
HETATM    1  C   UNL     1      -9.249   7.378  73.263  1.00  0.00    -0.233 C  
HETATM    2  C   UNL     1     -10.694   7.482  72.827  1.00  0.00    -0.330 C  
ENDROOT
BRANCH   2   3
HETATM    3  O   UNL     1     -10.870   8.763  72.246  1.00  0.00    -0.352 OA 
HETATM    4  P   UNL     1     -10.284   9.007  70.636  1.00  0.00    -0.274 P  
HETATM    5  O   UNL     1     -11.061  10.476  70.666  1.00  0.00    -0.292 OA 
HETATM    6  S   UNL     1      -9.567   9.305  68.664  1.00  0.00    -0.149 SA 
HETATM    7  O   UNL     1     -11.247   7.978  70.034  1.00  0.00    -0.208 OA 
BRANCH   5   8
HETATM    8  C   UNL     1     -12.476  10.489  70.487  1.00  0.00    -0.347 C  
HETATM    9  C   UNL     1     -13.115  11.257  71.632  1.00  0.00    -0.513 C  
ENDBRANCH   5   8
BRANCH   6  10
HETATM   10  C   UNL     1     -10.655  10.449  67.797  1.00  0.00    -0.250 C  
BRANCH  10  11
HETATM   11  C   UNL     1      -9.971  11.797  67.555  1.00  0.00    -0.192 C  
BRANCH  11  12
HETATM   12  N   UNL     1     -10.960  12.915  67.112  1.00  0.00    -0.256 N  
HETATM   13  C   UNL     1     -10.220  14.170  66.649  1.00  0.00    -0.270 C  
HETATM   14  C   UNL     1     -11.816  13.285  68.327  1.00  0.00    -0.354 C  
HETATM   15  C   UNL     1     -11.888  12.429  66.003  1.00  0.00    -0.395 C  
ENDBRANCH  11  12
ENDBRANCH  10  11
ENDBRANCH   6  10
ENDBRANCH   2   3
TORSDOF 5
ENDMDL
MODEL       57
REMARK 921   NORMALIZED FREE ENERGY PREDICTED BY IDOCK:   -3.45 KCAL/MOL
REMARK 922        TOTAL FREE ENERGY PREDICTED BY IDOCK:   -4.71 KCAL/MOL
REMARK 923 INTER-LIGAND FREE ENERGY PREDICTED BY IDOCK:   -4.38 KCAL/MOL
REMARK 924 INTRA-LIGAND FREE ENERGY PREDICTED BY IDOCK:   -0.33 KCAL/MOL
REMARK 927      BINDING AFFINITY PREDICTED BY RF-SCORE:    0.00 PKD
ROOT
HETATM    1  C   UNL     1     -12.516  13.752  65.484  1.00  0.00    -0.548 C  
HETATM    2  C   UNL     1     -11.741  13.782  66.784  1.00  0.00    -0.391 C  
ENDROOT
BRANCH   2   3
HETATM    3  O   UNL     1     -12.208  12.706  67.580  1.00  0.00    -0.367 OA 
HETATM    4  P   UNL     1     -11.209  11.299  67.705  1.00  0.00    -0.284 P  
HETATM    5  O   UNL     1     -12.255  10.765  68.883  1.00  0.00    -0.447 OA 
HETATM    6  S   UNL     1      -9.985   9.576  67.859  1.00  0.00    -0.182 SA 
HETATM    7  O   UNL     1     -10.071  12.058  68.396  1.00  0.00    -0.204 OA 
BRANCH   5   8
HETATM    8  C   UNL     1     -12.147  11.339  70.184  1.00  0.00    -0.366 C  
HETATM    9  C   UNL     1     -13.022  10.555  71.147  1.00  0.00    -0.506 C  
ENDBRANCH   5   8
BRANCH   6  10
HETATM   10  C   UNL     1     -10.160   8.861  69.502  1.00  0.00    -0.198 C  
BRANCH  10  11
HETATM   11  C   UNL     1      -8.977   9.229  70.402  1.00  0.00    -0.239 C  
BRANCH  11  12
HETATM   12  N   UNL     1      -8.631   8.124  71.441  1.00  0.00    -0.127 N  
HETATM   13  C   UNL     1      -7.170   8.204  71.884  1.00  0.00    -0.087 C  
HETATM   14  C   UNL     1      -8.852   6.767  70.767  1.00  0.00    -0.150 C  
HETATM   15  C   UNL     1      -9.540   8.204  72.664  1.00  0.00    -0.282 C  
ENDBRANCH  11  12
ENDBRANCH  10  11
ENDBRANCH   6  10
ENDBRANCH   2   3
TORSDOF 5
ENDMDL
MODEL       58
REMARK 921   NORMALIZED FREE ENERGY PREDICTED BY IDOCK:   -3.45 KCAL/MOL
REMARK 922        TOTAL FREE ENERGY PREDICTED BY IDOCK:   -4.70 KCAL/MOL
REMARK 923 INTER-LIGAND FREE ENERGY PREDICTED BY IDOCK:   -4.39 KCAL/MOL
REMARK 924 INTRA-LIGAND FREE ENERGY PREDICTED BY IDOCK:   -0.32 KCAL/MOL
REMARK 927      BINDING AFFINITY PREDICTED BY RF-SCORE:    0.00 PKD
ROOT
HETATM    1  C   UNL     1     -10.505   5.248  74.128  1.00  0.00    -0.319 C  
HETATM    2  C   UNL     1     -10.525   6.719  73.771  1.00  0.00    -0.354 C  
ENDROOT
BRANCH   2   3
HETATM    3  O   UNL     1     -11.111   6.834  72.486  1.00  0.00    -0.246 OA 
HETATM    4  P   UNL     1     -11.609   8.407  71.964  1.00  0.00    -0.397 P  
HETATM    5  O   UNL     1     -11.872   7.734  70.466  1.00  0.00    -0.188 OA 
HETATM    6  S   UNL     1     -12.220  10.333  71.324  1.00  0.00    -0.398 SA 
HETATM    7  O   UNL     1     -10.183   8.965  71.985  1.00  0.00    -0.334 OA 
BRANCH   5   8
HETATM    8  C   UNL     1     -10.738   7.477  69.640  1.00  0.00    -0.230 C  
HETATM    9  C   UNL     1     -11.055   6.321  68.706  1.00  0.00    -0.424 C  
ENDBRANCH   5   8
BRANCH   6  10
HETATM   10  C   UNL     1     -11.975  10.479  69.546  1.00  0.00    -0.186 C  
BRANCH  10  11
HETATM   11  C   UNL     1     -10.668  11.207  69.218  1.00  0.00    -0.199 C  
BRANCH  11  12
HETATM   12  N   UNL     1     -10.887  12.544  68.453  1.00  0.00    -0.233 N  
HETATM   13  C   UNL     1      -9.559  13.213  68.096  1.00  0.00    -0.227 C  
HETATM   14  C   UNL     1     -11.664  13.486  69.376  1.00  0.00    -0.325 C  
HETATM   15  C   UNL     1     -11.709  12.332  67.185  1.00  0.00    -0.326 C  
ENDBRANCH  11  12
ENDBRANCH  10  11
ENDBRANCH   6  10
ENDBRANCH   2   3
TORSDOF 5
ENDMDL
MODEL       59
REMARK 921   NORMALIZED FREE ENERGY PREDICTED BY IDOCK:   -3.44 KCAL/MOL
REMARK 922        TOTAL FREE ENERGY PREDICTED BY IDOCK:   -4.70 KCAL/MOL
REMARK 923 INTER-LIGAND FREE ENERGY PREDICTED BY IDOCK:   -4.41 KCAL/MOL
REMARK 924 INTRA-LIGAND FREE ENERGY PREDICTED BY IDOCK:   -0.29 KCAL/MOL
REMARK 927      BINDING AFFINITY PREDICTED BY RF-SCORE:    0.00 PKD
ROOT
HETATM    1  C   UNL     1      -9.001   7.009  74.391  1.00  0.00    -0.242 C  
HETATM    2  C   UNL     1     -10.356   6.543  73.902  1.00  0.00    -0.335 C  
ENDROOT
BRANCH   2   3
HETATM    3  O   UNL     1     -11.037   7.679  73.398  1.00  0.00    -0.337 OA 
HETATM    4  P   UNL     1     -10.399   8.442  71.982  1.00  0.00    -0.343 P  
HETATM    5  O   UNL     1     -11.786   9.359  71.954  1.00  0.00    -0.373 OA 
HETATM    6  S   UNL     1      -9.618   9.376  70.247  1.00  0.00    -0.263 SA 
HETATM    7  O   UNL     1     -10.633   7.209  71.103  1.00  0.00    -0.221 OA 
BRANCH   5   8
HETATM    8  C   UNL     1     -12.980   8.751  71.467  1.00  0.00    -0.319 C  
HETATM    9  C   UNL     1     -14.116   9.041  72.434  1.00  0.00    -0.478 C  
ENDBRANCH   5   8
BRANCH   6  10
HETATM   10  C   UNL     1     -10.973  10.023  69.253  1.00  0.00    -0.228 C  
BRANCH  10  11
HETATM   11  C   UNL     1     -10.563  10.186  67.787  1.00  0.00    -0.256 C  
BRANCH  11  12
HETATM   12  N   UNL     1     -10.597  11.665  67.303  1.00  0.00    -0.219 N  
HETATM   13  C   UNL     1      -9.329  12.419  67.702  1.00  0.00    -0.188 C  
HETATM   14  C   UNL     1     -11.791  12.347  67.976  1.00  0.00    -0.316 C  
HETATM   15  C   UNL     1     -10.787  11.751  65.792  1.00  0.00    -0.291 C  
ENDBRANCH  11  12
ENDBRANCH  10  11
ENDBRANCH   6  10
ENDBRANCH   2   3
TORSDOF 5
ENDMDL
MODEL       60
REMARK 921   NORMALIZED FREE ENERGY PREDICTED BY IDOCK:   -3.42 KCAL/MOL
REMARK 922        TOTAL FREE ENERGY PREDICTED BY IDOCK:   -4.67 KCAL/MOL
REMARK 923 INTER-LIGAND FREE ENERGY PREDICTED BY IDOCK:   -4.33 KCAL/MOL
REMARK 924 INTRA-LIGAND FREE ENERGY PREDICTED BY IDOCK:   -0.34 KCAL/MOL
REMARK 927      BINDING AFFINITY PREDICTED BY RF-SCORE:    0.00 PKD
ROOT
HETATM    1  C   UNL     1     -12.455  12.481  64.804  1.00  0.00    -0.532 C  
HETATM    2  C   UNL     1     -11.129  12.922  65.386  1.00  0.00    -0.281 C  
ENDROOT
BRANCH   2   3
HETATM    3  O   UNL     1     -11.290  14.253  65.845  1.00  0.00    -0.317 OA 
HETATM    4  P   UNL     1     -10.523  14.693  67.333  1.00  0.00    -0.259 P  
HETATM    5  O   UNL     1     -10.946  16.264  66.988  1.00  0.00    -0.231 OA 
HETATM    6  S   UNL     1      -9.584  15.231  69.155  1.00  0.00    -0.249 SA 
HETATM    7  O   UNL     1      -9.114  14.453  66.781  1.00  0.00    -0.248 OA 
BRANCH   5   8
HETATM    8  C   UNL     1     -10.172  16.968  66.020  1.00  0.00    -0.325 C  
HETATM    9  C   UNL     1     -10.532  18.443  66.073  1.00  0.00    -0.400 C  
ENDBRANCH   5   8
BRANCH   6  10
HETATM   10  C   UNL     1      -9.048  16.948  69.068  1.00  0.00    -0.174 C  
BRANCH  10  11
HETATM   11  C   UNL     1      -7.564  17.054  68.705  1.00  0.00    -0.243 C  
BRANCH  11  12
HETATM   12  N   UNL     1      -7.112  18.509  68.391  1.00  0.00    -0.262 N  
HETATM   13  C   UNL     1      -6.033  18.988  69.363  1.00  0.00    -0.254 C  
HETATM   14  C   UNL     1      -8.334  19.419  68.547  1.00  0.00    -0.363 C  
HETATM   15  C   UNL     1      -6.601  18.636  66.959  1.00  0.00    -0.188 C  
ENDBRANCH  11  12
ENDBRANCH  10  11
ENDBRANCH   6  10
ENDBRANCH   2   3
TORSDOF 5
ENDMDL
MODEL       61
REMARK 921   NORMALIZED FREE ENERGY PREDICTED BY IDOCK:   -3.41 KCAL/MOL
REMARK 922        TOTAL FREE ENERGY PREDICTED BY IDOCK:   -4.65 KCAL/MOL
REMARK 923 INTER-LIGAND FREE ENERGY PREDICTED BY IDOCK:   -4.28 KCAL/MOL
REMARK 924 INTRA-LIGAND FREE ENERGY PREDICTED BY IDOCK:   -0.37 KCAL/MOL
REMARK 927      BINDING AFFINITY PREDICTED BY RF-SCORE:    0.00 PKD
ROOT
HETATM    1  C   UNL     1     -10.905   6.211  68.153  1.00  0.00    -0.389 C  
HETATM    2  C   UNL     1     -10.462   7.559  68.682  1.00  0.00    -0.183 C  
ENDROOT
BRANCH   2   3
HETATM    3  O   UNL     1     -10.499   8.471  67.598  1.00  0.00    -0.244 OA 
HETATM    4  P   UNL     1     -10.554  10.161  67.966  1.00  0.00    -0.261 P  
HETATM    5  O   UNL     1     -10.318  10.436  66.343  1.00  0.00    -0.236 OA 
HETATM    6  S   UNL     1     -10.622  12.231  68.416  1.00  0.00    -0.240 SA 
HETATM    7  O   UNL     1      -9.182  10.150  68.645  1.00  0.00    -0.145 OA 
BRANCH   5   8
HETATM    8  C   UNL     1      -9.001  10.275  65.822  1.00  0.00    -0.161 C  
HETATM    9  C   UNL     1      -9.088   9.700  64.418  1.00  0.00    -0.279 C  
ENDBRANCH   5   8
BRANCH   6  10
HETATM   10  C   UNL     1      -9.709  13.147  67.164  1.00  0.00    -0.235 C  
BRANCH  10  11
HETATM   11  C   UNL     1     -10.400  14.470  66.822  1.00  0.00    -0.269 C  
BRANCH  11  12
HETATM   12  N   UNL     1     -11.124  14.444  65.444  1.00  0.00    -0.316 N  
HETATM   13  C   UNL     1     -11.089  15.812  64.763  1.00  0.00    -0.400 C  
HETATM   14  C   UNL     1     -12.588  14.073  65.696  1.00  0.00    -0.512 C  
HETATM   15  C   UNL     1     -10.518  13.396  64.516  1.00  0.00    -0.413 C  
ENDBRANCH  11  12
ENDBRANCH  10  11
ENDBRANCH   6  10
ENDBRANCH   2   3
TORSDOF 5
ENDMDL
MODEL       62
REMARK 921   NORMALIZED FREE ENERGY PREDICTED BY IDOCK:   -3.40 KCAL/MOL
REMARK 922        TOTAL FREE ENERGY PREDICTED BY IDOCK:   -4.64 KCAL/MOL
REMARK 923 INTER-LIGAND FREE ENERGY PREDICTED BY IDOCK:   -4.33 KCAL/MOL
REMARK 924 INTRA-LIGAND FREE ENERGY PREDICTED BY IDOCK:   -0.31 KCAL/MOL
REMARK 927      BINDING AFFINITY PREDICTED BY RF-SCORE:    0.00 PKD
ROOT
HETATM    1  C   UNL     1      -9.521   8.527  72.238  1.00  0.00    -0.365 C  
HETATM    2  C   UNL     1      -8.690   8.825  71.008  1.00  0.00    -0.202 C  
ENDROOT
BRANCH   2   3
HETATM    3  O   UNL     1      -9.553   8.751  69.886  1.00  0.00    -0.170 OA 
HETATM    4  P   UNL     1     -10.377  10.194  69.404  1.00  0.00    -0.260 P  
HETATM    5  O   UNL     1     -10.859   9.364  68.046  1.00  0.00    -0.220 OA 
HETATM    6  S   UNL     1     -11.386  11.962  68.813  1.00  0.00    -0.301 SA 
HETATM    7  O   UNL     1      -9.077  10.931  69.067  1.00  0.00    -0.163 OA 
BRANCH   5   8
HETATM    8  C   UNL     1      -9.909   9.184  66.999  1.00  0.00    -0.207 C  
HETATM    9  C   UNL     1      -9.936   7.734  66.545  1.00  0.00    -0.244 C  
ENDBRANCH   5   8
BRANCH   6  10
HETATM   10  C   UNL     1     -11.560  11.982  67.021  1.00  0.00    -0.317 C  
BRANCH  10  11
HETATM   11  C   UNL     1     -10.649  13.033  66.382  1.00  0.00    -0.284 C  
BRANCH  11  12
HETATM   12  N   UNL     1     -11.301  13.750  65.164  1.00  0.00    -0.303 N  
HETATM   13  C   UNL     1     -11.145  12.935  63.880  1.00  0.00    -0.411 C  
HETATM   14  C   UNL     1     -10.581  15.087  64.972  1.00  0.00    -0.412 C  
HETATM   15  C   UNL     1     -12.779  14.034  65.412  1.00  0.00    -0.471 C  
ENDBRANCH  11  12
ENDBRANCH  10  11
ENDBRANCH   6  10
ENDBRANCH   2   3
TORSDOF 5
ENDMDL
MODEL       63
REMARK 921   NORMALIZED FREE ENERGY PREDICTED BY IDOCK:   -3.34 KCAL/MOL
REMARK 922        TOTAL FREE ENERGY PREDICTED BY IDOCK:   -4.57 KCAL/MOL
REMARK 923 INTER-LIGAND FREE ENERGY PREDICTED BY IDOCK:   -4.21 KCAL/MOL
REMARK 924 INTRA-LIGAND FREE ENERGY PREDICTED BY IDOCK:   -0.36 KCAL/MOL
REMARK 927      BINDING AFFINITY PREDICTED BY RF-SCORE:    0.00 PKD
ROOT
HETATM    1  C   UNL     1      -9.863   9.584  70.262  1.00  0.00    -0.313 C  
HETATM    2  C   UNL     1     -10.808  10.598  69.655  1.00  0.00    -0.268 C  
ENDROOT
BRANCH   2   3
HETATM    3  O   UNL     1     -10.077  11.331  68.686  1.00  0.00    -0.197 OA 
HETATM    4  P   UNL     1     -10.881  12.637  67.886  1.00  0.00    -0.242 P  
HETATM    5  O   UNL     1      -9.402  13.039  67.239  1.00  0.00    -0.205 OA 
HETATM    6  S   UNL     1     -11.865  14.238  66.905  1.00  0.00    -0.433 SA 
HETATM    7  O   UNL     1     -11.061  13.438  69.179  1.00  0.00    -0.252 OA 
BRANCH   5   8
HETATM    8  C   UNL     1      -8.468  13.716  68.076  1.00  0.00    -0.174 C  
HETATM    9  C   UNL     1      -7.078  13.585  67.476  1.00  0.00    -0.159 C  
ENDBRANCH   5   8
BRANCH   6  10
HETATM   10  C   UNL     1     -10.680  15.550  66.562  1.00  0.00    -0.304 C  
BRANCH  10  11
HETATM   11  C   UNL     1     -10.754  16.660  67.613  1.00  0.00    -0.306 C  
BRANCH  11  12
HETATM   12  N   UNL     1      -9.819  17.864  67.299  1.00  0.00    -0.298 N  
HETATM   13  C   UNL     1      -9.584  18.733  68.535  1.00  0.00    -0.369 C  
HETATM   14  C   UNL     1     -10.508  18.723  66.235  1.00  0.00    -0.435 C  
HETATM   15  C   UNL     1      -8.478  17.397  66.742  1.00  0.00    -0.254 C  
ENDBRANCH  11  12
ENDBRANCH  10  11
ENDBRANCH   6  10
ENDBRANCH   2   3
TORSDOF 5
ENDMDL
MODEL       64
REMARK 921   NORMALIZED FREE ENERGY PREDICTED BY IDOCK:   -3.33 KCAL/MOL
REMARK 922        TOTAL FREE ENERGY PREDICTED BY IDOCK:   -4.55 KCAL/MOL
REMARK 923 INTER-LIGAND FREE ENERGY PREDICTED BY IDOCK:   -4.21 KCAL/MOL
REMARK 924 INTRA-LIGAND FREE ENERGY PREDICTED BY IDOCK:   -0.34 KCAL/MOL
REMARK 927      BINDING AFFINITY PREDICTED BY RF-SCORE:    0.00 PKD
ROOT
HETATM    1  C   UNL     1     -12.064  14.645  64.985  1.00  0.00    -0.349 C  
HETATM    2  C   UNL     1     -12.058  13.164  64.672  1.00  0.00    -0.408 C  
ENDROOT
BRANCH   2   3
HETATM    3  O   UNL     1     -12.292  12.473  65.887  1.00  0.00    -0.626 OA 
HETATM    4  P   UNL     1     -11.254  11.145  66.275  1.00  0.00     0.279 P  
HETATM    5  O   UNL     1     -11.972  11.130  67.774  1.00  0.00    -0.630 OA 
HETATM    6  S   UNL     1      -9.982   9.516  66.749  1.00  0.00    -0.249 SA 
HETATM    7  O   UNL     1     -10.005  12.028  66.360  1.00  0.00    -0.210 OA 
BRANCH   5   8
HETATM    8  C   UNL     1     -11.572  12.121  68.718  1.00  0.00    -0.327 C  
HETATM    9  C   UNL     1     -12.032  11.703  70.104  1.00  0.00    -0.441 C  
ENDBRANCH   5   8
BRANCH   6  10
HETATM   10  C   UNL     1      -9.739   9.446  68.532  1.00  0.00    -0.149 C  
BRANCH  10  11
HETATM   11  C   UNL     1     -10.520   8.287  69.158  1.00  0.00    -0.206 C  
BRANCH  11  12
HETATM   12  N   UNL     1     -10.188   8.066  70.662  1.00  0.00    -0.195 N  
HETATM   13  C   UNL     1      -9.015   8.936  71.114  1.00  0.00    -0.241 C  
HETATM   14  C   UNL     1      -9.790   6.598  70.838  1.00  0.00    -0.183 C  
HETATM   15  C   UNL     1     -11.400   8.342  71.547  1.00  0.00    -0.276 C  
ENDBRANCH  11  12
ENDBRANCH  10  11
ENDBRANCH   6  10
ENDBRANCH   2   3
TORSDOF 5
ENDMDL
MODEL       65
REMARK 921   NORMALIZED FREE ENERGY PREDICTED BY IDOCK:   -3.30 KCAL/MOL
REMARK 922        TOTAL FREE ENERGY PREDICTED BY IDOCK:   -4.51 KCAL/MOL
REMARK 923 INTER-LIGAND FREE ENERGY PREDICTED BY IDOCK:   -4.24 KCAL/MOL
REMARK 924 INTRA-LIGAND FREE ENERGY PREDICTED BY IDOCK:   -0.27 KCAL/MOL
REMARK 927      BINDING AFFINITY PREDICTED BY RF-SCORE:    0.00 PKD
ROOT
HETATM    1  C   UNL     1      -9.944  11.246  63.157  1.00  0.00    -0.398 C  
HETATM    2  C   UNL     1      -9.190  10.694  64.348  1.00  0.00    -0.234 C  
ENDROOT
BRANCH   2   3
HETATM    3  O   UNL     1     -10.104  10.612  65.428  1.00  0.00    -0.264 OA 
HETATM    4  P   UNL     1      -9.861   9.365  66.601  1.00  0.00    -0.279 P  
HETATM    5  O   UNL     1     -11.045  10.101  67.506  1.00  0.00    -0.298 OA 
HETATM    6  S   UNL     1      -9.562   7.835  68.038  1.00  0.00    -0.153 SA 
HETATM    7  O   UNL     1      -8.508   9.926  67.050  1.00  0.00    -0.120 OA 
BRANCH   5   8
HETATM    8  C   UNL     1     -10.698  11.279  68.230  1.00  0.00    -0.194 C  
HETATM    9  C   UNL     1     -11.682  12.384  67.882  1.00  0.00    -0.421 C  
ENDBRANCH   5   8
BRANCH   6  10
HETATM   10  C   UNL     1     -10.059   8.434  69.662  1.00  0.00    -0.199 C  
BRANCH  10  11
HETATM   11  C   UNL     1     -11.021   7.460  70.347  1.00  0.00    -0.251 C  
BRANCH  11  12
HETATM   12  N   UNL     1     -11.766   8.087  71.562  1.00  0.00    -0.274 N  
HETATM   13  C   UNL     1     -13.231   7.654  71.609  1.00  0.00    -0.352 C  
HETATM   14  C   UNL     1     -11.721   9.609  71.399  1.00  0.00    -0.404 C  
HETATM   15  C   UNL     1     -11.084   7.727  72.878  1.00  0.00    -0.398 C  
ENDBRANCH  11  12
ENDBRANCH  10  11
ENDBRANCH   6  10
ENDBRANCH   2   3
TORSDOF 5
ENDMDL
MODEL       66
REMARK 921   NORMALIZED FREE ENERGY PREDICTED BY IDOCK:   -3.26 KCAL/MOL
REMARK 922        TOTAL FREE ENERGY PREDICTED BY IDOCK:   -4.46 KCAL/MOL
REMARK 923 INTER-LIGAND FREE ENERGY PREDICTED BY IDOCK:   -4.06 KCAL/MOL
REMARK 924 INTRA-LIGAND FREE ENERGY PREDICTED BY IDOCK:   -0.40 KCAL/MOL
REMARK 927      BINDING AFFINITY PREDICTED BY RF-SCORE:    0.00 PKD
ROOT
HETATM    1  C   UNL     1      -7.061   7.402  67.632  1.00  0.00    -0.085 C  
HETATM    2  C   UNL     1      -8.444   7.403  68.246  1.00  0.00    -0.125 C  
ENDROOT
BRANCH   2   3
HETATM    3  O   UNL     1      -8.897   8.746  68.268  1.00  0.00    -0.140 OA 
HETATM    4  P   UNL     1      -9.193   9.524  66.751  1.00  0.00    -0.163 P  
HETATM    5  O   UNL     1      -9.864  10.774  67.619  1.00  0.00    -0.167 OA 
HETATM    6  S   UNL     1      -9.555  10.477  64.893  1.00  0.00    -0.306 SA 
HETATM    7  O   UNL     1     -10.318   8.557  66.372  1.00  0.00    -0.246 OA 
BRANCH   5   8
HETATM    8  C   UNL     1     -11.180  10.596  68.138  1.00  0.00    -0.302 C  
HETATM    9  C   UNL     1     -11.327  11.414  69.410  1.00  0.00    -0.365 C  
ENDBRANCH   5   8
BRANCH   6  10
HETATM   10  C   UNL     1     -10.940  11.616  65.063  1.00  0.00    -0.273 C  
BRANCH  10  11
HETATM   11  C   UNL     1     -10.578  13.016  64.561  1.00  0.00    -0.393 C  
BRANCH  11  12
HETATM   12  N   UNL     1     -11.192  14.155  65.427  1.00  0.00    -0.315 N  
HETATM   13  C   UNL     1     -10.593  14.179  66.833  1.00  0.00    -0.280 C  
HETATM   14  C   UNL     1     -12.694  13.885  65.551  1.00  0.00    -0.499 C  
HETATM   15  C   UNL     1     -11.004  15.517  64.768  1.00  0.00    -0.399 C  
ENDBRANCH  11  12
ENDBRANCH  10  11
ENDBRANCH   6  10
ENDBRANCH   2   3
TORSDOF 5
ENDMDL
MODEL       67
REMARK 921   NORMALIZED FREE ENERGY PREDICTED BY IDOCK:   -3.24 KCAL/MOL
REMARK 922        TOTAL FREE ENERGY PREDICTED BY IDOCK:   -4.44 KCAL/MOL
REMARK 923 INTER-LIGAND FREE ENERGY PREDICTED BY IDOCK:   -4.09 KCAL/MOL
REMARK 924 INTRA-LIGAND FREE ENERGY PREDICTED BY IDOCK:   -0.35 KCAL/MOL
REMARK 927      BINDING AFFINITY PREDICTED BY RF-SCORE:    0.00 PKD
ROOT
HETATM    1  C   UNL     1      -8.651   6.997  68.715  1.00  0.00    -0.125 C  
HETATM    2  C   UNL     1     -10.093   7.454  68.646  1.00  0.00    -0.179 C  
ENDROOT
BRANCH   2   3
HETATM    3  O   UNL     1     -10.133   8.795  69.105  1.00  0.00    -0.187 OA 
HETATM    4  P   UNL     1      -9.384  10.008  68.125  1.00  0.00    -0.132 P  
HETATM    5  O   UNL     1     -10.070  11.132  69.141  1.00  0.00    -0.195 OA 
HETATM    6  S   UNL     1      -8.467  11.494  66.924  1.00  0.00    -0.168 SA 
HETATM    7  O   UNL     1     -10.346   9.784  66.954  1.00  0.00    -0.233 OA 
BRANCH   5   8
HETATM    8  C   UNL     1     -11.457  11.418  68.982  1.00  0.00    -0.300 C  
HETATM    9  C   UNL     1     -12.135  11.365  70.341  1.00  0.00    -0.473 C  
ENDBRANCH   5   8
BRANCH   6  10
HETATM   10  C   UNL     1      -9.396  13.030  67.058  1.00  0.00    -0.236 C  
BRANCH  10  11
HETATM   11  C   UNL     1     -10.445  13.149  65.949  1.00  0.00    -0.280 C  
BRANCH  11  12
HETATM   12  N   UNL     1     -11.309  14.438  66.058  1.00  0.00    -0.330 N  
HETATM   13  C   UNL     1     -11.327  14.985  67.486  1.00  0.00    -0.333 C  
HETATM   14  C   UNL     1     -12.744  14.070  65.670  1.00  0.00    -0.481 C  
HETATM   15  C   UNL     1     -10.818  15.521  65.103  1.00  0.00    -0.436 C  
ENDBRANCH  11  12
ENDBRANCH  10  11
ENDBRANCH   6  10
ENDBRANCH   2   3
TORSDOF 5
ENDMDL
MODEL       68
REMARK 921   NORMALIZED FREE ENERGY PREDICTED BY IDOCK:   -3.22 KCAL/MOL
REMARK 922        TOTAL FREE ENERGY PREDICTED BY IDOCK:   -4.41 KCAL/MOL
REMARK 923 INTER-LIGAND FREE ENERGY PREDICTED BY IDOCK:   -4.10 KCAL/MOL
REMARK 924 INTRA-LIGAND FREE ENERGY PREDICTED BY IDOCK:   -0.31 KCAL/MOL
REMARK 927      BINDING AFFINITY PREDICTED BY RF-SCORE:    0.00 PKD
ROOT
HETATM    1  C   UNL     1     -10.143  10.248  65.489  1.00  0.00    -0.351 C  
HETATM    2  C   UNL     1     -10.840  11.573  65.267  1.00  0.00    -0.259 C  
ENDROOT
BRANCH   2   3
HETATM    3  O   UNL     1      -9.947  12.595  65.676  1.00  0.00    -0.264 OA 
HETATM    4  P   UNL     1     -10.429  14.238  65.426  1.00  0.00    -0.409 P  
HETATM    5  O   UNL     1      -9.104  14.676  66.330  1.00  0.00    -0.264 OA 
HETATM    6  S   UNL     1     -11.020  16.251  65.120  1.00  0.00    -0.178 SA 
HETATM    7  O   UNL     1     -11.628  14.125  66.373  1.00  0.00    -0.341 OA 
BRANCH   5   8
HETATM    8  C   UNL     1      -9.186  14.541  67.747  1.00  0.00    -0.194 C  
HETATM    9  C   UNL     1      -7.903  13.911  68.262  1.00  0.00    -0.146 C  
ENDBRANCH   5   8
BRANCH   6  10
HETATM   10  C   UNL     1     -10.385  17.272  66.460  1.00  0.00    -0.308 C  
BRANCH  10  11
HETATM   11  C   UNL     1      -9.960  18.654  65.957  1.00  0.00    -0.242 C  
BRANCH  11  12
HETATM   12  N   UNL     1      -8.764  19.254  66.752  1.00  0.00    -0.298 N  
HETATM   13  C   UNL     1      -8.053  18.191  67.589  1.00  0.00    -0.234 C  
HETATM   14  C   UNL     1      -9.323  20.316  67.702  1.00  0.00    -0.353 C  
HETATM   15  C   UNL     1      -7.759  19.926  65.821  1.00  0.00    -0.264 C  
ENDBRANCH  11  12
ENDBRANCH  10  11
ENDBRANCH   6  10
ENDBRANCH   2   3
TORSDOF 5
ENDMDL
MODEL       69
REMARK 921   NORMALIZED FREE ENERGY PREDICTED BY IDOCK:   -3.22 KCAL/MOL
REMARK 922        TOTAL FREE ENERGY PREDICTED BY IDOCK:   -4.40 KCAL/MOL
REMARK 923 INTER-LIGAND FREE ENERGY PREDICTED BY IDOCK:   -4.15 KCAL/MOL
REMARK 924 INTRA-LIGAND FREE ENERGY PREDICTED BY IDOCK:   -0.25 KCAL/MOL
REMARK 927      BINDING AFFINITY PREDICTED BY RF-SCORE:    0.00 PKD
ROOT
HETATM    1  C   UNL     1      -8.732   9.159  65.190  1.00  0.00    -0.228 C  
HETATM    2  C   UNL     1      -9.627  10.340  64.880  1.00  0.00    -0.304 C  
ENDROOT
BRANCH   2   3
HETATM    3  O   UNL     1      -9.146  11.443  65.630  1.00  0.00    -0.209 OA 
HETATM    4  P   UNL     1     -10.308  12.442  66.433  1.00  0.00    -0.245 P  
HETATM    5  O   UNL     1      -9.025  13.189  67.180  1.00  0.00    -0.211 OA 
HETATM    6  S   UNL     1     -11.733  13.666  67.417  1.00  0.00    -0.396 SA 
HETATM    7  O   UNL     1     -10.788  11.307  67.344  1.00  0.00    -0.229 OA 
BRANCH   5   8
HETATM    8  C   UNL     1      -8.396  12.511  68.265  1.00  0.00    -0.167 C  
HETATM    9  C   UNL     1      -7.051  13.162  68.546  1.00  0.00    -0.105 C  
ENDBRANCH   5   8
BRANCH   6  10
HETATM   10  C   UNL     1     -11.037  14.269  68.964  1.00  0.00    -0.259 C  
BRANCH  10  11
HETATM   11  C   UNL     1     -11.981  15.256  69.656  1.00  0.00    -0.338 C  
BRANCH  11  12
HETATM   12  N   UNL     1     -12.567  14.711  70.990  1.00  0.00    -0.307 N  
HETATM   13  C   UNL     1     -12.558  13.182  71.027  1.00  0.00    -0.312 C  
HETATM   14  C   UNL     1     -14.020  15.183  71.087  1.00  0.00    -0.404 C  
HETATM   15  C   UNL     1     -11.806  15.255  72.195  1.00  0.00    -0.439 C  
ENDBRANCH  11  12
ENDBRANCH  10  11
ENDBRANCH   6  10
ENDBRANCH   2   3
TORSDOF 5
ENDMDL
MODEL       70
REMARK 921   NORMALIZED FREE ENERGY PREDICTED BY IDOCK:   -3.17 KCAL/MOL
REMARK 922        TOTAL FREE ENERGY PREDICTED BY IDOCK:   -4.34 KCAL/MOL
REMARK 923 INTER-LIGAND FREE ENERGY PREDICTED BY IDOCK:   -4.09 KCAL/MOL
REMARK 924 INTRA-LIGAND FREE ENERGY PREDICTED BY IDOCK:   -0.26 KCAL/MOL
REMARK 927      BINDING AFFINITY PREDICTED BY RF-SCORE:    0.00 PKD
ROOT
HETATM    1  C   UNL     1     -11.064  15.418  67.045  1.00  0.00    -0.273 C  
HETATM    2  C   UNL     1     -11.678  14.080  67.393  1.00  0.00    -0.388 C  
ENDROOT
BRANCH   2   3
HETATM    3  O   UNL     1     -10.700  13.086  67.138  1.00  0.00    -0.251 OA 
HETATM    4  P   UNL     1     -10.549  11.791  68.275  1.00  0.00    -0.231 P  
HETATM    5  O   UNL     1      -9.523  11.066  67.186  1.00  0.00    -0.163 OA 
HETATM    6  S   UNL     1     -10.364  10.203  69.668  1.00  0.00    -0.253 SA 
HETATM    7  O   UNL     1     -11.964  11.270  68.006  1.00  0.00    -0.621 OA 
BRANCH   5   8
HETATM    8  C   UNL     1     -10.098  10.419  66.053  1.00  0.00    -0.243 C  
HETATM    9  C   UNL     1      -8.993  10.043  65.080  1.00  0.00    -0.234 C  
ENDBRANCH   5   8
BRANCH   6  10
HETATM   10  C   UNL     1      -9.919   8.691  68.797  1.00  0.00    -0.183 C  
BRANCH  10  11
HETATM   11  C   UNL     1      -9.624   7.549  69.773  1.00  0.00    -0.163 C  
BRANCH  11  12
HETATM   12  N   UNL     1     -10.614   6.356  69.638  1.00  0.00    -0.228 N  
HETATM   13  C   UNL     1     -11.062   6.156  68.191  1.00  0.00    -0.227 C  
HETATM   14  C   UNL     1     -11.850   6.681  70.481  1.00  0.00    -0.370 C  
HETATM   15  C   UNL     1     -10.002   5.062  70.167  1.00  0.00    -0.258 C  
ENDBRANCH  11  12
ENDBRANCH  10  11
ENDBRANCH   6  10
ENDBRANCH   2   3
TORSDOF 5
ENDMDL
MODEL       71
REMARK 921   NORMALIZED FREE ENERGY PREDICTED BY IDOCK:   -3.17 KCAL/MOL
REMARK 922        TOTAL FREE ENERGY PREDICTED BY IDOCK:   -4.34 KCAL/MOL
REMARK 923 INTER-LIGAND FREE ENERGY PREDICTED BY IDOCK:   -3.99 KCAL/MOL
REMARK 924 INTRA-LIGAND FREE ENERGY PREDICTED BY IDOCK:   -0.35 KCAL/MOL
REMARK 927      BINDING AFFINITY PREDICTED BY RF-SCORE:    0.00 PKD
ROOT
HETATM    1  C   UNL     1      -8.454   8.438  66.806  1.00  0.00    -0.114 C  
HETATM    2  C   UNL     1      -9.932   8.533  67.122  1.00  0.00    -0.238 C  
ENDROOT
BRANCH   2   3
HETATM    3  O   UNL     1     -10.116   9.672  67.945  1.00  0.00    -0.162 OA 
HETATM    4  P   UNL     1     -10.165  11.223  67.179  1.00  0.00    -0.217 P  
HETATM    5  O   UNL     1     -10.632  11.841  68.650  1.00  0.00    -0.211 OA 
HETATM    6  S   UNL     1     -10.226  13.123  66.240  1.00  0.00    -0.299 SA 
HETATM    7  O   UNL     1     -11.433  10.891  66.385  1.00  0.00    -0.111 OA 
BRANCH   5   8
HETATM    8  C   UNL     1     -11.986  11.653  69.056  1.00  0.00    -0.305 C  
HETATM    9  C   UNL     1     -12.012  11.206  70.508  1.00  0.00    -0.475 C  
ENDBRANCH   5   8
BRANCH   6  10
HETATM   10  C   UNL     1     -11.371  14.193  67.126  1.00  0.00    -0.332 C  
BRANCH  10  11
HETATM   11  C   UNL     1     -10.863  15.636  67.178  1.00  0.00    -0.297 C  
BRANCH  11  12
HETATM   12  N   UNL     1     -10.548  16.123  68.622  1.00  0.00    -0.266 N  
HETATM   13  C   UNL     1      -9.323  15.415  69.201  1.00  0.00    -0.246 C  
HETATM   14  C   UNL     1     -11.755  15.784  69.501  1.00  0.00    -0.360 C  
HETATM   15  C   UNL     1     -10.333  17.632  68.666  1.00  0.00    -0.359 C  
ENDBRANCH  11  12
ENDBRANCH  10  11
ENDBRANCH   6  10
ENDBRANCH   2   3
TORSDOF 5
ENDMDL
MODEL       72
REMARK 921   NORMALIZED FREE ENERGY PREDICTED BY IDOCK:   -3.13 KCAL/MOL
REMARK 922        TOTAL FREE ENERGY PREDICTED BY IDOCK:   -4.29 KCAL/MOL
REMARK 923 INTER-LIGAND FREE ENERGY PREDICTED BY IDOCK:   -4.12 KCAL/MOL
REMARK 924 INTRA-LIGAND FREE ENERGY PREDICTED BY IDOCK:   -0.17 KCAL/MOL
REMARK 927      BINDING AFFINITY PREDICTED BY RF-SCORE:    0.00 PKD
ROOT
HETATM    1  C   UNL     1      -9.153  10.800  62.495  1.00  0.00    -0.344 C  
HETATM    2  C   UNL     1     -10.444  11.048  63.244  1.00  0.00    -0.190 C  
ENDROOT
BRANCH   2   3
HETATM    3  O   UNL     1     -10.123  11.142  64.621  1.00  0.00    -0.256 OA 
HETATM    4  P   UNL     1     -10.528  12.606  65.448  1.00  0.00    -0.292 P  
HETATM    5  O   UNL     1     -10.113  11.827  66.857  1.00  0.00    -0.204 OA 
HETATM    6  S   UNL     1     -11.024  14.401  66.461  1.00  0.00    -0.323 SA 
HETATM    7  O   UNL     1     -12.033  12.418  65.232  1.00  0.00    -0.404 OA 
BRANCH   5   8
HETATM    8  C   UNL     1     -11.043  10.895  67.404  1.00  0.00    -0.307 C  
HETATM    9  C   UNL     1     -10.325   9.587  67.693  1.00  0.00    -0.299 C  
ENDBRANCH   5   8
BRANCH   6  10
HETATM   10  C   UNL     1     -11.482  14.023  68.161  1.00  0.00    -0.309 C  
BRANCH  10  11
HETATM   11  C   UNL     1     -11.945  15.276  68.908  1.00  0.00    -0.264 C  
BRANCH  11  12
HETATM   12  N   UNL     1     -10.778  16.057  69.578  1.00  0.00    -0.273 N  
HETATM   13  C   UNL     1      -9.487  15.238  69.592  1.00  0.00    -0.165 C  
HETATM   14  C   UNL     1     -11.180  16.341  71.028  1.00  0.00    -0.184 C  
HETATM   15  C   UNL     1     -10.528  17.391  68.881  1.00  0.00    -0.312 C  
ENDBRANCH  11  12
ENDBRANCH  10  11
ENDBRANCH   6  10
ENDBRANCH   2   3
TORSDOF 5
ENDMDL
MODEL       73
REMARK 921   NORMALIZED FREE ENERGY PREDICTED BY IDOCK:   -3.11 KCAL/MOL
REMARK 922        TOTAL FREE ENERGY PREDICTED BY IDOCK:   -4.27 KCAL/MOL
REMARK 923 INTER-LIGAND FREE ENERGY PREDICTED BY IDOCK:   -3.99 KCAL/MOL
REMARK 924 INTRA-LIGAND FREE ENERGY PREDICTED BY IDOCK:   -0.27 KCAL/MOL
REMARK 927      BINDING AFFINITY PREDICTED BY RF-SCORE:    0.00 PKD
ROOT
HETATM    1  C   UNL     1     -10.588   6.326  67.208  1.00  0.00    -0.371 C  
HETATM    2  C   UNL     1      -9.442   7.303  67.057  1.00  0.00    -0.156 C  
ENDROOT
BRANCH   2   3
HETATM    3  O   UNL     1      -9.849   8.292  66.127  1.00  0.00    -0.196 OA 
HETATM    4  P   UNL     1     -10.142   9.890  66.722  1.00  0.00    -0.227 P  
HETATM    5  O   UNL     1     -10.270  10.367  65.134  1.00  0.00    -0.304 OA 
HETATM    6  S   UNL     1     -10.501  11.847  67.452  1.00  0.00    -0.222 SA 
HETATM    7  O   UNL     1      -8.687  10.091  67.158  1.00  0.00    -0.128 OA 
BRANCH   5   8
HETATM    8  C   UNL     1      -9.067  10.530  64.386  1.00  0.00    -0.225 C  
HETATM    9  C   UNL     1      -9.419  10.815  62.935  1.00  0.00    -0.373 C  
ENDBRANCH   5   8
BRANCH   6  10
HETATM   10  C   UNL     1     -10.022  13.050  66.200  1.00  0.00    -0.278 C  
BRANCH  10  11
HETATM   11  C   UNL     1      -9.244  14.217  66.813  1.00  0.00    -0.266 C  
BRANCH  11  12
HETATM   12  N   UNL     1      -9.905  15.601  66.550  1.00  0.00    -0.247 N  
HETATM   13  C   UNL     1     -10.711  16.079  67.759  1.00  0.00    -0.323 C  
HETATM   14  C   UNL     1     -10.866  15.440  65.369  1.00  0.00    -0.391 C  
HETATM   15  C   UNL     1      -8.865  16.654  66.181  1.00  0.00    -0.288 C  
ENDBRANCH  11  12
ENDBRANCH  10  11
ENDBRANCH   6  10
ENDBRANCH   2   3
TORSDOF 5
ENDMDL
MODEL       74
REMARK 921   NORMALIZED FREE ENERGY PREDICTED BY IDOCK:   -3.11 KCAL/MOL
REMARK 922        TOTAL FREE ENERGY PREDICTED BY IDOCK:   -4.26 KCAL/MOL
REMARK 923 INTER-LIGAND FREE ENERGY PREDICTED BY IDOCK:   -3.88 KCAL/MOL
REMARK 924 INTRA-LIGAND FREE ENERGY PREDICTED BY IDOCK:   -0.38 KCAL/MOL
REMARK 927      BINDING AFFINITY PREDICTED BY RF-SCORE:    0.00 PKD
ROOT
HETATM    1  C   UNL     1     -12.713  15.623  74.513  1.00  0.00    -0.403 C  
HETATM    2  C   UNL     1     -13.175  15.933  73.106  1.00  0.00    -0.592 C  
ENDROOT
BRANCH   2   3
HETATM    3  O   UNL     1     -13.442  14.696  72.467  1.00  0.00    -0.397 OA 
HETATM    4  P   UNL     1     -12.843  14.470  70.860  1.00  0.00    -0.349 P  
HETATM    5  O   UNL     1     -13.305  12.879  71.001  1.00  0.00     0.014 OA 
HETATM    6  S   UNL     1     -12.109  14.194  68.890  1.00  0.00    -0.239 SA 
HETATM    7  O   UNL     1     -11.378  14.575  71.295  1.00  0.00    -0.135 OA 
BRANCH   5   8
HETATM    8  C   UNL     1     -12.476  12.007  71.766  1.00  0.00     0.132 C  
HETATM    9  C   UNL     1     -13.120  10.632  71.821  1.00  0.00    -0.571 C  
ENDBRANCH   5   8
BRANCH   6  10
HETATM   10  C   UNL     1     -11.649  12.468  68.659  1.00  0.00    -0.314 C  
BRANCH  10  11
HETATM   11  C   UNL     1     -10.130  12.301  68.567  1.00  0.00    -0.187 C  
BRANCH  11  12
HETATM   12  N   UNL     1      -9.608  12.232  67.103  1.00  0.00    -0.196 N  
HETATM   13  C   UNL     1      -8.480  11.211  66.954  1.00  0.00    -0.147 C  
HETATM   14  C   UNL     1      -9.055  13.613  66.741  1.00  0.00    -0.217 C  
HETATM   15  C   UNL     1     -10.732  11.896  66.127  1.00  0.00    -0.278 C  
ENDBRANCH  11  12
ENDBRANCH  10  11
ENDBRANCH   6  10
ENDBRANCH   2   3
TORSDOF 5
ENDMDL
MODEL       75
REMARK 921   NORMALIZED FREE ENERGY PREDICTED BY IDOCK:   -3.10 KCAL/MOL
REMARK 922        TOTAL FREE ENERGY PREDICTED BY IDOCK:   -4.26 KCAL/MOL
REMARK 923 INTER-LIGAND FREE ENERGY PREDICTED BY IDOCK:   -3.93 KCAL/MOL
REMARK 924 INTRA-LIGAND FREE ENERGY PREDICTED BY IDOCK:   -0.33 KCAL/MOL
REMARK 927      BINDING AFFINITY PREDICTED BY RF-SCORE:    0.00 PKD
ROOT
HETATM    1  C   UNL     1     -10.145  16.038  68.980  1.00  0.00    -0.239 C  
HETATM    2  C   UNL     1     -11.317  15.979  68.023  1.00  0.00    -0.266 C  
ENDROOT
BRANCH   2   3
HETATM    3  O   UNL     1     -11.041  14.959  67.078  1.00  0.00    -0.323 OA 
HETATM    4  P   UNL     1     -10.650  13.385  67.679  1.00  0.00    -0.250 P  
HETATM    5  O   UNL     1     -10.751  12.852  66.107  1.00  0.00    -0.268 OA 
HETATM    6  S   UNL     1     -10.172  11.456  68.417  1.00  0.00    -0.204 SA 
HETATM    7  O   UNL     1     -12.024  13.194  68.329  1.00  0.00    -0.343 OA 
BRANCH   5   8
HETATM    8  C   UNL     1     -12.048  12.657  65.549  1.00  0.00    -0.458 C  
HETATM    9  C   UNL     1     -12.118  13.355  64.200  1.00  0.00    -0.491 C  
ENDBRANCH   5   8
BRANCH   6  10
HETATM   10  C   UNL     1     -10.817  10.207  67.290  1.00  0.00    -0.230 C  
BRANCH  10  11
HETATM   11  C   UNL     1     -10.041   8.893  67.408  1.00  0.00    -0.227 C  
BRANCH  11  12
HETATM   12  N   UNL     1      -8.934   8.736  66.326  1.00  0.00    -0.161 N  
HETATM   13  C   UNL     1      -7.599   9.313  66.797  1.00  0.00    -0.090 C  
HETATM   14  C   UNL     1      -9.381   9.516  65.087  1.00  0.00    -0.252 C  
HETATM   15  C   UNL     1      -8.747   7.274  65.929  1.00  0.00    -0.131 C  
ENDBRANCH  11  12
ENDBRANCH  10  11
ENDBRANCH   6  10
ENDBRANCH   2   3
TORSDOF 5
ENDMDL
MODEL       76
REMARK 921   NORMALIZED FREE ENERGY PREDICTED BY IDOCK:   -3.10 KCAL/MOL
REMARK 922        TOTAL FREE ENERGY PREDICTED BY IDOCK:   -4.25 KCAL/MOL
REMARK 923 INTER-LIGAND FREE ENERGY PREDICTED BY IDOCK:   -3.95 KCAL/MOL
REMARK 924 INTRA-LIGAND FREE ENERGY PREDICTED BY IDOCK:   -0.30 KCAL/MOL
REMARK 927      BINDING AFFINITY PREDICTED BY RF-SCORE:    0.00 PKD
ROOT
HETATM    1  C   UNL     1      -7.767   8.143  70.173  1.00  0.00    -0.085 C  
HETATM    2  C   UNL     1      -9.186   8.152  70.701  1.00  0.00    -0.154 C  
ENDROOT
BRANCH   2   3
HETATM    3  O   UNL     1      -9.690   9.466  70.535  1.00  0.00    -0.236 OA 
HETATM    4  P   UNL     1      -9.365  10.274  69.041  1.00  0.00    -0.196 P  
HETATM    5  O   UNL     1     -10.421  11.455  69.548  1.00  0.00    -0.083 OA 
HETATM    6  S   UNL     1      -8.967  11.265  67.210  1.00  0.00    -0.151 SA 
HETATM    7  O   UNL     1     -10.159   9.258  68.214  1.00  0.00    -0.170 OA 
BRANCH   5   8
HETATM    8  C   UNL     1     -11.818  11.187  69.458  1.00  0.00    -0.353 C  
HETATM    9  C   UNL     1     -12.505  11.702  70.711  1.00  0.00    -0.425 C  
ENDBRANCH   5   8
BRANCH   6  10
HETATM   10  C   UNL     1     -10.364  12.318  66.782  1.00  0.00    -0.217 C  
BRANCH  10  11
HETATM   11  C   UNL     1     -11.206  11.703  65.661  1.00  0.00    -0.214 C  
BRANCH  11  12
HETATM   12  N   UNL     1     -11.155  12.520  64.338  1.00  0.00    -0.318 N  
HETATM   13  C   UNL     1     -10.848  13.995  64.597  1.00  0.00    -0.403 C  
HETATM   14  C   UNL     1     -12.536  12.428  63.682  1.00  0.00    -0.508 C  
HETATM   15  C   UNL     1     -10.126  11.947  63.368  1.00  0.00    -0.438 C  
ENDBRANCH  11  12
ENDBRANCH  10  11
ENDBRANCH   6  10
ENDBRANCH   2   3
TORSDOF 5
ENDMDL
MODEL       77
REMARK 921   NORMALIZED FREE ENERGY PREDICTED BY IDOCK:   -3.09 KCAL/MOL
REMARK 922        TOTAL FREE ENERGY PREDICTED BY IDOCK:   -4.25 KCAL/MOL
REMARK 923 INTER-LIGAND FREE ENERGY PREDICTED BY IDOCK:   -3.80 KCAL/MOL
REMARK 924 INTRA-LIGAND FREE ENERGY PREDICTED BY IDOCK:   -0.45 KCAL/MOL
REMARK 927      BINDING AFFINITY PREDICTED BY RF-SCORE:    0.00 PKD
ROOT
HETATM    1  C   UNL     1     -11.488  15.918  64.368  1.00  0.00    -0.268 C  
HETATM    2  C   UNL     1     -12.106  14.536  64.340  1.00  0.00    -0.472 C  
ENDROOT
BRANCH   2   3
HETATM    3  O   UNL     1     -11.059  13.600  64.530  1.00  0.00    -0.364 OA 
HETATM    4  P   UNL     1     -10.713  13.093  66.147  1.00  0.00    -0.285 P  
HETATM    5  O   UNL     1      -9.698  11.954  65.483  1.00  0.00    -0.233 OA 
HETATM    6  S   UNL     1     -10.289  12.470  68.129  1.00  0.00    -0.236 SA 
HETATM    7  O   UNL     1     -12.088  12.445  66.334  1.00  0.00    -0.607 OA 
BRANCH   5   8
HETATM    8  C   UNL     1     -10.285  10.788  64.911  1.00  0.00    -0.320 C  
HETATM    9  C   UNL     1      -9.649  10.525  63.556  1.00  0.00    -0.374 C  
ENDBRANCH   5   8
BRANCH   6  10
HETATM   10  C   UNL     1      -9.765  10.748  68.117  1.00  0.00    -0.159 C  
BRANCH  10  11
HETATM   11  C   UNL     1      -8.277  10.613  68.452  1.00  0.00    -0.125 C  
BRANCH  11  12
HETATM   12  N   UNL     1      -7.586   9.431  67.711  1.00  0.00    -0.088 N  
HETATM   13  C   UNL     1      -8.580   8.320  67.373  1.00  0.00    -0.125 C  
HETATM   14  C   UNL     1      -6.523   8.854  68.648  1.00  0.00    -0.054 C  
HETATM   15  C   UNL     1      -6.895   9.903  66.435  1.00  0.00    -0.090 C  
ENDBRANCH  11  12
ENDBRANCH  10  11
ENDBRANCH   6  10
ENDBRANCH   2   3
TORSDOF 5
ENDMDL
MODEL       78
REMARK 921   NORMALIZED FREE ENERGY PREDICTED BY IDOCK:   -3.08 KCAL/MOL
REMARK 922        TOTAL FREE ENERGY PREDICTED BY IDOCK:   -4.23 KCAL/MOL
REMARK 923 INTER-LIGAND FREE ENERGY PREDICTED BY IDOCK:   -3.93 KCAL/MOL
REMARK 924 INTRA-LIGAND FREE ENERGY PREDICTED BY IDOCK:   -0.29 KCAL/MOL
REMARK 927      BINDING AFFINITY PREDICTED BY RF-SCORE:    0.00 PKD
ROOT
HETATM    1  C   UNL     1      -7.932   5.618  66.421  1.00  0.00    -0.101 C  
HETATM    2  C   UNL     1      -8.847   5.738  67.621  1.00  0.00    -0.105 C  
ENDROOT
BRANCH   2   3
HETATM    3  O   UNL     1      -8.765   7.075  68.083  1.00  0.00    -0.127 OA 
HETATM    4  P   UNL     1      -9.225   8.336  66.993  1.00  0.00    -0.172 P  
HETATM    5  O   UNL     1      -9.105   9.380  68.282  1.00  0.00    -0.128 OA 
HETATM    6  S   UNL     1      -9.789   9.882  65.656  1.00  0.00    -0.288 SA 
HETATM    7  O   UNL     1     -10.678   7.857  66.909  1.00  0.00    -0.333 OA 
BRANCH   5   8
HETATM    8  C   UNL     1     -10.167   9.391  69.234  1.00  0.00    -0.202 C  
HETATM    9  C   UNL     1      -9.578   9.437  70.634  1.00  0.00    -0.331 C  
ENDBRANCH   5   8
BRANCH   6  10
HETATM   10  C   UNL     1     -10.556  11.224  66.580  1.00  0.00    -0.262 C  
BRANCH  10  11
HETATM   11  C   UNL     1     -10.155  12.591  66.019  1.00  0.00    -0.253 C  
BRANCH  11  12
HETATM   12  N   UNL     1     -11.373  13.454  65.580  1.00  0.00    -0.296 N  
HETATM   13  C   UNL     1     -10.943  14.635  64.710  1.00  0.00    -0.386 C  
HETATM   14  C   UNL     1     -12.031  14.008  66.847  1.00  0.00    -0.447 C  
HETATM   15  C   UNL     1     -12.407  12.618  64.832  1.00  0.00    -0.498 C  
ENDBRANCH  11  12
ENDBRANCH  10  11
ENDBRANCH   6  10
ENDBRANCH   2   3
TORSDOF 5
ENDMDL
MODEL       79
REMARK 921   NORMALIZED FREE ENERGY PREDICTED BY IDOCK:   -3.07 KCAL/MOL
REMARK 922        TOTAL FREE ENERGY PREDICTED BY IDOCK:   -4.21 KCAL/MOL
REMARK 923 INTER-LIGAND FREE ENERGY PREDICTED BY IDOCK:   -3.84 KCAL/MOL
REMARK 924 INTRA-LIGAND FREE ENERGY PREDICTED BY IDOCK:   -0.38 KCAL/MOL
REMARK 927      BINDING AFFINITY PREDICTED BY RF-SCORE:    0.00 PKD
ROOT
HETATM    1  C   UNL     1     -11.770   7.721  71.824  1.00  0.00    -0.323 C  
HETATM    2  C   UNL     1     -13.054   8.520  71.756  1.00  0.00    -0.355 C  
ENDROOT
BRANCH   2   3
HETATM    3  O   UNL     1     -12.705   9.890  71.851  1.00  0.00    -0.394 OA 
HETATM    4  P   UNL     1     -11.862  10.603  70.518  1.00  0.00    -0.384 P  
HETATM    5  O   UNL     1     -12.091  12.070  71.267  1.00  0.00    -0.063 OA 
HETATM    6  S   UNL     1     -10.829  11.476  68.886  1.00  0.00    -0.219 SA 
HETATM    7  O   UNL     1     -13.027  10.384  69.548  1.00  0.00     0.025 OA 
BRANCH   5   8
HETATM    8  C   UNL     1     -13.379  12.673  71.177  1.00  0.00     0.241 C  
HETATM    9  C   UNL     1     -13.584  13.589  72.372  1.00  0.00    -0.709 C  
ENDBRANCH   5   8
BRANCH   6  10
HETATM   10  C   UNL     1     -11.338  13.194  68.705  1.00  0.00    -0.289 C  
BRANCH  10  11
HETATM   11  C   UNL     1     -10.159  14.089  68.317  1.00  0.00    -0.246 C  
BRANCH  11  12
HETATM   12  N   UNL     1     -10.216  15.497  68.977  1.00  0.00    -0.217 N  
HETATM   13  C   UNL     1     -10.833  16.535  68.040  1.00  0.00    -0.337 C  
HETATM   14  C   UNL     1      -8.778  15.925  69.284  1.00  0.00    -0.250 C  
HETATM   15  C   UNL     1     -10.995  15.466  70.288  1.00  0.00    -0.315 C  
ENDBRANCH  11  12
ENDBRANCH  10  11
ENDBRANCH   6  10
ENDBRANCH   2   3
TORSDOF 5
ENDMDL
MODEL       80
REMARK 921   NORMALIZED FREE ENERGY PREDICTED BY IDOCK:   -3.06 KCAL/MOL
REMARK 922        TOTAL FREE ENERGY PREDICTED BY IDOCK:   -4.20 KCAL/MOL
REMARK 923 INTER-LIGAND FREE ENERGY PREDICTED BY IDOCK:   -3.85 KCAL/MOL
REMARK 924 INTRA-LIGAND FREE ENERGY PREDICTED BY IDOCK:   -0.35 KCAL/MOL
REMARK 927      BINDING AFFINITY PREDICTED BY RF-SCORE:    0.00 PKD
ROOT
HETATM    1  C   UNL     1      -7.787   5.758  67.167  1.00  0.00    -0.102 C  
HETATM    2  C   UNL     1      -9.101   6.121  67.825  1.00  0.00    -0.117 C  
ENDROOT
BRANCH   2   3
HETATM    3  O   UNL     1      -9.678   7.170  67.067  1.00  0.00    -0.150 OA 
HETATM    4  P   UNL     1     -10.100   8.629  67.895  1.00  0.00    -0.224 P  
HETATM    5  O   UNL     1     -10.392   9.294  66.399  1.00  0.00    -0.251 OA 
HETATM    6  S   UNL     1     -10.616  10.418  68.909  1.00  0.00    -0.231 SA 
HETATM    7  O   UNL     1      -8.648   8.941  68.272  1.00  0.00    -0.132 OA 
BRANCH   5   8
HETATM    8  C   UNL     1      -9.271   9.695  65.614  1.00  0.00    -0.215 C  
HETATM    9  C   UNL     1      -9.767  10.286  64.305  1.00  0.00    -0.373 C  
ENDBRANCH   5   8
BRANCH   6  10
HETATM   10  C   UNL     1     -10.362  11.823  67.812  1.00  0.00    -0.194 C  
BRANCH  10  11
HETATM   11  C   UNL     1     -11.694  12.413  67.341  1.00  0.00    -0.347 C  
BRANCH  11  12
HETATM   12  N   UNL     1     -11.526  13.719  66.511  1.00  0.00    -0.334 N  
HETATM   13  C   UNL     1     -12.629  13.866  65.463  1.00  0.00    -0.526 C  
HETATM   14  C   UNL     1     -10.182  13.636  65.783  1.00  0.00    -0.308 C  
HETATM   15  C   UNL     1     -11.507  14.951  67.410  1.00  0.00    -0.343 C  
ENDBRANCH  11  12
ENDBRANCH  10  11
ENDBRANCH   6  10
ENDBRANCH   2   3
TORSDOF 5
ENDMDL
MODEL       81
REMARK 921   NORMALIZED FREE ENERGY PREDICTED BY IDOCK:   -3.05 KCAL/MOL
REMARK 922        TOTAL FREE ENERGY PREDICTED BY IDOCK:   -4.19 KCAL/MOL
REMARK 923 INTER-LIGAND FREE ENERGY PREDICTED BY IDOCK:   -3.85 KCAL/MOL
REMARK 924 INTRA-LIGAND FREE ENERGY PREDICTED BY IDOCK:   -0.34 KCAL/MOL
REMARK 927      BINDING AFFINITY PREDICTED BY RF-SCORE:    0.00 PKD
ROOT
HETATM    1  C   UNL     1      -8.811   9.799  63.879  1.00  0.00    -0.259 C  
HETATM    2  C   UNL     1      -9.868  10.473  64.728  1.00  0.00    -0.323 C  
ENDROOT
BRANCH   2   3
HETATM    3  O   UNL     1      -9.311  10.673  66.016  1.00  0.00    -0.174 OA 
HETATM    4  P   UNL     1     -10.396  10.763  67.360  1.00  0.00    -0.240 P  
HETATM    5  O   UNL     1      -9.052  10.723  68.339  1.00  0.00    -0.149 OA 
HETATM    6  S   UNL     1     -11.725  10.873  69.008  1.00  0.00    -0.297 SA 
HETATM    7  O   UNL     1     -10.886   9.323  67.176  1.00  0.00    -0.217 OA 
BRANCH   5   8
HETATM    8  C   UNL     1      -8.410   9.466  68.542  1.00  0.00    -0.118 C  
HETATM    9  C   UNL     1      -6.917   9.628  68.309  1.00  0.00    -0.073 C  
ENDBRANCH   5   8
BRANCH   6  10
HETATM   10  C   UNL     1     -10.943  10.148  70.458  1.00  0.00    -0.310 C  
BRANCH  10  11
HETATM   11  C   UNL     1     -11.975   9.508  71.390  1.00  0.00    -0.386 C  
BRANCH  11  12
HETATM   12  N   UNL     1     -11.813   7.965  71.517  1.00  0.00    -0.280 N  
HETATM   13  C   UNL     1     -13.166   7.254  71.515  1.00  0.00    -0.379 C  
HETATM   14  C   UNL     1     -11.124   7.679  72.854  1.00  0.00    -0.393 C  
HETATM   15  C   UNL     1     -10.939   7.404  70.399  1.00  0.00    -0.251 C  
ENDBRANCH  11  12
ENDBRANCH  10  11
ENDBRANCH   6  10
ENDBRANCH   2   3
TORSDOF 5
ENDMDL
MODEL       82
REMARK 921   NORMALIZED FREE ENERGY PREDICTED BY IDOCK:   -3.03 KCAL/MOL
REMARK 922        TOTAL FREE ENERGY PREDICTED BY IDOCK:   -4.17 KCAL/MOL
REMARK 923 INTER-LIGAND FREE ENERGY PREDICTED BY IDOCK:   -3.88 KCAL/MOL
REMARK 924 INTRA-LIGAND FREE ENERGY PREDICTED BY IDOCK:   -0.29 KCAL/MOL
REMARK 927      BINDING AFFINITY PREDICTED BY RF-SCORE:    0.00 PKD
ROOT
HETATM    1  C   UNL     1     -10.910   7.033  67.057  1.00  0.00    -0.413 C  
HETATM    2  C   UNL     1     -10.295   7.806  68.204  1.00  0.00    -0.200 C  
ENDROOT
BRANCH   2   3
HETATM    3  O   UNL     1      -9.626   8.926  67.649  1.00  0.00    -0.142 OA 
HETATM    4  P   UNL     1     -10.517  10.400  67.485  1.00  0.00    -0.283 P  
HETATM    5  O   UNL     1      -9.077  11.127  67.081  1.00  0.00    -0.146 OA 
HETATM    6  S   UNL     1     -11.609  12.206  67.284  1.00  0.00    -0.306 SA 
HETATM    7  O   UNL     1     -10.715  10.554  68.996  1.00  0.00    -0.196 OA 
BRANCH   5   8
HETATM    8  C   UNL     1      -8.164  11.432  68.133  1.00  0.00    -0.143 C  
HETATM    9  C   UNL     1      -6.994  12.217  67.564  1.00  0.00    -0.138 C  
ENDBRANCH   5   8
BRANCH   6  10
HETATM   10  C   UNL     1     -10.506  13.605  67.545  1.00  0.00    -0.241 C  
BRANCH  10  11
HETATM   11  C   UNL     1     -11.214  14.934  67.271  1.00  0.00    -0.345 C  
BRANCH  11  12
HETATM   12  N   UNL     1     -10.383  15.898  66.376  1.00  0.00    -0.296 N  
HETATM   13  C   UNL     1     -10.404  17.328  66.916  1.00  0.00    -0.310 C  
HETATM   14  C   UNL     1     -11.020  15.904  64.983  1.00  0.00    -0.412 C  
HETATM   15  C   UNL     1      -8.939  15.425  66.240  1.00  0.00    -0.306 C  
ENDBRANCH  11  12
ENDBRANCH  10  11
ENDBRANCH   6  10
ENDBRANCH   2   3
TORSDOF 5
ENDMDL
MODEL       83
REMARK 921   NORMALIZED FREE ENERGY PREDICTED BY IDOCK:   -3.02 KCAL/MOL
REMARK 922        TOTAL FREE ENERGY PREDICTED BY IDOCK:   -4.15 KCAL/MOL
REMARK 923 INTER-LIGAND FREE ENERGY PREDICTED BY IDOCK:   -3.73 KCAL/MOL
REMARK 924 INTRA-LIGAND FREE ENERGY PREDICTED BY IDOCK:   -0.41 KCAL/MOL
REMARK 927      BINDING AFFINITY PREDICTED BY RF-SCORE:    0.00 PKD
ROOT
HETATM    1  C   UNL     1      -9.034   8.013  66.699  1.00  0.00    -0.179 C  
HETATM    2  C   UNL     1     -10.016   9.077  66.256  1.00  0.00    -0.281 C  
ENDROOT
BRANCH   2   3
HETATM    3  O   UNL     1     -10.193   9.968  67.344  1.00  0.00    -0.192 OA 
HETATM    4  P   UNL     1      -9.158  11.351  67.433  1.00  0.00    -0.167 P  
HETATM    5  O   UNL     1     -10.128  11.892  68.672  1.00  0.00    -0.216 OA 
HETATM    6  S   UNL     1      -7.890  13.046  67.542  1.00  0.00    -0.175 SA 
HETATM    7  O   UNL     1      -9.691  11.946  66.125  1.00  0.00    -0.221 OA 
BRANCH   5   8
HETATM    8  C   UNL     1     -11.387  12.468  68.333  1.00  0.00    -0.291 C  
HETATM    9  C   UNL     1     -12.029  13.033  69.588  1.00  0.00    -0.367 C  
ENDBRANCH   5   8
BRANCH   6  10
HETATM   10  C   UNL     1      -8.801  14.432  68.243  1.00  0.00    -0.182 C  
BRANCH  10  11
HETATM   11  C   UNL     1      -8.616  15.703  67.410  1.00  0.00    -0.175 C  
BRANCH  11  12
HETATM   12  N   UNL     1      -9.953  16.268  66.849  1.00  0.00    -0.253 N  
HETATM   13  C   UNL     1      -9.817  17.734  66.437  1.00  0.00    -0.324 C  
HETATM   14  C   UNL     1     -10.999  16.180  67.964  1.00  0.00    -0.338 C  
HETATM   15  C   UNL     1     -10.450  15.448  65.662  1.00  0.00    -0.372 C  
ENDBRANCH  11  12
ENDBRANCH  10  11
ENDBRANCH   6  10
ENDBRANCH   2   3
TORSDOF 5
ENDMDL
MODEL       84
REMARK 921   NORMALIZED FREE ENERGY PREDICTED BY IDOCK:   -2.99 KCAL/MOL
REMARK 922        TOTAL FREE ENERGY PREDICTED BY IDOCK:   -4.12 KCAL/MOL
REMARK 923 INTER-LIGAND FREE ENERGY PREDICTED BY IDOCK:   -3.72 KCAL/MOL
REMARK 924 INTRA-LIGAND FREE ENERGY PREDICTED BY IDOCK:   -0.40 KCAL/MOL
REMARK 927      BINDING AFFINITY PREDICTED BY RF-SCORE:    0.00 PKD
ROOT
HETATM    1  C   UNL     1     -10.467   5.368  73.938  1.00  0.00    -0.313 C  
HETATM    2  C   UNL     1     -10.552   6.836  73.577  1.00  0.00    -0.332 C  
ENDROOT
BRANCH   2   3
HETATM    3  O   UNL     1     -10.945   6.915  72.217  1.00  0.00    -0.227 OA 
HETATM    4  P   UNL     1     -11.348   8.472  71.581  1.00  0.00    -0.349 P  
HETATM    5  O   UNL     1     -11.397   7.755  70.082  1.00  0.00    -0.225 OA 
HETATM    6  S   UNL     1     -11.843  10.381  70.803  1.00  0.00    -0.383 SA 
HETATM    7  O   UNL     1      -9.935   9.025  71.793  1.00  0.00    -0.325 OA 
BRANCH   5   8
HETATM    8  C   UNL     1     -10.158   7.468  69.437  1.00  0.00    -0.190 C  
HETATM    9  C   UNL     1     -10.430   7.043  68.004  1.00  0.00    -0.255 C  
ENDBRANCH   5   8
BRANCH   6  10
HETATM   10  C   UNL     1     -11.342  10.471  69.075  1.00  0.00    -0.257 C  
BRANCH  10  11
HETATM   11  C   UNL     1      -9.929  11.043  68.932  1.00  0.00    -0.188 C  
BRANCH  11  12
HETATM   12  N   UNL     1      -9.356  10.904  67.491  1.00  0.00    -0.154 N  
HETATM   13  C   UNL     1      -8.931  12.258  66.921  1.00  0.00    -0.207 C  
HETATM   14  C   UNL     1     -10.466  10.338  66.602  1.00  0.00    -0.194 C  
HETATM   15  C   UNL     1      -8.174   9.941  67.453  1.00  0.00    -0.118 C  
ENDBRANCH  11  12
ENDBRANCH  10  11
ENDBRANCH   6  10
ENDBRANCH   2   3
TORSDOF 5
ENDMDL
MODEL       85
REMARK 921   NORMALIZED FREE ENERGY PREDICTED BY IDOCK:   -2.98 KCAL/MOL
REMARK 922        TOTAL FREE ENERGY PREDICTED BY IDOCK:   -4.10 KCAL/MOL
REMARK 923 INTER-LIGAND FREE ENERGY PREDICTED BY IDOCK:   -3.85 KCAL/MOL
REMARK 924 INTRA-LIGAND FREE ENERGY PREDICTED BY IDOCK:   -0.25 KCAL/MOL
REMARK 927      BINDING AFFINITY PREDICTED BY RF-SCORE:    0.00 PKD
ROOT
HETATM    1  C   UNL     1      -5.222  15.723  70.450  1.00  0.00    -0.155 C  
HETATM    2  C   UNL     1      -5.927  15.963  69.132  1.00  0.00    -0.121 C  
ENDROOT
BRANCH   2   3
HETATM    3  O   UNL     1      -7.222  15.397  69.236  1.00  0.00    -0.154 OA 
HETATM    4  P   UNL     1      -8.411  15.882  68.077  1.00  0.00    -0.167 P  
HETATM    5  O   UNL     1      -9.382  14.683  68.696  1.00  0.00    -0.199 OA 
HETATM    6  S   UNL     1      -9.869  16.477  66.657  1.00  0.00    -0.283 SA 
HETATM    7  O   UNL     1      -7.632  15.294  66.896  1.00  0.00    -0.176 OA 
BRANCH   5   8
HETATM    8  C   UNL     1      -9.109  13.337  68.314  1.00  0.00    -0.184 C  
HETATM    9  C   UNL     1     -10.368  12.505  68.489  1.00  0.00    -0.233 C  
ENDBRANCH   5   8
BRANCH   6  10
HETATM   10  C   UNL     1     -10.957  15.088  66.298  1.00  0.00    -0.338 C  
BRANCH  10  11
HETATM   11  C   UNL     1     -10.782  14.597  64.858  1.00  0.00    -0.427 C  
BRANCH  11  12
HETATM   12  N   UNL     1     -11.395  13.188  64.613  1.00  0.00    -0.319 N  
HETATM   13  C   UNL     1     -12.028  13.082  63.226  1.00  0.00    -0.421 C  
HETATM   14  C   UNL     1     -12.493  12.971  65.658  1.00  0.00    -0.390 C  
HETATM   15  C   UNL     1     -10.350  12.090  64.783  1.00  0.00    -0.280 C  
ENDBRANCH  11  12
ENDBRANCH  10  11
ENDBRANCH   6  10
ENDBRANCH   2   3
TORSDOF 5
ENDMDL
MODEL       86
REMARK 921   NORMALIZED FREE ENERGY PREDICTED BY IDOCK:   -2.97 KCAL/MOL
REMARK 922        TOTAL FREE ENERGY PREDICTED BY IDOCK:   -4.09 KCAL/MOL
REMARK 923 INTER-LIGAND FREE ENERGY PREDICTED BY IDOCK:   -3.76 KCAL/MOL
REMARK 924 INTRA-LIGAND FREE ENERGY PREDICTED BY IDOCK:   -0.33 KCAL/MOL
REMARK 927      BINDING AFFINITY PREDICTED BY RF-SCORE:    0.00 PKD
ROOT
HETATM    1  C   UNL     1      -5.757  11.421  68.452  1.00  0.00    -0.045 C  
HETATM    2  C   UNL     1      -6.256  11.886  67.100  1.00  0.00    -0.154 C  
ENDROOT
BRANCH   2   3
HETATM    3  O   UNL     1      -7.516  12.501  67.303  1.00  0.00    -0.150 OA 
HETATM    4  P   UNL     1      -7.559  13.978  68.203  1.00  0.00    -0.180 P  
HETATM    5  O   UNL     1      -9.156  14.105  67.759  1.00  0.00    -0.177 OA 
HETATM    6  S   UNL     1      -7.611  15.788  69.306  1.00  0.00    -0.218 SA 
HETATM    7  O   UNL     1      -6.721  14.738  67.170  1.00  0.00    -0.250 OA 
BRANCH   5   8
HETATM    8  C   UNL     1      -9.449  14.541  66.433  1.00  0.00    -0.291 C  
HETATM    9  C   UNL     1     -10.948  14.460  66.203  1.00  0.00    -0.320 C  
ENDBRANCH   5   8
BRANCH   6  10
HETATM   10  C   UNL     1      -8.910  16.850  68.654  1.00  0.00    -0.262 C  
BRANCH  10  11
HETATM   11  C   UNL     1      -8.356  18.209  68.217  1.00  0.00    -0.291 C  
BRANCH  11  12
HETATM   12  N   UNL     1      -9.348  19.020  67.335  1.00  0.00    -0.300 N  
HETATM   13  C   UNL     1      -8.622  20.053  66.472  1.00  0.00    -0.309 C  
HETATM   14  C   UNL     1     -10.301  19.767  68.273  1.00  0.00    -0.410 C  
HETATM   15  C   UNL     1     -10.178  18.103  66.443  1.00  0.00    -0.399 C  
ENDBRANCH  11  12
ENDBRANCH  10  11
ENDBRANCH   6  10
ENDBRANCH   2   3
TORSDOF 5
ENDMDL
MODEL       87
REMARK 921   NORMALIZED FREE ENERGY PREDICTED BY IDOCK:   -2.96 KCAL/MOL
REMARK 922        TOTAL FREE ENERGY PREDICTED BY IDOCK:   -4.07 KCAL/MOL
REMARK 923 INTER-LIGAND FREE ENERGY PREDICTED BY IDOCK:   -3.67 KCAL/MOL
REMARK 924 INTRA-LIGAND FREE ENERGY PREDICTED BY IDOCK:   -0.40 KCAL/MOL
REMARK 927      BINDING AFFINITY PREDICTED BY RF-SCORE:    0.00 PKD
ROOT
HETATM    1  C   UNL     1      -8.716   6.599  67.925  1.00  0.00    -0.116 C  
HETATM    2  C   UNL     1      -8.129   7.869  67.347  1.00  0.00    -0.123 C  
ENDROOT
BRANCH   2   3
HETATM    3  O   UNL     1      -8.694   8.957  68.059  1.00  0.00    -0.132 OA 
HETATM    4  P   UNL     1      -9.414  10.235  67.141  1.00  0.00    -0.164 P  
HETATM    5  O   UNL     1      -9.982  10.837  68.584  1.00  0.00    -0.167 OA 
HETATM    6  S   UNL     1     -10.297  11.801  66.017  1.00  0.00    -0.249 SA 
HETATM    7  O   UNL     1     -10.496   9.325  66.553  1.00  0.00    -0.227 OA 
BRANCH   5   8
HETATM    8  C   UNL     1     -11.114  10.202  69.174  1.00  0.00    -0.212 C  
HETATM    9  C   UNL     1     -10.865  10.023  70.662  1.00  0.00    -0.367 C  
ENDBRANCH   5   8
BRANCH   6  10
HETATM   10  C   UNL     1     -11.707  12.464  66.919  1.00  0.00    -0.362 C  
BRANCH  10  11
HETATM   11  C   UNL     1     -11.670  13.994  66.971  1.00  0.00    -0.398 C  
BRANCH  11  12
HETATM   12  N   UNL     1     -11.286  14.550  68.373  1.00  0.00    -0.275 N  
HETATM   13  C   UNL     1     -11.547  16.053  68.474  1.00  0.00    -0.316 C  
HETATM   14  C   UNL     1      -9.788  14.310  68.574  1.00  0.00    -0.231 C  
HETATM   15  C   UNL     1     -12.040  13.825  69.484  1.00  0.00    -0.334 C  
ENDBRANCH  11  12
ENDBRANCH  10  11
ENDBRANCH   6  10
ENDBRANCH   2   3
TORSDOF 5
ENDMDL
MODEL       88
REMARK 921   NORMALIZED FREE ENERGY PREDICTED BY IDOCK:   -2.94 KCAL/MOL
REMARK 922        TOTAL FREE ENERGY PREDICTED BY IDOCK:   -4.05 KCAL/MOL
REMARK 923 INTER-LIGAND FREE ENERGY PREDICTED BY IDOCK:   -3.72 KCAL/MOL
REMARK 924 INTRA-LIGAND FREE ENERGY PREDICTED BY IDOCK:   -0.33 KCAL/MOL
REMARK 927      BINDING AFFINITY PREDICTED BY RF-SCORE:    0.00 PKD
ROOT
HETATM    1  C   UNL     1     -10.384   6.114  69.486  1.00  0.00    -0.277 C  
HETATM    2  C   UNL     1      -9.578   7.160  70.227  1.00  0.00    -0.169 C  
ENDROOT
BRANCH   2   3
HETATM    3  O   UNL     1      -9.049   8.051  69.260  1.00  0.00    -0.148 OA 
HETATM    4  P   UNL     1     -10.067   9.334  68.703  1.00  0.00    -0.199 P  
HETATM    5  O   UNL     1      -8.728   9.946  67.928  1.00  0.00    -0.128 OA 
HETATM    6  S   UNL     1     -11.314  10.907  68.020  1.00  0.00    -0.286 SA 
HETATM    7  O   UNL     1     -10.151   9.989  70.085  1.00  0.00    -0.255 OA 
BRANCH   5   8
HETATM    8  C   UNL     1      -7.759  10.637  68.713  1.00  0.00    -0.117 C  
HETATM    9  C   UNL     1      -6.703  11.226  67.793  1.00  0.00    -0.069 C  
ENDBRANCH   5   8
BRANCH   6  10
HETATM   10  C   UNL     1     -10.309  12.362  67.676  1.00  0.00    -0.216 C  
BRANCH  10  11
HETATM   11  C   UNL     1     -10.512  12.855  66.241  1.00  0.00    -0.270 C  
BRANCH  11  12
HETATM   12  N   UNL     1     -11.294  14.199  66.160  1.00  0.00    -0.329 N  
HETATM   13  C   UNL     1     -12.609  14.040  65.397  1.00  0.00    -0.505 C  
HETATM   14  C   UNL     1     -10.419  15.200  65.402  1.00  0.00    -0.393 C  
HETATM   15  C   UNL     1     -11.574  14.764  67.549  1.00  0.00    -0.361 C  
ENDBRANCH  11  12
ENDBRANCH  10  11
ENDBRANCH   6  10
ENDBRANCH   2   3
TORSDOF 5
ENDMDL
MODEL       89
REMARK 921   NORMALIZED FREE ENERGY PREDICTED BY IDOCK:   -2.93 KCAL/MOL
REMARK 922        TOTAL FREE ENERGY PREDICTED BY IDOCK:   -4.03 KCAL/MOL
REMARK 923 INTER-LIGAND FREE ENERGY PREDICTED BY IDOCK:   -3.66 KCAL/MOL
REMARK 924 INTRA-LIGAND FREE ENERGY PREDICTED BY IDOCK:   -0.38 KCAL/MOL
REMARK 927      BINDING AFFINITY PREDICTED BY RF-SCORE:    0.00 PKD
ROOT
HETATM    1  C   UNL     1     -12.013  14.925  64.563  1.00  0.00    -0.420 C  
HETATM    2  C   UNL     1     -12.131  13.422  64.428  1.00  0.00    -0.416 C  
ENDROOT
BRANCH   2   3
HETATM    3  O   UNL     1     -12.296  12.892  65.732  1.00  0.00    -0.483 OA 
HETATM    4  P   UNL     1     -11.165  11.697  66.267  1.00  0.00    -0.115 P  
HETATM    5  O   UNL     1     -11.852  11.843  67.774  1.00  0.00    -0.518 OA 
HETATM    6  S   UNL     1      -9.780  10.232  66.922  1.00  0.00    -0.193 SA 
HETATM    7  O   UNL     1      -9.976  12.660  66.196  1.00  0.00    -0.252 OA 
BRANCH   5   8
HETATM    8  C   UNL     1     -11.499  12.978  68.562  1.00  0.00    -0.304 C  
HETATM    9  C   UNL     1     -12.041  12.793  69.970  1.00  0.00    -0.355 C  
ENDBRANCH   5   8
BRANCH   6  10
HETATM   10  C   UNL     1      -9.498  10.422  68.690  1.00  0.00    -0.167 C  
BRANCH  10  11
HETATM   11  C   UNL     1      -8.219  11.216  68.972  1.00  0.00    -0.062 C  
BRANCH  11  12
HETATM   12  N   UNL     1      -7.090  10.353  69.607  1.00  0.00    -0.118 N  
HETATM   13  C   UNL     1      -7.657   9.273  70.529  1.00  0.00    -0.139 C  
HETATM   14  C   UNL     1      -6.210  11.284  70.445  1.00  0.00    -0.066 C  
HETATM   15  C   UNL     1      -6.217   9.704  68.537  1.00  0.00    -0.047 C  
ENDBRANCH  11  12
ENDBRANCH  10  11
ENDBRANCH   6  10
ENDBRANCH   2   3
TORSDOF 5
ENDMDL
MODEL       90
REMARK 921   NORMALIZED FREE ENERGY PREDICTED BY IDOCK:   -2.93 KCAL/MOL
REMARK 922        TOTAL FREE ENERGY PREDICTED BY IDOCK:   -4.03 KCAL/MOL
REMARK 923 INTER-LIGAND FREE ENERGY PREDICTED BY IDOCK:   -3.77 KCAL/MOL
REMARK 924 INTRA-LIGAND FREE ENERGY PREDICTED BY IDOCK:   -0.26 KCAL/MOL
REMARK 927      BINDING AFFINITY PREDICTED BY RF-SCORE:    0.00 PKD
ROOT
HETATM    1  C   UNL     1      -9.953  14.682  68.017  1.00  0.00    -0.220 C  
HETATM    2  C   UNL     1     -10.707  14.267  66.771  1.00  0.00    -0.287 C  
ENDROOT
BRANCH   2   3
HETATM    3  O   UNL     1     -10.043  13.137  66.232  1.00  0.00    -0.272 OA 
HETATM    4  P   UNL     1     -10.220  11.626  67.056  1.00  0.00    -0.223 P  
HETATM    5  O   UNL     1      -9.458  10.923  65.755  1.00  0.00    -0.193 OA 
HETATM    6  S   UNL     1     -10.437   9.774  68.065  1.00  0.00    -0.239 SA 
HETATM    7  O   UNL     1     -11.730  11.564  66.806  1.00  0.00    -0.510 OA 
BRANCH   5   8
HETATM    8  C   UNL     1     -10.218  10.719  64.566  1.00  0.00    -0.359 C  
HETATM    9  C   UNL     1      -9.315  10.132  63.494  1.00  0.00    -0.333 C  
ENDBRANCH   5   8
BRANCH   6  10
HETATM   10  C   UNL     1     -10.443   8.433  66.863  1.00  0.00    -0.289 C  
BRANCH  10  11
HETATM   11  C   UNL     1     -10.744   7.087  67.527  1.00  0.00    -0.281 C  
BRANCH  11  12
HETATM   12  N   UNL     1      -9.861   5.926  66.985  1.00  0.00    -0.138 N  
HETATM   13  C   UNL     1      -8.818   6.429  65.987  1.00  0.00    -0.150 C  
HETATM   14  C   UNL     1     -10.782   4.943  66.258  1.00  0.00    -0.158 C  
HETATM   15  C   UNL     1      -9.165   5.180  68.119  1.00  0.00    -0.116 C  
ENDBRANCH  11  12
ENDBRANCH  10  11
ENDBRANCH   6  10
ENDBRANCH   2   3
TORSDOF 5
ENDMDL
MODEL       91
REMARK 921   NORMALIZED FREE ENERGY PREDICTED BY IDOCK:   -2.93 KCAL/MOL
REMARK 922        TOTAL FREE ENERGY PREDICTED BY IDOCK:   -4.03 KCAL/MOL
REMARK 923 INTER-LIGAND FREE ENERGY PREDICTED BY IDOCK:   -3.54 KCAL/MOL
REMARK 924 INTRA-LIGAND FREE ENERGY PREDICTED BY IDOCK:   -0.49 KCAL/MOL
REMARK 927      BINDING AFFINITY PREDICTED BY RF-SCORE:    0.00 PKD
ROOT
HETATM    1  C   UNL     1      -7.494  12.396  68.310  1.00  0.00    -0.124 C  
HETATM    2  C   UNL     1      -7.908  11.176  67.516  1.00  0.00    -0.117 C  
ENDROOT
BRANCH   2   3
HETATM    3  O   UNL     1      -9.209  10.813  67.946  1.00  0.00    -0.146 OA 
HETATM    4  P   UNL     1      -9.576   9.128  68.079  1.00  0.00    -0.154 P  
HETATM    5  O   UNL     1     -10.999   9.581  68.811  1.00  0.00    -0.181 OA 
HETATM    6  S   UNL     1     -10.026   7.062  68.242  1.00  0.00    -0.158 SA 
HETATM    7  O   UNL     1      -8.535   8.896  69.179  1.00  0.00    -0.127 OA 
BRANCH   5   8
HETATM    8  C   UNL     1     -10.947   9.996  70.174  1.00  0.00    -0.310 C  
HETATM    9  C   UNL     1     -12.345  10.378  70.631  1.00  0.00    -0.438 C  
ENDBRANCH   5   8
BRANCH   6  10
HETATM   10  C   UNL     1     -11.159   6.803  69.618  1.00  0.00    -0.292 C  
BRANCH  10  11
HETATM   11  C   UNL     1     -10.421   6.312  70.866  1.00  0.00    -0.223 C  
BRANCH  11  12
HETATM   12  N   UNL     1     -11.235   6.511  72.177  1.00  0.00    -0.258 N  
HETATM   13  C   UNL     1     -11.246   5.243  73.032  1.00  0.00    -0.324 C  
HETATM   14  C   UNL     1     -12.678   6.835  71.783  1.00  0.00    -0.296 C  
HETATM   15  C   UNL     1     -10.690   7.675  72.999  1.00  0.00    -0.391 C  
ENDBRANCH  11  12
ENDBRANCH  10  11
ENDBRANCH   6  10
ENDBRANCH   2   3
TORSDOF 5
ENDMDL
MODEL       92
REMARK 921   NORMALIZED FREE ENERGY PREDICTED BY IDOCK:   -2.92 KCAL/MOL
REMARK 922        TOTAL FREE ENERGY PREDICTED BY IDOCK:   -4.02 KCAL/MOL
REMARK 923 INTER-LIGAND FREE ENERGY PREDICTED BY IDOCK:   -3.76 KCAL/MOL
REMARK 924 INTRA-LIGAND FREE ENERGY PREDICTED BY IDOCK:   -0.26 KCAL/MOL
REMARK 927      BINDING AFFINITY PREDICTED BY RF-SCORE:    0.00 PKD
ROOT
HETATM    1  C   UNL     1      -6.718   5.672  68.450  1.00  0.00    -0.057 C  
HETATM    2  C   UNL     1      -7.123   6.928  69.193  1.00  0.00    -0.084 C  
ENDROOT
BRANCH   2   3
HETATM    3  O   UNL     1      -8.504   7.135  68.951  1.00  0.00    -0.125 OA 
HETATM    4  P   UNL     1      -9.070   8.767  68.849  1.00  0.00    -0.140 P  
HETATM    5  O   UNL     1     -10.524   8.141  68.338  1.00  0.00    -0.207 OA 
HETATM    6  S   UNL     1      -9.764  10.766  68.723  1.00  0.00    -0.193 SA 
HETATM    7  O   UNL     1      -8.229   9.076  67.607  1.00  0.00    -0.108 OA 
BRANCH   5   8
HETATM    8  C   UNL     1     -10.622   7.694  66.988  1.00  0.00    -0.336 C  
HETATM    9  C   UNL     1     -11.023   6.228  66.978  1.00  0.00    -0.442 C  
ENDBRANCH   5   8
BRANCH   6  10
HETATM   10  C   UNL     1     -11.103  10.861  67.523  1.00  0.00    -0.310 C  
BRANCH  10  11
HETATM   11  C   UNL     1     -11.625  12.293  67.379  1.00  0.00    -0.355 C  
BRANCH  11  12
HETATM   12  N   UNL     1     -11.263  12.943  66.012  1.00  0.00    -0.285 N  
HETATM   13  C   UNL     1     -10.022  13.828  66.120  1.00  0.00    -0.308 C  
HETATM   14  C   UNL     1     -12.443  13.823  65.590  1.00  0.00    -0.503 C  
HETATM   15  C   UNL     1     -11.045  11.886  64.934  1.00  0.00    -0.307 C  
ENDBRANCH  11  12
ENDBRANCH  10  11
ENDBRANCH   6  10
ENDBRANCH   2   3
TORSDOF 5
ENDMDL
MODEL       93
REMARK 921   NORMALIZED FREE ENERGY PREDICTED BY IDOCK:   -2.91 KCAL/MOL
REMARK 922        TOTAL FREE ENERGY PREDICTED BY IDOCK:   -4.00 KCAL/MOL
REMARK 923 INTER-LIGAND FREE ENERGY PREDICTED BY IDOCK:   -3.73 KCAL/MOL
REMARK 924 INTRA-LIGAND FREE ENERGY PREDICTED BY IDOCK:   -0.28 KCAL/MOL
REMARK 927      BINDING AFFINITY PREDICTED BY RF-SCORE:    0.00 PKD
ROOT
HETATM    1  C   UNL     1     -12.268  14.334  69.876  1.00  0.00    -0.407 C  
HETATM    2  C   UNL     1     -10.849  14.464  69.368  1.00  0.00    -0.201 C  
ENDROOT
BRANCH   2   3
HETATM    3  O   UNL     1     -10.871  14.190  67.977  1.00  0.00    -0.240 OA 
HETATM    4  P   UNL     1      -9.927  12.860  67.401  1.00  0.00    -0.224 P  
HETATM    5  O   UNL     1     -10.673  13.077  65.930  1.00  0.00    -0.271 OA 
HETATM    6  S   UNL     1      -8.770  11.230  66.694  1.00  0.00    -0.178 SA 
HETATM    7  O   UNL     1     -10.736  11.827  68.191  1.00  0.00    -0.197 OA 
BRANCH   5   8
HETATM    8  C   UNL     1     -12.008  12.598  65.781  1.00  0.00    -0.446 C  
HETATM    9  C   UNL     1     -12.818  13.618  64.998  1.00  0.00    -0.325 C  
ENDBRANCH   5   8
BRANCH   6  10
HETATM   10  C   UNL     1      -9.616  10.451  65.308  1.00  0.00    -0.259 C  
BRANCH  10  11
HETATM   11  C   UNL     1      -8.747   9.371  64.657  1.00  0.00    -0.200 C  
BRANCH  11  12
HETATM   12  N   UNL     1      -8.273   9.748  63.224  1.00  0.00    -0.143 N  
HETATM   13  C   UNL     1      -9.102  10.891  62.637  1.00  0.00    -0.336 C  
HETATM   14  C   UNL     1      -8.460   8.516  62.334  1.00  0.00    -0.174 C  
HETATM   15  C   UNL     1      -6.796  10.129  63.209  1.00  0.00    -0.128 C  
ENDBRANCH  11  12
ENDBRANCH  10  11
ENDBRANCH   6  10
ENDBRANCH   2   3
TORSDOF 5
ENDMDL
MODEL       94
REMARK 921   NORMALIZED FREE ENERGY PREDICTED BY IDOCK:   -2.89 KCAL/MOL
REMARK 922        TOTAL FREE ENERGY PREDICTED BY IDOCK:   -3.99 KCAL/MOL
REMARK 923 INTER-LIGAND FREE ENERGY PREDICTED BY IDOCK:   -3.73 KCAL/MOL
REMARK 924 INTRA-LIGAND FREE ENERGY PREDICTED BY IDOCK:   -0.25 KCAL/MOL
REMARK 927      BINDING AFFINITY PREDICTED BY RF-SCORE:    0.00 PKD
ROOT
HETATM    1  C   UNL     1      -7.141   9.769  64.525  1.00  0.00    -0.128 C  
HETATM    2  C   UNL     1      -8.515   9.168  64.319  1.00  0.00    -0.187 C  
ENDROOT
BRANCH   2   3
HETATM    3  O   UNL     1      -8.718   8.214  65.347  1.00  0.00    -0.160 OA 
HETATM    4  P   UNL     1      -9.030   8.801  66.944  1.00  0.00    -0.143 P  
HETATM    5  O   UNL     1      -9.375   7.229  67.364  1.00  0.00    -0.125 OA 
HETATM    6  S   UNL     1      -9.411   9.520  68.902  1.00  0.00    -0.160 SA 
HETATM    7  O   UNL     1     -10.342   9.478  66.537  1.00  0.00    -0.242 OA 
BRANCH   5   8
HETATM    8  C   UNL     1     -10.640   6.696  66.977  1.00  0.00    -0.333 C  
HETATM    9  C   UNL     1     -10.446   5.280  66.462  1.00  0.00    -0.354 C  
ENDBRANCH   5   8
BRANCH   6  10
HETATM   10  C   UNL     1     -10.548   8.402  69.740  1.00  0.00    -0.221 C  
BRANCH  10  11
HETATM   11  C   UNL     1     -11.451   9.154  70.720  1.00  0.00    -0.282 C  
BRANCH  11  12
HETATM   12  N   UNL     1     -12.163   8.218  71.739  1.00  0.00    -0.308 N  
HETATM   13  C   UNL     1     -13.457   8.838  72.267  1.00  0.00    -0.420 C  
HETATM   14  C   UNL     1     -11.214   8.013  72.923  1.00  0.00    -0.322 C  
HETATM   15  C   UNL     1     -12.463   6.854  71.125  1.00  0.00    -0.349 C  
ENDBRANCH  11  12
ENDBRANCH  10  11
ENDBRANCH   6  10
ENDBRANCH   2   3
TORSDOF 5
ENDMDL
MODEL       95
REMARK 921   NORMALIZED FREE ENERGY PREDICTED BY IDOCK:   -2.87 KCAL/MOL
REMARK 922        TOTAL FREE ENERGY PREDICTED BY IDOCK:   -3.96 KCAL/MOL
REMARK 923 INTER-LIGAND FREE ENERGY PREDICTED BY IDOCK:   -3.57 KCAL/MOL
REMARK 924 INTRA-LIGAND FREE ENERGY PREDICTED BY IDOCK:   -0.39 KCAL/MOL
REMARK 927      BINDING AFFINITY PREDICTED BY RF-SCORE:    0.00 PKD
ROOT
HETATM    1  C   UNL     1      -6.137  19.158  69.300  1.00  0.00    -0.286 C  
HETATM    2  C   UNL     1      -5.563  17.882  68.722  1.00  0.00    -0.179 C  
ENDROOT
BRANCH   2   3
HETATM    3  O   UNL     1      -6.538  17.338  67.848  1.00  0.00    -0.148 OA 
HETATM    4  P   UNL     1      -6.965  15.674  68.050  1.00  0.00    -0.157 P  
HETATM    5  O   UNL     1      -8.190  15.943  66.959  1.00  0.00    -0.179 OA 
HETATM    6  S   UNL     1      -7.487  13.634  68.297  1.00  0.00    -0.138 SA 
HETATM    7  O   UNL     1      -7.530  15.896  69.457  1.00  0.00    -0.221 OA 
BRANCH   5   8
HETATM    8  C   UNL     1      -9.358  16.620  67.418  1.00  0.00    -0.222 C  
HETATM    9  C   UNL     1      -9.696  17.741  66.450  1.00  0.00    -0.315 C  
ENDBRANCH   5   8
BRANCH   6  10
HETATM   10  C   UNL     1      -9.232  13.412  67.911  1.00  0.00    -0.216 C  
BRANCH  10  11
HETATM   11  C   UNL     1      -9.425  12.494  66.700  1.00  0.00    -0.242 C  
BRANCH  11  12
HETATM   12  N   UNL     1     -10.737  12.784  65.915  1.00  0.00    -0.267 N  
HETATM   13  C   UNL     1     -11.949  12.842  66.844  1.00  0.00    -0.335 C  
HETATM   14  C   UNL     1     -10.948  11.635  64.925  1.00  0.00    -0.284 C  
HETATM   15  C   UNL     1     -10.636  14.084  65.124  1.00  0.00    -0.386 C  
ENDBRANCH  11  12
ENDBRANCH  10  11
ENDBRANCH   6  10
ENDBRANCH   2   3
TORSDOF 5
ENDMDL
MODEL       96
REMARK 921   NORMALIZED FREE ENERGY PREDICTED BY IDOCK:   -2.87 KCAL/MOL
REMARK 922        TOTAL FREE ENERGY PREDICTED BY IDOCK:   -3.96 KCAL/MOL
REMARK 923 INTER-LIGAND FREE ENERGY PREDICTED BY IDOCK:   -3.69 KCAL/MOL
REMARK 924 INTRA-LIGAND FREE ENERGY PREDICTED BY IDOCK:   -0.27 KCAL/MOL
REMARK 927      BINDING AFFINITY PREDICTED BY RF-SCORE:    0.00 PKD
ROOT
HETATM    1  C   UNL     1      -9.455   5.577  71.914  1.00  0.00    -0.171 C  
HETATM    2  C   UNL     1      -8.961   6.946  71.499  1.00  0.00    -0.140 C  
ENDROOT
BRANCH   2   3
HETATM    3  O   UNL     1      -9.639   7.297  70.305  1.00  0.00    -0.166 OA 
HETATM    4  P   UNL     1     -10.652   8.700  70.333  1.00  0.00    -0.232 P  
HETATM    5  O   UNL     1     -10.784   8.533  68.684  1.00  0.00    -0.159 OA 
HETATM    6  S   UNL     1     -11.893  10.418  70.367  1.00  0.00    -0.349 SA 
HETATM    7  O   UNL     1      -9.483   9.649  70.617  1.00  0.00    -0.244 OA 
BRANCH   5   8
HETATM    8  C   UNL     1      -9.688   8.959  67.878  1.00  0.00    -0.160 C  
HETATM    9  C   UNL     1     -10.052   8.789  66.413  1.00  0.00    -0.313 C  
ENDBRANCH   5   8
BRANCH   6  10
HETATM   10  C   UNL     1     -11.830  11.235  68.764  1.00  0.00    -0.329 C  
BRANCH  10  11
HETATM   11  C   UNL     1     -10.934  12.475  68.802  1.00  0.00    -0.253 C  
BRANCH  11  12
HETATM   12  N   UNL     1     -10.719  13.119  67.401  1.00  0.00    -0.251 N  
HETATM   13  C   UNL     1      -9.318  13.716  67.265  1.00  0.00    -0.233 C  
HETATM   14  C   UNL     1     -11.738  14.251  67.249  1.00  0.00    -0.395 C  
HETATM   15  C   UNL     1     -10.955  12.109  66.283  1.00  0.00    -0.295 C  
ENDBRANCH  11  12
ENDBRANCH  10  11
ENDBRANCH   6  10
ENDBRANCH   2   3
TORSDOF 5
ENDMDL
MODEL       97
REMARK 921   NORMALIZED FREE ENERGY PREDICTED BY IDOCK:   -2.87 KCAL/MOL
REMARK 922        TOTAL FREE ENERGY PREDICTED BY IDOCK:   -3.95 KCAL/MOL
REMARK 923 INTER-LIGAND FREE ENERGY PREDICTED BY IDOCK:   -3.57 KCAL/MOL
REMARK 924 INTRA-LIGAND FREE ENERGY PREDICTED BY IDOCK:   -0.39 KCAL/MOL
REMARK 927      BINDING AFFINITY PREDICTED BY RF-SCORE:    0.00 PKD
ROOT
HETATM    1  C   UNL     1     -13.818   9.065  72.218  1.00  0.00    -0.547 C  
HETATM    2  C   UNL     1     -12.354   8.693  72.311  1.00  0.00    -0.382 C  
ENDROOT
BRANCH   2   3
HETATM    3  O   UNL     1     -11.637   9.586  71.475  1.00  0.00    -0.357 OA 
HETATM    4  P   UNL     1     -10.178   9.012  70.744  1.00  0.00    -0.293 P  
HETATM    5  O   UNL     1     -10.174  10.414  69.849  1.00  0.00    -0.230 OA 
HETATM    6  S   UNL     1      -8.390   8.309  69.848  1.00  0.00    -0.127 SA 
HETATM    7  O   UNL     1     -10.903   7.936  69.929  1.00  0.00    -0.247 OA 
BRANCH   5   8
HETATM    8  C   UNL     1     -11.064  10.501  68.739  1.00  0.00    -0.265 C  
HETATM    9  C   UNL     1     -11.604  11.918  68.644  1.00  0.00    -0.366 C  
ENDBRANCH   5   8
BRANCH   6  10
HETATM   10  C   UNL     1      -8.204   9.053  68.218  1.00  0.00    -0.116 C  
BRANCH  10  11
HETATM   11  C   UNL     1      -6.945   9.921  68.140  1.00  0.00    -0.076 C  
BRANCH  11  12
HETATM   12  N   UNL     1      -7.012  10.996  67.016  1.00  0.00    -0.109 N  
HETATM   13  C   UNL     1      -7.405  10.383  65.672  1.00  0.00    -0.148 C  
HETATM   14  C   UNL     1      -5.615  11.605  66.873  1.00  0.00    -0.136 C  
HETATM   15  C   UNL     1      -7.987  12.114  67.372  1.00  0.00    -0.168 C  
ENDBRANCH  11  12
ENDBRANCH  10  11
ENDBRANCH   6  10
ENDBRANCH   2   3
TORSDOF 5
ENDMDL
MODEL       98
REMARK 921   NORMALIZED FREE ENERGY PREDICTED BY IDOCK:   -2.85 KCAL/MOL
REMARK 922        TOTAL FREE ENERGY PREDICTED BY IDOCK:   -3.92 KCAL/MOL
REMARK 923 INTER-LIGAND FREE ENERGY PREDICTED BY IDOCK:   -3.61 KCAL/MOL
REMARK 924 INTRA-LIGAND FREE ENERGY PREDICTED BY IDOCK:   -0.32 KCAL/MOL
REMARK 927      BINDING AFFINITY PREDICTED BY RF-SCORE:    0.00 PKD
ROOT
HETATM    1  C   UNL     1     -10.169  19.369  66.688  1.00  0.00    -0.533 C  
HETATM    2  C   UNL     1     -10.328  18.955  68.136  1.00  0.00    -0.366 C  
ENDROOT
BRANCH   2   3
HETATM    3  O   UNL     1     -10.824  17.627  68.143  1.00  0.00    -0.349 OA 
HETATM    4  P   UNL     1      -9.727  16.353  67.733  1.00  0.00    -0.241 P  
HETATM    5  O   UNL     1     -10.914  15.291  68.214  1.00  0.00    -0.255 OA 
HETATM    6  S   UNL     1      -8.384  14.791  67.232  1.00  0.00    -0.219 SA 
HETATM    7  O   UNL     1      -8.821  16.622  68.939  1.00  0.00    -0.250 OA 
BRANCH   5   8
HETATM    8  C   UNL     1     -11.109  15.095  69.612  1.00  0.00    -0.270 C  
HETATM    9  C   UNL     1     -12.295  14.169  69.824  1.00  0.00    -0.350 C  
ENDBRANCH   5   8
BRANCH   6  10
HETATM   10  C   UNL     1      -8.788  13.322  68.190  1.00  0.00    -0.187 C  
BRANCH  10  11
HETATM   11  C   UNL     1      -8.449  12.041  67.423  1.00  0.00    -0.170 C  
BRANCH  11  12
HETATM   12  N   UNL     1      -7.121  11.380  67.891  1.00  0.00    -0.072 N  
HETATM   13  C   UNL     1      -5.972  11.677  66.927  1.00  0.00    -0.145 C  
HETATM   14  C   UNL     1      -7.341   9.865  67.920  1.00  0.00    -0.088 C  
HETATM   15  C   UNL     1      -6.738  11.834  69.296  1.00  0.00    -0.110 C  
ENDBRANCH  11  12
ENDBRANCH  10  11
ENDBRANCH   6  10
ENDBRANCH   2   3
TORSDOF 5
ENDMDL
MODEL       99
REMARK 921   NORMALIZED FREE ENERGY PREDICTED BY IDOCK:   -2.84 KCAL/MOL
REMARK 922        TOTAL FREE ENERGY PREDICTED BY IDOCK:   -3.92 KCAL/MOL
REMARK 923 INTER-LIGAND FREE ENERGY PREDICTED BY IDOCK:   -3.66 KCAL/MOL
REMARK 924 INTRA-LIGAND FREE ENERGY PREDICTED BY IDOCK:   -0.26 KCAL/MOL
REMARK 927      BINDING AFFINITY PREDICTED BY RF-SCORE:    0.00 PKD
ROOT
HETATM    1  C   UNL     1     -12.647  12.115  63.811  1.00  0.00    -0.585 C  
HETATM    2  C   UNL     1     -11.217  11.958  64.283  1.00  0.00    -0.357 C  
ENDROOT
BRANCH   2   3
HETATM    3  O   UNL     1     -11.214  12.135  65.689  1.00  0.00    -0.312 OA 
HETATM    4  P   UNL     1      -9.753  12.692  66.430  1.00  0.00    -0.240 P  
HETATM    5  O   UNL     1     -10.628  12.858  67.834  1.00  0.00    -0.214 OA 
HETATM    6  S   UNL     1      -7.963  13.374  67.338  1.00  0.00    -0.133 SA 
HETATM    7  O   UNL     1      -9.785  14.035  65.694  1.00  0.00    -0.251 OA 
BRANCH   5   8
HETATM    8  C   UNL     1     -11.488  13.989  67.956  1.00  0.00    -0.311 C  
HETATM    9  C   UNL     1     -12.140  13.972  69.329  1.00  0.00    -0.380 C  
ENDBRANCH   5   8
BRANCH   6  10
HETATM   10  C   UNL     1      -8.367  14.427  68.742  1.00  0.00    -0.126 C  
BRANCH  10  11
HETATM   11  C   UNL     1      -7.949  15.878  68.492  1.00  0.00    -0.152 C  
BRANCH  11  12
HETATM   12  N   UNL     1      -6.481  16.175  68.917  1.00  0.00    -0.126 N  
HETATM   13  C   UNL     1      -5.529  16.133  67.721  1.00  0.00    -0.137 C  
HETATM   14  C   UNL     1      -6.055  15.087  69.906  1.00  0.00    -0.143 C  
HETATM   15  C   UNL     1      -6.366  17.527  69.614  1.00  0.00    -0.191 C  
ENDBRANCH  11  12
ENDBRANCH  10  11
ENDBRANCH   6  10
ENDBRANCH   2   3
TORSDOF 5
ENDMDL
MODEL      100
REMARK 921   NORMALIZED FREE ENERGY PREDICTED BY IDOCK:   -2.83 KCAL/MOL
REMARK 922        TOTAL FREE ENERGY PREDICTED BY IDOCK:   -3.91 KCAL/MOL
REMARK 923 INTER-LIGAND FREE ENERGY PREDICTED BY IDOCK:   -3.55 KCAL/MOL
REMARK 924 INTRA-LIGAND FREE ENERGY PREDICTED BY IDOCK:   -0.35 KCAL/MOL
REMARK 927      BINDING AFFINITY PREDICTED BY RF-SCORE:    0.00 PKD
ROOT
HETATM    1  C   UNL     1     -12.146  14.356  64.575  1.00  0.00    -0.498 C  
HETATM    2  C   UNL     1     -10.643  14.466  64.722  1.00  0.00    -0.393 C  
ENDROOT
BRANCH   2   3
HETATM    3  O   UNL     1     -10.336  14.273  66.092  1.00  0.00    -0.282 OA 
HETATM    4  P   UNL     1     -10.761  12.758  66.810  1.00  0.00    -0.269 P  
HETATM    5  O   UNL     1      -9.898  13.244  68.145  1.00  0.00    -0.220 OA 
HETATM    6  S   UNL     1     -11.282  10.901  67.690  1.00  0.00    -0.269 SA 
HETATM    7  O   UNL     1      -9.817  11.961  65.904  1.00  0.00    -0.227 OA 
BRANCH   5   8
HETATM    8  C   UNL     1      -8.475  13.171  68.085  1.00  0.00    -0.173 C  
HETATM    9  C   UNL     1      -7.886  14.425  68.709  1.00  0.00    -0.138 C  
ENDBRANCH   5   8
BRANCH   6  10
HETATM   10  C   UNL     1     -10.052  10.458  68.928  1.00  0.00    -0.201 C  
BRANCH  10  11
HETATM   11  C   UNL     1      -9.287   9.193  68.530  1.00  0.00    -0.135 C  
BRANCH  11  12
HETATM   12  N   UNL     1      -9.786   7.918  69.269  1.00  0.00    -0.174 N  
HETATM   13  C   UNL     1     -10.603   7.014  68.345  1.00  0.00    -0.202 C  
HETATM   14  C   UNL     1     -10.692   8.371  70.418  1.00  0.00    -0.231 C  
HETATM   15  C   UNL     1      -8.624   7.126  69.860  1.00  0.00    -0.141 C  
ENDBRANCH  11  12
ENDBRANCH  10  11
ENDBRANCH   6  10
ENDBRANCH   2   3
TORSDOF 5
ENDMDL
MODEL      101
REMARK 921   NORMALIZED FREE ENERGY PREDICTED BY IDOCK:   -2.83 KCAL/MOL
REMARK 922        TOTAL FREE ENERGY PREDICTED BY IDOCK:   -3.91 KCAL/MOL
REMARK 923 INTER-LIGAND FREE ENERGY PREDICTED BY IDOCK:   -3.64 KCAL/MOL
REMARK 924 INTRA-LIGAND FREE ENERGY PREDICTED BY IDOCK:   -0.27 KCAL/MOL
REMARK 927      BINDING AFFINITY PREDICTED BY RF-SCORE:    0.00 PKD
ROOT
HETATM    1  C   UNL     1      -8.871   5.997  65.879  1.00  0.00    -0.155 C  
HETATM    2  C   UNL     1      -9.018   6.389  67.333  1.00  0.00    -0.109 C  
ENDROOT
BRANCH   2   3
HETATM    3  O   UNL     1      -8.540   7.718  67.463  1.00  0.00    -0.122 OA 
HETATM    4  P   UNL     1      -9.305   8.948  66.518  1.00  0.00    -0.234 P  
HETATM    5  O   UNL     1      -8.425  10.052  67.396  1.00  0.00    -0.121 OA 
HETATM    6  S   UNL     1     -10.243  10.456  65.359  1.00  0.00    -0.209 SA 
HETATM    7  O   UNL     1     -10.659   8.766  67.212  1.00  0.00    -0.286 OA 
BRANCH   5   8
HETATM    8  C   UNL     1      -8.865  10.358  68.718  1.00  0.00    -0.157 C  
HETATM    9  C   UNL     1      -7.676  10.301  69.663  1.00  0.00    -0.166 C  
ENDBRANCH   5   8
BRANCH   6  10
HETATM   10  C   UNL     1     -10.264  11.998  66.288  1.00  0.00    -0.222 C  
BRANCH  10  11
HETATM   11  C   UNL     1     -10.271  13.213  65.356  1.00  0.00    -0.290 C  
BRANCH  11  12
HETATM   12  N   UNL     1     -11.363  14.259  65.722  1.00  0.00    -0.320 N  
HETATM   13  C   UNL     1     -12.766  13.751  65.389  1.00  0.00    -0.472 C  
HETATM   14  C   UNL     1     -11.100  15.516  64.888  1.00  0.00    -0.416 C  
HETATM   15  C   UNL     1     -11.296  14.641  67.197  1.00  0.00    -0.356 C  
ENDBRANCH  11  12
ENDBRANCH  10  11
ENDBRANCH   6  10
ENDBRANCH   2   3
TORSDOF 5
ENDMDL
MODEL      102
REMARK 921   NORMALIZED FREE ENERGY PREDICTED BY IDOCK:   -2.83 KCAL/MOL
REMARK 922        TOTAL FREE ENERGY PREDICTED BY IDOCK:   -3.90 KCAL/MOL
REMARK 923 INTER-LIGAND FREE ENERGY PREDICTED BY IDOCK:   -3.55 KCAL/MOL
REMARK 924 INTRA-LIGAND FREE ENERGY PREDICTED BY IDOCK:   -0.35 KCAL/MOL
REMARK 927      BINDING AFFINITY PREDICTED BY RF-SCORE:    0.00 PKD
ROOT
HETATM    1  C   UNL     1      -5.246  14.438  71.084  1.00  0.00    -0.142 C  
HETATM    2  C   UNL     1      -5.600  13.733  69.792  1.00  0.00    -0.101 C  
ENDROOT
BRANCH   2   3
HETATM    3  O   UNL     1      -6.782  14.334  69.292  1.00  0.00    -0.111 OA 
HETATM    4  P   UNL     1      -6.651  15.909  68.588  1.00  0.00    -0.130 P  
HETATM    5  O   UNL     1      -8.228  15.725  68.092  1.00  0.00    -0.139 OA 
HETATM    6  S   UNL     1      -6.492  17.838  67.724  1.00  0.00    -0.185 SA 
HETATM    7  O   UNL     1      -5.743  15.425  67.453  1.00  0.00    -0.327 OA 
BRANCH   5   8
HETATM    8  C   UNL     1      -8.481  14.898  66.958  1.00  0.00    -0.231 C  
HETATM    9  C   UNL     1      -9.700  14.035  67.235  1.00  0.00    -0.237 C  
ENDBRANCH   5   8
BRANCH   6  10
HETATM   10  C   UNL     1      -7.669  17.988  66.370  1.00  0.00    -0.269 C  
BRANCH  10  11
HETATM   11  C   UNL     1      -8.298  19.383  66.327  1.00  0.00    -0.336 C  
BRANCH  11  12
HETATM   12  N   UNL     1      -9.789  19.398  66.774  1.00  0.00    -0.336 N  
HETATM   13  C   UNL     1     -10.379  17.988  66.816  1.00  0.00    -0.367 C  
HETATM   14  C   UNL     1     -10.575  20.215  65.745  1.00  0.00    -0.239 C  
HETATM   15  C   UNL     1      -9.953  20.061  68.138  1.00  0.00    -0.403 C  
ENDBRANCH  11  12
ENDBRANCH  10  11
ENDBRANCH   6  10
ENDBRANCH   2   3
TORSDOF 5
ENDMDL
MODEL      103
REMARK 921   NORMALIZED FREE ENERGY PREDICTED BY IDOCK:   -2.83 KCAL/MOL
REMARK 922        TOTAL FREE ENERGY PREDICTED BY IDOCK:   -3.90 KCAL/MOL
REMARK 923 INTER-LIGAND FREE ENERGY PREDICTED BY IDOCK:   -3.53 KCAL/MOL
REMARK 924 INTRA-LIGAND FREE ENERGY PREDICTED BY IDOCK:   -0.37 KCAL/MOL
REMARK 927      BINDING AFFINITY PREDICTED BY RF-SCORE:    0.00 PKD
ROOT
HETATM    1  C   UNL     1      -8.544  10.426  64.296  1.00  0.00    -0.190 C  
HETATM    2  C   UNL     1      -8.839   9.096  64.957  1.00  0.00    -0.189 C  
ENDROOT
BRANCH   2   3
HETATM    3  O   UNL     1      -9.809   9.330  65.964  1.00  0.00    -0.277 OA 
HETATM    4  P   UNL     1     -10.238   8.009  66.995  1.00  0.00    -0.307 P  
HETATM    5  O   UNL     1     -11.087   9.108  67.909  1.00  0.00    -0.066 OA 
HETATM    6  S   UNL     1     -10.764   6.390  68.258  1.00  0.00    -0.307 SA 
HETATM    7  O   UNL     1      -8.829   7.894  67.585  1.00  0.00    -0.128 OA 
BRANCH   5   8
HETATM    8  C   UNL     1     -10.351   9.959  68.786  1.00  0.00    -0.203 C  
HETATM    9  C   UNL     1     -11.316  10.891  69.500  1.00  0.00    -0.351 C  
ENDBRANCH   5   8
BRANCH   6  10
HETATM   10  C   UNL     1     -11.126   7.011  69.909  1.00  0.00    -0.264 C  
BRANCH  10  11
HETATM   11  C   UNL     1      -9.918   6.868  70.839  1.00  0.00    -0.189 C  
BRANCH  11  12
HETATM   12  N   UNL     1     -10.216   7.307  72.302  1.00  0.00    -0.191 N  
HETATM   13  C   UNL     1     -11.397   8.275  72.371  1.00  0.00    -0.388 C  
HETATM   14  C   UNL     1      -8.974   8.029  72.832  1.00  0.00    -0.239 C  
HETATM   15  C   UNL     1     -10.488   6.104  73.199  1.00  0.00    -0.236 C  
ENDBRANCH  11  12
ENDBRANCH  10  11
ENDBRANCH   6  10
ENDBRANCH   2   3
TORSDOF 5
ENDMDL
MODEL      104
REMARK 921   NORMALIZED FREE ENERGY PREDICTED BY IDOCK:   -2.82 KCAL/MOL
REMARK 922        TOTAL FREE ENERGY PREDICTED BY IDOCK:   -3.89 KCAL/MOL
REMARK 923 INTER-LIGAND FREE ENERGY PREDICTED BY IDOCK:   -3.56 KCAL/MOL
REMARK 924 INTRA-LIGAND FREE ENERGY PREDICTED BY IDOCK:   -0.33 KCAL/MOL
REMARK 927      BINDING AFFINITY PREDICTED BY RF-SCORE:    0.00 PKD
ROOT
HETATM    1  C   UNL     1      -8.131   5.649  64.020  1.00  0.00    -0.123 C  
HETATM    2  C   UNL     1      -7.319   6.749  64.668  1.00  0.00    -0.089 C  
ENDROOT
BRANCH   2   3
HETATM    3  O   UNL     1      -8.045   7.201  65.798  1.00  0.00    -0.115 OA 
HETATM    4  P   UNL     1      -8.232   8.908  66.009  1.00  0.00    -0.128 P  
HETATM    5  O   UNL     1      -9.296   8.555  67.237  1.00  0.00    -0.143 OA 
HETATM    6  S   UNL     1      -8.462  11.000  66.266  1.00  0.00    -0.162 SA 
HETATM    7  O   UNL     1      -9.041   9.070  64.718  1.00  0.00    -0.165 OA 
BRANCH   5   8
HETATM    8  C   UNL     1     -10.613   8.140  66.882  1.00  0.00    -0.241 C  
HETATM    9  C   UNL     1     -10.866   6.751  67.445  1.00  0.00    -0.417 C  
ENDBRANCH   5   8
BRANCH   6  10
HETATM   10  C   UNL     1     -10.066  11.339  67.010  1.00  0.00    -0.206 C  
BRANCH  10  11
HETATM   11  C   UNL     1     -11.102  11.729  65.952  1.00  0.00    -0.302 C  
BRANCH  11  12
HETATM   12  N   UNL     1     -11.267  13.269  65.794  1.00  0.00    -0.292 N  
HETATM   13  C   UNL     1     -12.723  13.656  65.534  1.00  0.00    -0.466 C  
HETATM   14  C   UNL     1     -10.433  13.703  64.586  1.00  0.00    -0.423 C  
HETATM   15  C   UNL     1     -10.752  14.012  67.023  1.00  0.00    -0.284 C  
ENDBRANCH  11  12
ENDBRANCH  10  11
ENDBRANCH   6  10
ENDBRANCH   2   3
TORSDOF 5
ENDMDL
MODEL      105
REMARK 921   NORMALIZED FREE ENERGY PREDICTED BY IDOCK:   -2.80 KCAL/MOL
REMARK 922        TOTAL FREE ENERGY PREDICTED BY IDOCK:   -3.87 KCAL/MOL
REMARK 923 INTER-LIGAND FREE ENERGY PREDICTED BY IDOCK:   -3.53 KCAL/MOL
REMARK 924 INTRA-LIGAND FREE ENERGY PREDICTED BY IDOCK:   -0.34 KCAL/MOL
REMARK 927      BINDING AFFINITY PREDICTED BY RF-SCORE:    0.00 PKD
ROOT
HETATM    1  C   UNL     1     -14.411   8.661  71.938  1.00  0.00    -0.492 C  
HETATM    2  C   UNL     1     -13.133   9.452  72.124  1.00  0.00    -0.442 C  
ENDROOT
BRANCH   2   3
HETATM    3  O   UNL     1     -12.106   8.528  72.443  1.00  0.00    -0.377 OA 
HETATM    4  P   UNL     1     -11.598   7.427  71.208  1.00  0.00    -0.304 P  
HETATM    5  O   UNL     1     -10.358   6.991  72.226  1.00  0.00    -0.189 OA 
HETATM    6  S   UNL     1     -10.976   6.078  69.696  1.00  0.00    -0.393 SA 
HETATM    7  O   UNL     1     -11.086   8.546  70.295  1.00  0.00    -0.248 OA 
BRANCH   5   8
HETATM    8  C   UNL     1      -9.241   7.871  72.335  1.00  0.00    -0.181 C  
HETATM    9  C   UNL     1      -8.903   8.065  73.804  1.00  0.00    -0.313 C  
ENDBRANCH   5   8
BRANCH   6  10
HETATM   10  C   UNL     1      -9.212   5.760  69.866  1.00  0.00    -0.144 C  
BRANCH  10  11
HETATM   11  C   UNL     1      -8.584   5.356  68.529  1.00  0.00    -0.098 C  
BRANCH  11  12
HETATM   12  N   UNL     1      -7.585   6.414  67.977  1.00  0.00    -0.101 N  
HETATM   13  C   UNL     1      -7.172   7.416  69.055  1.00  0.00    -0.085 C  
HETATM   14  C   UNL     1      -8.292   7.181  66.857  1.00  0.00    -0.118 C  
HETATM   15  C   UNL     1      -6.341   5.752  67.392  1.00  0.00    -0.042 C  
ENDBRANCH  11  12
ENDBRANCH  10  11
ENDBRANCH   6  10
ENDBRANCH   2   3
TORSDOF 5
ENDMDL
MODEL      106
REMARK 921   NORMALIZED FREE ENERGY PREDICTED BY IDOCK:   -2.78 KCAL/MOL
REMARK 922        TOTAL FREE ENERGY PREDICTED BY IDOCK:   -3.84 KCAL/MOL
REMARK 923 INTER-LIGAND FREE ENERGY PREDICTED BY IDOCK:   -3.47 KCAL/MOL
REMARK 924 INTRA-LIGAND FREE ENERGY PREDICTED BY IDOCK:   -0.37 KCAL/MOL
REMARK 927      BINDING AFFINITY PREDICTED BY RF-SCORE:    0.00 PKD
ROOT
HETATM    1  C   UNL     1     -10.661  11.508  66.063  1.00  0.00    -0.332 C  
HETATM    2  C   UNL     1      -9.953  10.203  66.359  1.00  0.00    -0.234 C  
ENDROOT
BRANCH   2   3
HETATM    3  O   UNL     1      -9.345  10.332  67.633  1.00  0.00    -0.144 OA 
HETATM    4  P   UNL     1     -10.324  10.038  69.029  1.00  0.00    -0.235 P  
HETATM    5  O   UNL     1      -8.925  10.121  69.923  1.00  0.00    -0.185 OA 
HETATM    6  S   UNL     1     -11.524   9.678  70.739  1.00  0.00    -0.353 SA 
HETATM    7  O   UNL     1     -10.563   8.569  68.664  1.00  0.00    -0.198 OA 
BRANCH   5   8
HETATM    8  C   UNL     1      -8.055   8.991  69.911  1.00  0.00    -0.117 C  
HETATM    9  C   UNL     1      -6.615   9.473  69.847  1.00  0.00    -0.059 C  
ENDBRANCH   5   8
BRANCH   6  10
HETATM   10  C   UNL     1     -10.517   8.926  72.030  1.00  0.00    -0.313 C  
BRANCH  10  11
HETATM   11  C   UNL     1     -11.236   7.744  72.684  1.00  0.00    -0.381 C  
BRANCH  11  12
HETATM   12  N   UNL     1     -10.537   6.379  72.421  1.00  0.00    -0.207 N  
HETATM   13  C   UNL     1      -9.017   6.493  72.539  1.00  0.00    -0.135 C  
HETATM   14  C   UNL     1     -10.875   5.952  70.991  1.00  0.00    -0.273 C  
HETATM   15  C   UNL     1     -11.044   5.302  73.375  1.00  0.00    -0.303 C  
ENDBRANCH  11  12
ENDBRANCH  10  11
ENDBRANCH   6  10
ENDBRANCH   2   3
TORSDOF 5
ENDMDL
MODEL      107
REMARK 921   NORMALIZED FREE ENERGY PREDICTED BY IDOCK:   -2.75 KCAL/MOL
REMARK 922        TOTAL FREE ENERGY PREDICTED BY IDOCK:   -3.81 KCAL/MOL
REMARK 923 INTER-LIGAND FREE ENERGY PREDICTED BY IDOCK:   -3.54 KCAL/MOL
REMARK 924 INTRA-LIGAND FREE ENERGY PREDICTED BY IDOCK:   -0.27 KCAL/MOL
REMARK 927      BINDING AFFINITY PREDICTED BY RF-SCORE:    0.00 PKD
ROOT
HETATM    1  C   UNL     1      -9.561  11.569  68.327  1.00  0.00    -0.189 C  
HETATM    2  C   UNL     1     -10.789  10.789  68.745  1.00  0.00    -0.221 C  
ENDROOT
BRANCH   2   3
HETATM    3  O   UNL     1     -10.590  10.374  70.086  1.00  0.00    -0.273 OA 
HETATM    4  P   UNL     1     -11.390   8.933  70.612  1.00  0.00    -0.202 P  
HETATM    5  O   UNL     1     -10.488   9.042  72.005  1.00  0.00    -0.346 OA 
HETATM    6  S   UNL     1     -12.369   7.167  71.257  1.00  0.00    -0.379 SA 
HETATM    7  O   UNL     1     -10.627   8.041  69.627  1.00  0.00    -0.226 OA 
BRANCH   5   8
HETATM    8  C   UNL     1      -9.122   8.637  71.951  1.00  0.00    -0.256 C  
HETATM    9  C   UNL     1      -8.647   8.302  73.356  1.00  0.00    -0.277 C  
ENDBRANCH   5   8
BRANCH   6  10
HETATM   10  C   UNL     1     -11.328   6.304  72.446  1.00  0.00    -0.292 C  
BRANCH  10  11
HETATM   11  C   UNL     1     -10.424   5.278  71.757  1.00  0.00    -0.214 C  
BRANCH  11  12
HETATM   12  N   UNL     1      -9.812   4.241  72.743  1.00  0.00    -0.138 N  
HETATM   13  C   UNL     1     -10.562   4.218  74.075  1.00  0.00    -0.259 C  
HETATM   14  C   UNL     1      -8.364   4.657  73.016  1.00  0.00    -0.100 C  
HETATM   15  C   UNL     1      -9.801   2.839  72.140  1.00  0.00    -0.169 C  
ENDBRANCH  11  12
ENDBRANCH  10  11
ENDBRANCH   6  10
ENDBRANCH   2   3
TORSDOF 5
ENDMDL
MODEL      108
REMARK 921   NORMALIZED FREE ENERGY PREDICTED BY IDOCK:   -2.74 KCAL/MOL
REMARK 922        TOTAL FREE ENERGY PREDICTED BY IDOCK:   -3.79 KCAL/MOL
REMARK 923 INTER-LIGAND FREE ENERGY PREDICTED BY IDOCK:   -3.58 KCAL/MOL
REMARK 924 INTRA-LIGAND FREE ENERGY PREDICTED BY IDOCK:   -0.21 KCAL/MOL
REMARK 927      BINDING AFFINITY PREDICTED BY RF-SCORE:    0.00 PKD
ROOT
HETATM    1  C   UNL     1     -12.277  14.462  71.448  1.00  0.00    -0.424 C  
HETATM    2  C   UNL     1     -12.564  14.028  70.027  1.00  0.00    -0.194 C  
ENDROOT
BRANCH   2   3
HETATM    3  O   UNL     1     -11.326  13.986  69.339  1.00  0.00    -0.257 OA 
HETATM    4  P   UNL     1     -11.015  15.212  68.159  1.00  0.00    -0.312 P  
HETATM    5  O   UNL     1      -9.459  14.630  68.087  1.00  0.00    -0.200 OA 
HETATM    6  S   UNL     1     -10.634  16.715  66.714  1.00  0.00    -0.152 SA 
HETATM    7  O   UNL     1     -11.047  16.342  69.193  1.00  0.00    -0.312 OA 
BRANCH   5   8
HETATM    8  C   UNL     1      -8.564  14.980  69.141  1.00  0.00    -0.188 C  
HETATM    9  C   UNL     1      -7.205  14.359  68.866  1.00  0.00    -0.125 C  
ENDBRANCH   5   8
BRANCH   6  10
HETATM   10  C   UNL     1      -8.878  17.114  66.712  1.00  0.00    -0.246 C  
BRANCH  10  11
HETATM   11  C   UNL     1      -8.595  18.402  67.490  1.00  0.00    -0.257 C  
BRANCH  11  12
HETATM   12  N   UNL     1      -8.131  19.577  66.581  1.00  0.00    -0.289 N  
HETATM   13  C   UNL     1      -7.487  20.699  67.396  1.00  0.00    -0.337 C  
HETATM   14  C   UNL     1      -9.371  20.143  65.884  1.00  0.00    -0.119 C  
HETATM   15  C   UNL     1      -7.156  19.099  65.510  1.00  0.00    -0.162 C  
ENDBRANCH  11  12
ENDBRANCH  10  11
ENDBRANCH   6  10
ENDBRANCH   2   3
TORSDOF 5
ENDMDL
MODEL      109
REMARK 921   NORMALIZED FREE ENERGY PREDICTED BY IDOCK:   -2.73 KCAL/MOL
REMARK 922        TOTAL FREE ENERGY PREDICTED BY IDOCK:   -3.77 KCAL/MOL
REMARK 923 INTER-LIGAND FREE ENERGY PREDICTED BY IDOCK:   -3.41 KCAL/MOL
REMARK 924 INTRA-LIGAND FREE ENERGY PREDICTED BY IDOCK:   -0.37 KCAL/MOL
REMARK 927      BINDING AFFINITY PREDICTED BY RF-SCORE:    0.00 PKD
ROOT
HETATM    1  C   UNL     1      -9.929   9.918  65.690  1.00  0.00    -0.353 C  
HETATM    2  C   UNL     1      -9.358   8.830  66.574  1.00  0.00    -0.203 C  
ENDROOT
BRANCH   2   3
HETATM    3  O   UNL     1     -10.207   8.713  67.702  1.00  0.00    -0.208 OA 
HETATM    4  P   UNL     1     -10.226   7.203  68.546  1.00  0.00    -0.184 P  
HETATM    5  O   UNL     1     -11.139   7.961  69.711  1.00  0.00    -0.196 OA 
HETATM    6  S   UNL     1     -10.249   5.352  69.579  1.00  0.00    -0.275 SA 
HETATM    7  O   UNL     1      -8.754   7.311  68.957  1.00  0.00    -0.132 OA 
BRANCH   5   8
HETATM    8  C   UNL     1     -10.469   8.821  70.630  1.00  0.00    -0.210 C  
HETATM    9  C   UNL     1     -11.501   9.513  71.505  1.00  0.00    -0.466 C  
ENDBRANCH   5   8
BRANCH   6  10
HETATM   10  C   UNL     1     -10.496   5.650  71.338  1.00  0.00    -0.239 C  
BRANCH  10  11
HETATM   11  C   UNL     1      -9.186   5.512  72.118  1.00  0.00    -0.143 C  
BRANCH  11  12
HETATM   12  N   UNL     1      -9.353   5.763  73.645  1.00  0.00    -0.137 N  
HETATM   13  C   UNL     1      -8.172   5.205  74.440  1.00  0.00    -0.101 C  
HETATM   14  C   UNL     1     -10.622   5.037  74.099  1.00  0.00    -0.288 C  
HETATM   15  C   UNL     1      -9.517   7.249  73.950  1.00  0.00    -0.271 C  
ENDBRANCH  11  12
ENDBRANCH  10  11
ENDBRANCH   6  10
ENDBRANCH   2   3
TORSDOF 5
ENDMDL
MODEL      110
REMARK 921   NORMALIZED FREE ENERGY PREDICTED BY IDOCK:   -2.71 KCAL/MOL
REMARK 922        TOTAL FREE ENERGY PREDICTED BY IDOCK:   -3.75 KCAL/MOL
REMARK 923 INTER-LIGAND FREE ENERGY PREDICTED BY IDOCK:   -3.50 KCAL/MOL
REMARK 924 INTRA-LIGAND FREE ENERGY PREDICTED BY IDOCK:   -0.26 KCAL/MOL
REMARK 927      BINDING AFFINITY PREDICTED BY RF-SCORE:    0.00 PKD
ROOT
HETATM    1  C   UNL     1     -10.831  16.822  67.709  1.00  0.00    -0.285 C  
HETATM    2  C   UNL     1     -11.515  15.580  68.237  1.00  0.00    -0.353 C  
ENDROOT
BRANCH   2   3
HETATM    3  O   UNL     1     -10.512  14.601  68.449  1.00  0.00    -0.232 OA 
HETATM    4  P   UNL     1     -10.958  12.938  68.286  1.00  0.00    -0.287 P  
HETATM    5  O   UNL     1      -9.339  12.579  68.405  1.00  0.00    -0.202 OA 
HETATM    6  S   UNL     1     -11.505  10.899  68.086  1.00  0.00    -0.243 SA 
HETATM    7  O   UNL     1     -11.300  13.082  66.799  1.00  0.00    -0.297 OA 
BRANCH   5   8
HETATM    8  C   UNL     1      -8.520  12.794  67.257  1.00  0.00    -0.194 C  
HETATM    9  C   UNL     1      -7.211  13.429  67.693  1.00  0.00    -0.167 C  
ENDBRANCH   5   8
BRANCH   6  10
HETATM   10  C   UNL     1     -10.118   9.970  67.413  1.00  0.00    -0.208 C  
BRANCH  10  11
HETATM   11  C   UNL     1     -10.572   8.627  66.833  1.00  0.00    -0.200 C  
BRANCH  11  12
HETATM   12  N   UNL     1      -9.974   7.402  67.585  1.00  0.00    -0.156 N  
HETATM   13  C   UNL     1      -8.520   7.151  67.186  1.00  0.00    -0.121 C  
HETATM   14  C   UNL     1     -10.797   6.172  67.194  1.00  0.00    -0.360 C  
HETATM   15  C   UNL     1     -10.066   7.579  69.097  1.00  0.00    -0.192 C  
ENDBRANCH  11  12
ENDBRANCH  10  11
ENDBRANCH   6  10
ENDBRANCH   2   3
TORSDOF 5
ENDMDL
MODEL      111
REMARK 921   NORMALIZED FREE ENERGY PREDICTED BY IDOCK:   -2.70 KCAL/MOL
REMARK 922        TOTAL FREE ENERGY PREDICTED BY IDOCK:   -3.73 KCAL/MOL
REMARK 923 INTER-LIGAND FREE ENERGY PREDICTED BY IDOCK:   -3.44 KCAL/MOL
REMARK 924 INTRA-LIGAND FREE ENERGY PREDICTED BY IDOCK:   -0.29 KCAL/MOL
REMARK 927      BINDING AFFINITY PREDICTED BY RF-SCORE:    0.00 PKD
ROOT
HETATM    1  C   UNL     1     -11.924  11.261  69.406  1.00  0.00    -0.410 C  
HETATM    2  C   UNL     1     -12.583  10.726  70.658  1.00  0.00    -0.357 C  
ENDROOT
BRANCH   2   3
HETATM    3  O   UNL     1     -11.569  10.133  71.451  1.00  0.00    -0.348 OA 
HETATM    4  P   UNL     1     -11.661   8.430  71.741  1.00  0.00    -0.364 P  
HETATM    5  O   UNL     1     -10.142   8.547  72.409  1.00  0.00    -0.305 OA 
HETATM    6  S   UNL     1     -11.773   6.343  72.096  1.00  0.00    -0.303 SA 
HETATM    7  O   UNL     1     -11.496   8.078  70.259  1.00  0.00    -0.205 OA 
BRANCH   5   8
HETATM    8  C   UNL     1      -9.029   8.652  71.526  1.00  0.00    -0.234 C  
HETATM    9  C   UNL     1      -7.757   8.317  72.287  1.00  0.00    -0.168 C  
ENDBRANCH   5   8
BRANCH   6  10
HETATM   10  C   UNL     1     -10.110   5.659  72.178  1.00  0.00    -0.186 C  
BRANCH  10  11
HETATM   11  C   UNL     1     -10.019   4.316  71.448  1.00  0.00    -0.168 C  
BRANCH  11  12
HETATM   12  N   UNL     1      -9.053   4.346  70.228  1.00  0.00    -0.092 N  
HETATM   13  C   UNL     1      -8.974   2.985  69.538  1.00  0.00    -0.111 C  
HETATM   14  C   UNL     1      -7.658   4.700  70.750  1.00  0.00    -0.057 C  
HETATM   15  C   UNL     1      -9.468   5.409  69.215  1.00  0.00    -0.133 C  
ENDBRANCH  11  12
ENDBRANCH  10  11
ENDBRANCH   6  10
ENDBRANCH   2   3
TORSDOF 5
ENDMDL
MODEL      112
REMARK 921   NORMALIZED FREE ENERGY PREDICTED BY IDOCK:   -2.69 KCAL/MOL
REMARK 922        TOTAL FREE ENERGY PREDICTED BY IDOCK:   -3.72 KCAL/MOL
REMARK 923 INTER-LIGAND FREE ENERGY PREDICTED BY IDOCK:   -3.36 KCAL/MOL
REMARK 924 INTRA-LIGAND FREE ENERGY PREDICTED BY IDOCK:   -0.36 KCAL/MOL
REMARK 927      BINDING AFFINITY PREDICTED BY RF-SCORE:    0.00 PKD
ROOT
HETATM    1  C   UNL     1      -7.862  11.363  66.643  1.00  0.00    -0.137 C  
HETATM    2  C   UNL     1      -9.019  10.553  66.097  1.00  0.00    -0.160 C  
ENDROOT
BRANCH   2   3
HETATM    3  O   UNL     1      -9.105   9.366  66.867  1.00  0.00    -0.132 OA 
HETATM    4  P   UNL     1      -9.745   9.487  68.470  1.00  0.00    -0.159 P  
HETATM    5  O   UNL     1      -9.740   7.824  68.507  1.00  0.00    -0.154 OA 
HETATM    6  S   UNL     1     -10.529   9.635  70.434  1.00  0.00    -0.310 SA 
HETATM    7  O   UNL     1     -11.124   9.943  67.982  1.00  0.00    -0.249 OA 
BRANCH   5   8
HETATM    8  C   UNL     1     -10.777   7.137  67.810  1.00  0.00    -0.212 C  
HETATM    9  C   UNL     1     -10.532   5.640  67.905  1.00  0.00    -0.274 C  
ENDBRANCH   5   8
BRANCH   6  10
HETATM   10  C   UNL     1     -11.448   8.137  70.827  1.00  0.00    -0.261 C  
BRANCH  10  11
HETATM   11  C   UNL     1     -11.435   7.850  72.330  1.00  0.00    -0.376 C  
BRANCH  11  12
HETATM   12  N   UNL     1     -10.678   6.541  72.697  1.00  0.00    -0.221 N  
HETATM   13  C   UNL     1     -11.636   5.358  72.840  1.00  0.00    -0.228 C  
HETATM   14  C   UNL     1      -9.990   6.765  74.047  1.00  0.00    -0.336 C  
HETATM   15  C   UNL     1      -9.607   6.209  71.664  1.00  0.00    -0.151 C  
ENDBRANCH  11  12
ENDBRANCH  10  11
ENDBRANCH   6  10
ENDBRANCH   2   3
TORSDOF 5
ENDMDL
MODEL      113
REMARK 921   NORMALIZED FREE ENERGY PREDICTED BY IDOCK:   -2.66 KCAL/MOL
REMARK 922        TOTAL FREE ENERGY PREDICTED BY IDOCK:   -3.68 KCAL/MOL
REMARK 923 INTER-LIGAND FREE ENERGY PREDICTED BY IDOCK:   -3.40 KCAL/MOL
REMARK 924 INTRA-LIGAND FREE ENERGY PREDICTED BY IDOCK:   -0.29 KCAL/MOL
REMARK 927      BINDING AFFINITY PREDICTED BY RF-SCORE:    0.00 PKD
ROOT
HETATM    1  C   UNL     1      -5.558  15.035  70.622  1.00  0.00    -0.134 C  
HETATM    2  C   UNL     1      -5.791  14.794  69.146  1.00  0.00    -0.099 C  
ENDROOT
BRANCH   2   3
HETATM    3  O   UNL     1      -6.568  13.614  69.028  1.00  0.00    -0.099 OA 
HETATM    4  P   UNL     1      -8.173  13.763  68.399  1.00  0.00    -0.097 P  
HETATM    5  O   UNL     1      -8.218  12.101  68.353  1.00  0.00    -0.154 OA 
HETATM    6  S   UNL     1     -10.139  13.946  67.629  1.00  0.00    -0.245 SA 
HETATM    7  O   UNL     1      -7.688  14.258  67.032  1.00  0.00    -0.090 OA 
BRANCH   5   8
HETATM    8  C   UNL     1      -7.530  11.442  67.293  1.00  0.00    -0.134 C  
HETATM    9  C   UNL     1      -7.810   9.951  67.369  1.00  0.00    -0.098 C  
ENDBRANCH   5   8
BRANCH   6  10
HETATM   10  C   UNL     1     -10.544  12.478  66.666  1.00  0.00    -0.237 C  
BRANCH  10  11
HETATM   11  C   UNL     1     -11.898  12.624  65.966  1.00  0.00    -0.436 C  
BRANCH  11  12
HETATM   12  N   UNL     1     -11.772  12.929  64.445  1.00  0.00    -0.349 N  
HETATM   13  C   UNL     1     -10.331  12.775  63.957  1.00  0.00    -0.368 C  
HETATM   14  C   UNL     1     -12.197  14.383  64.227  1.00  0.00    -0.423 C  
HETATM   15  C   UNL     1     -12.689  12.033  63.620  1.00  0.00    -0.431 C  
ENDBRANCH  11  12
ENDBRANCH  10  11
ENDBRANCH   6  10
ENDBRANCH   2   3
TORSDOF 5
ENDMDL
MODEL      114
REMARK 921   NORMALIZED FREE ENERGY PREDICTED BY IDOCK:   -2.64 KCAL/MOL
REMARK 922        TOTAL FREE ENERGY PREDICTED BY IDOCK:   -3.66 KCAL/MOL
REMARK 923 INTER-LIGAND FREE ENERGY PREDICTED BY IDOCK:   -3.51 KCAL/MOL
REMARK 924 INTRA-LIGAND FREE ENERGY PREDICTED BY IDOCK:   -0.15 KCAL/MOL
REMARK 927      BINDING AFFINITY PREDICTED BY RF-SCORE:    0.00 PKD
ROOT
HETATM    1  C   UNL     1      -9.776  10.961  63.115  1.00  0.00    -0.396 C  
HETATM    2  C   UNL     1      -9.261   9.999  64.164  1.00  0.00    -0.271 C  
ENDROOT
BRANCH   2   3
HETATM    3  O   UNL     1     -10.087  10.137  65.307  1.00  0.00    -0.319 OA 
HETATM    4  P   UNL     1      -9.625   9.294  66.745  1.00  0.00    -0.220 P  
HETATM    5  O   UNL     1     -10.823  10.141  67.527  1.00  0.00    -0.281 OA 
HETATM    6  S   UNL     1      -9.059   8.259  68.507  1.00  0.00    -0.135 SA 
HETATM    7  O   UNL     1      -8.319  10.080  66.895  1.00  0.00    -0.124 OA 
BRANCH   5   8
HETATM    8  C   UNL     1     -10.566  11.501  67.869  1.00  0.00    -0.191 C  
HETATM    9  C   UNL     1     -11.761  12.350  67.466  1.00  0.00    -0.425 C  
ENDBRANCH   5   8
BRANCH   6  10
HETATM   10  C   UNL     1      -9.513   9.239  69.948  1.00  0.00    -0.197 C  
BRANCH  10  11
HETATM   11  C   UNL     1      -8.614   8.922  71.146  1.00  0.00    -0.208 C  
BRANCH  11  12
HETATM   12  N   UNL     1      -9.130   7.728  72.001  1.00  0.00    -0.130 N  
HETATM   13  C   UNL     1      -8.796   7.909  73.482  1.00  0.00    -0.272 C  
HETATM   14  C   UNL     1      -8.427   6.462  71.504  1.00  0.00    -0.129 C  
HETATM   15  C   UNL     1     -10.634   7.536  71.837  1.00  0.00    -0.211 C  
ENDBRANCH  11  12
ENDBRANCH  10  11
ENDBRANCH   6  10
ENDBRANCH   2   3
TORSDOF 5
ENDMDL
MODEL      115
REMARK 921   NORMALIZED FREE ENERGY PREDICTED BY IDOCK:   -2.61 KCAL/MOL
REMARK 922        TOTAL FREE ENERGY PREDICTED BY IDOCK:   -3.62 KCAL/MOL
REMARK 923 INTER-LIGAND FREE ENERGY PREDICTED BY IDOCK:   -3.36 KCAL/MOL
REMARK 924 INTRA-LIGAND FREE ENERGY PREDICTED BY IDOCK:   -0.26 KCAL/MOL
REMARK 927      BINDING AFFINITY PREDICTED BY RF-SCORE:    0.00 PKD
ROOT
HETATM    1  C   UNL     1     -11.481   9.681  70.964  1.00  0.00    -0.444 C  
HETATM    2  C   UNL     1     -10.306   8.872  71.472  1.00  0.00    -0.324 C  
ENDROOT
BRANCH   2   3
HETATM    3  O   UNL     1     -10.553   7.515  71.145  1.00  0.00    -0.220 OA 
HETATM    4  P   UNL     1     -10.649   7.092  69.471  1.00  0.00    -0.241 P  
HETATM    5  O   UNL     1     -10.670   5.503  69.961  1.00  0.00    -0.313 OA 
HETATM    6  S   UNL     1     -10.767   6.572  67.419  1.00  0.00    -0.382 SA 
HETATM    7  O   UNL     1      -9.193   7.480  69.196  1.00  0.00    -0.145 OA 
BRANCH   5   8
HETATM    8  C   UNL     1      -9.436   4.910  70.361  1.00  0.00    -0.167 C  
HETATM    9  C   UNL     1      -9.601   3.400  70.404  1.00  0.00    -0.227 C  
ENDBRANCH   5   8
BRANCH   6  10
HETATM   10  C   UNL     1     -10.101   4.916  67.181  1.00  0.00    -0.187 C  
BRANCH  10  11
HETATM   11  C   UNL     1      -9.940   4.586  65.695  1.00  0.00    -0.231 C  
BRANCH  11  12
HETATM   12  N   UNL     1      -9.034   3.347  65.437  1.00  0.00    -0.136 N  
HETATM   13  C   UNL     1      -9.597   2.457  64.329  1.00  0.00    -0.135 C  
HETATM   14  C   UNL     1      -8.988   2.528  66.730  1.00  0.00    -0.131 C  
HETATM   15  C   UNL     1      -7.610   3.763  65.084  1.00  0.00    -0.081 C  
ENDBRANCH  11  12
ENDBRANCH  10  11
ENDBRANCH   6  10
ENDBRANCH   2   3
TORSDOF 5
ENDMDL
MODEL      116
REMARK 921   NORMALIZED FREE ENERGY PREDICTED BY IDOCK:   -2.61 KCAL/MOL
REMARK 922        TOTAL FREE ENERGY PREDICTED BY IDOCK:   -3.61 KCAL/MOL
REMARK 923 INTER-LIGAND FREE ENERGY PREDICTED BY IDOCK:   -3.33 KCAL/MOL
REMARK 924 INTRA-LIGAND FREE ENERGY PREDICTED BY IDOCK:   -0.28 KCAL/MOL
REMARK 927      BINDING AFFINITY PREDICTED BY RF-SCORE:    0.00 PKD
ROOT
HETATM    1  C   UNL     1      -8.613  15.173  68.086  1.00  0.00    -0.158 C  
HETATM    2  C   UNL     1      -9.605  14.910  66.974  1.00  0.00    -0.238 C  
ENDROOT
BRANCH   2   3
HETATM    3  O   UNL     1      -9.339  13.613  66.467  1.00  0.00    -0.268 OA 
HETATM    4  P   UNL     1      -9.017  12.351  67.606  1.00  0.00    -0.205 P  
HETATM    5  O   UNL     1      -9.095  11.292  66.327  1.00  0.00    -0.187 OA 
HETATM    6  S   UNL     1      -8.622  10.805  69.002  1.00  0.00    -0.097 SA 
HETATM    7  O   UNL     1     -10.413  12.436  68.232  1.00  0.00    -0.212 OA 
BRANCH   5   8
HETATM    8  C   UNL     1     -10.383  10.938  65.829  1.00  0.00    -0.241 C  
HETATM    9  C   UNL     1     -10.386  11.076  64.315  1.00  0.00    -0.430 C  
ENDBRANCH   5   8
BRANCH   6  10
HETATM   10  C   UNL     1      -9.279   9.250  68.375  1.00  0.00    -0.131 C  
BRANCH  10  11
HETATM   11  C   UNL     1     -10.628   8.914  69.016  1.00  0.00    -0.183 C  
BRANCH  11  12
HETATM   12  N   UNL     1     -10.502   7.979  70.254  1.00  0.00    -0.217 N  
HETATM   13  C   UNL     1     -10.502   8.772  71.561  1.00  0.00    -0.303 C  
HETATM   14  C   UNL     1      -9.167   7.239  70.143  1.00  0.00    -0.152 C  
HETATM   15  C   UNL     1     -11.622   6.943  70.285  1.00  0.00    -0.311 C  
ENDBRANCH  11  12
ENDBRANCH  10  11
ENDBRANCH   6  10
ENDBRANCH   2   3
TORSDOF 5
ENDMDL
MODEL      117
REMARK 921   NORMALIZED FREE ENERGY PREDICTED BY IDOCK:   -2.59 KCAL/MOL
REMARK 922        TOTAL FREE ENERGY PREDICTED BY IDOCK:   -3.59 KCAL/MOL
REMARK 923 INTER-LIGAND FREE ENERGY PREDICTED BY IDOCK:   -3.32 KCAL/MOL
REMARK 924 INTRA-LIGAND FREE ENERGY PREDICTED BY IDOCK:   -0.27 KCAL/MOL
REMARK 927      BINDING AFFINITY PREDICTED BY RF-SCORE:    0.00 PKD
ROOT
HETATM    1  C   UNL     1      -7.316   7.135  69.528  1.00  0.00    -0.089 C  
HETATM    2  C   UNL     1      -8.811   7.158  69.761  1.00  0.00    -0.142 C  
ENDROOT
BRANCH   2   3
HETATM    3  O   UNL     1      -9.400   7.836  68.665  1.00  0.00    -0.148 OA 
HETATM    4  P   UNL     1     -10.375   9.225  69.003  1.00  0.00    -0.210 P  
HETATM    5  O   UNL     1     -10.404   9.499  67.363  1.00  0.00    -0.224 OA 
HETATM    6  S   UNL     1     -11.570  10.926  69.417  1.00  0.00    -0.340 SA 
HETATM    7  O   UNL     1      -9.203  10.016  69.592  1.00  0.00    -0.210 OA 
BRANCH   5   8
HETATM    8  C   UNL     1      -9.246  10.073  66.760  1.00  0.00    -0.148 C  
HETATM    9  C   UNL     1      -9.037   9.448  65.391  1.00  0.00    -0.280 C  
ENDBRANCH   5   8
BRANCH   6  10
HETATM   10  C   UNL     1     -11.381  12.128  68.090  1.00  0.00    -0.293 C  
BRANCH  10  11
HETATM   11  C   UNL     1     -10.311  13.170  68.427  1.00  0.00    -0.253 C  
BRANCH  11  12
HETATM   12  N   UNL     1     -10.905  14.545  68.850  1.00  0.00    -0.246 N  
HETATM   13  C   UNL     1     -11.664  14.447  70.173  1.00  0.00    -0.297 C  
HETATM   14  C   UNL     1     -11.893  14.978  67.763  1.00  0.00    -0.204 C  
HETATM   15  C   UNL     1      -9.819  15.610  68.961  1.00  0.00    -0.236 C  
ENDBRANCH  11  12
ENDBRANCH  10  11
ENDBRANCH   6  10
ENDBRANCH   2   3
TORSDOF 5
ENDMDL
MODEL      118
REMARK 921   NORMALIZED FREE ENERGY PREDICTED BY IDOCK:   -2.58 KCAL/MOL
REMARK 922        TOTAL FREE ENERGY PREDICTED BY IDOCK:   -3.59 KCAL/MOL
REMARK 923 INTER-LIGAND FREE ENERGY PREDICTED BY IDOCK:   -3.25 KCAL/MOL
REMARK 924 INTRA-LIGAND FREE ENERGY PREDICTED BY IDOCK:   -0.33 KCAL/MOL
REMARK 927      BINDING AFFINITY PREDICTED BY RF-SCORE:    0.00 PKD
ROOT
HETATM    1  C   UNL     1      -5.510  12.381  69.842  1.00  0.00    -0.101 C  
HETATM    2  C   UNL     1      -6.277  11.402  68.979  1.00  0.00    -0.058 C  
ENDROOT
BRANCH   2   3
HETATM    3  O   UNL     1      -7.643  11.779  69.023  1.00  0.00    -0.089 OA 
HETATM    4  P   UNL     1      -8.145  13.110  68.038  1.00  0.00    -0.180 P  
HETATM    5  O   UNL     1      -9.708  12.712  68.445  1.00  0.00    -0.222 OA 
HETATM    6  S   UNL     1      -8.761  14.741  66.832  1.00  0.00    -0.217 SA 
HETATM    7  O   UNL     1      -7.801  12.390  66.731  1.00  0.00    -0.066 OA 
BRANCH   5   8
HETATM    8  C   UNL     1     -10.306  11.597  67.788  1.00  0.00    -0.182 C  
HETATM    9  C   UNL     1     -11.296  10.936  68.732  1.00  0.00    -0.357 C  
ENDBRANCH   5   8
BRANCH   6  10
HETATM   10  C   UNL     1     -10.440  14.454  66.248  1.00  0.00    -0.290 C  
BRANCH  10  11
HETATM   11  C   UNL     1     -10.458  14.055  64.770  1.00  0.00    -0.421 C  
BRANCH  11  12
HETATM   12  N   UNL     1     -11.530  12.976  64.440  1.00  0.00    -0.346 N  
HETATM   13  C   UNL     1     -10.898  11.600  64.228  1.00  0.00    -0.359 C  
HETATM   14  C   UNL     1     -12.220  13.390  63.138  1.00  0.00    -0.066 C  
HETATM   15  C   UNL     1     -12.588  12.889  65.535  1.00  0.00    -0.296 C  
ENDBRANCH  11  12
ENDBRANCH  10  11
ENDBRANCH   6  10
ENDBRANCH   2   3
TORSDOF 5
ENDMDL
MODEL      119
REMARK 921   NORMALIZED FREE ENERGY PREDICTED BY IDOCK:   -2.58 KCAL/MOL
REMARK 922        TOTAL FREE ENERGY PREDICTED BY IDOCK:   -3.59 KCAL/MOL
REMARK 923 INTER-LIGAND FREE ENERGY PREDICTED BY IDOCK:   -3.30 KCAL/MOL
REMARK 924 INTRA-LIGAND FREE ENERGY PREDICTED BY IDOCK:   -0.29 KCAL/MOL
REMARK 927      BINDING AFFINITY PREDICTED BY RF-SCORE:    0.00 PKD
ROOT
HETATM    1  C   UNL     1      -9.089   5.127  69.192  1.00  0.00    -0.135 C  
HETATM    2  C   UNL     1      -8.669   6.095  70.277  1.00  0.00    -0.145 C  
ENDROOT
BRANCH   2   3
HETATM    3  O   UNL     1      -8.173   7.258  69.638  1.00  0.00    -0.127 OA 
HETATM    4  P   UNL     1      -9.237   8.113  68.575  1.00  0.00    -0.134 P  
HETATM    5  O   UNL     1      -8.083   9.309  68.517  1.00  0.00    -0.103 OA 
HETATM    6  S   UNL     1     -10.542   9.160  67.273  1.00  0.00    -0.167 SA 
HETATM    7  O   UNL     1     -10.221   8.463  69.696  1.00  0.00    -0.199 OA 
BRANCH   5   8
HETATM    8  C   UNL     1      -7.981  10.193  69.630  1.00  0.00    -0.173 C  
HETATM    9  C   UNL     1      -6.899  11.224  69.348  1.00  0.00    -0.121 C  
ENDBRANCH   5   8
BRANCH   6  10
HETATM   10  C   UNL     1     -10.199  10.925  67.373  1.00  0.00    -0.201 C  
BRANCH  10  11
HETATM   11  C   UNL     1     -11.488  11.749  67.327  1.00  0.00    -0.303 C  
BRANCH  11  12
HETATM   12  N   UNL     1     -11.429  12.923  66.307  1.00  0.00    -0.330 N  
HETATM   13  C   UNL     1     -12.098  14.183  66.858  1.00  0.00    -0.432 C  
HETATM   14  C   UNL     1     -12.190  12.487  65.052  1.00  0.00    -0.456 C  
HETATM   15  C   UNL     1      -9.991  13.242  65.908  1.00  0.00    -0.272 C  
ENDBRANCH  11  12
ENDBRANCH  10  11
ENDBRANCH   6  10
ENDBRANCH   2   3
TORSDOF 5
ENDMDL
MODEL      120
REMARK 921   NORMALIZED FREE ENERGY PREDICTED BY IDOCK:   -2.56 KCAL/MOL
REMARK 922        TOTAL FREE ENERGY PREDICTED BY IDOCK:   -3.55 KCAL/MOL
REMARK 923 INTER-LIGAND FREE ENERGY PREDICTED BY IDOCK:   -3.13 KCAL/MOL
REMARK 924 INTRA-LIGAND FREE ENERGY PREDICTED BY IDOCK:   -0.42 KCAL/MOL
REMARK 927      BINDING AFFINITY PREDICTED BY RF-SCORE:    0.00 PKD
ROOT
HETATM    1  C   UNL     1     -10.393  18.111  67.696  1.00  0.00    -0.411 C  
HETATM    2  C   UNL     1     -10.837  17.190  68.812  1.00  0.00    -0.211 C  
ENDROOT
BRANCH   2   3
HETATM    3  O   UNL     1     -10.002  16.045  68.771  1.00  0.00    -0.208 OA 
HETATM    4  P   UNL     1     -10.757  14.502  68.558  1.00  0.00    -0.266 P  
HETATM    5  O   UNL     1      -9.228  13.875  68.370  1.00  0.00    -0.200 OA 
HETATM    6  S   UNL     1     -11.681  12.612  68.297  1.00  0.00    -0.330 SA 
HETATM    7  O   UNL     1     -11.294  14.856  67.168  1.00  0.00    -0.337 OA 
BRANCH   5   8
HETATM    8  C   UNL     1      -8.573  14.075  67.119  1.00  0.00    -0.205 C  
HETATM    9  C   UNL     1      -7.071  14.122  67.347  1.00  0.00    -0.101 C  
ENDBRANCH   5   8
BRANCH   6  10
HETATM   10  C   UNL     1     -10.602  11.547  67.326  1.00  0.00    -0.228 C  
BRANCH  10  11
HETATM   11  C   UNL     1      -9.834  10.566  68.216  1.00  0.00    -0.149 C  
BRANCH  11  12
HETATM   12  N   UNL     1      -8.527  10.036  67.559  1.00  0.00    -0.118 N  
HETATM   13  C   UNL     1      -8.456   8.509  67.597  1.00  0.00    -0.129 C  
HETATM   14  C   UNL     1      -7.346  10.590  68.359  1.00  0.00    -0.086 C  
HETATM   15  C   UNL     1      -8.395  10.516  66.117  1.00  0.00    -0.155 C  
ENDBRANCH  11  12
ENDBRANCH  10  11
ENDBRANCH   6  10
ENDBRANCH   2   3
TORSDOF 5
ENDMDL
MODEL      121
REMARK 921   NORMALIZED FREE ENERGY PREDICTED BY IDOCK:   -2.53 KCAL/MOL
REMARK 922        TOTAL FREE ENERGY PREDICTED BY IDOCK:   -3.52 KCAL/MOL
REMARK 923 INTER-LIGAND FREE ENERGY PREDICTED BY IDOCK:   -3.28 KCAL/MOL
REMARK 924 INTRA-LIGAND FREE ENERGY PREDICTED BY IDOCK:   -0.25 KCAL/MOL
REMARK 927      BINDING AFFINITY PREDICTED BY RF-SCORE:    0.00 PKD
ROOT
HETATM    1  C   UNL     1      -7.677   6.140  63.045  1.00  0.00    -0.092 C  
HETATM    2  C   UNL     1      -7.838   5.743  64.497  1.00  0.00    -0.113 C  
ENDROOT
BRANCH   2   3
HETATM    3  O   UNL     1      -8.857   6.559  65.049  1.00  0.00     0.070 OA 
HETATM    4  P   UNL     1      -9.474   6.137  66.609  1.00  0.00    -0.140 P  
HETATM    5  O   UNL     1     -10.292   7.585  66.584  1.00  0.00    -0.264 OA 
HETATM    6  S   UNL     1     -10.230   5.621  68.521  1.00  0.00    -0.196 SA 
HETATM    7  O   UNL     1      -8.129   6.369  67.303  1.00  0.00    -0.111 OA 
BRANCH   5   8
HETATM    8  C   UNL     1      -9.554   8.775  66.853  1.00  0.00    -0.190 C  
HETATM    9  C   UNL     1     -10.515   9.949  66.932  1.00  0.00    -0.284 C  
ENDBRANCH   5   8
BRANCH   6  10
HETATM   10  C   UNL     1     -10.661   7.120  69.420  1.00  0.00    -0.233 C  
BRANCH  10  11
HETATM   11  C   UNL     1     -11.673   6.835  70.533  1.00  0.00    -0.375 C  
BRANCH  11  12
HETATM   12  N   UNL     1     -11.904   8.050  71.478  1.00  0.00    -0.283 N  
HETATM   13  C   UNL     1     -11.206   7.857  72.824  1.00  0.00    -0.405 C  
HETATM   14  C   UNL     1     -13.409   8.161  71.731  1.00  0.00    -0.345 C  
HETATM   15  C   UNL     1     -11.429   9.351  70.838  1.00  0.00    -0.316 C  
ENDBRANCH  11  12
ENDBRANCH  10  11
ENDBRANCH   6  10
ENDBRANCH   2   3
TORSDOF 5
ENDMDL
MODEL      122
REMARK 921   NORMALIZED FREE ENERGY PREDICTED BY IDOCK:   -2.51 KCAL/MOL
REMARK 922        TOTAL FREE ENERGY PREDICTED BY IDOCK:   -3.49 KCAL/MOL
REMARK 923 INTER-LIGAND FREE ENERGY PREDICTED BY IDOCK:   -3.43 KCAL/MOL
REMARK 924 INTRA-LIGAND FREE ENERGY PREDICTED BY IDOCK:   -0.06 KCAL/MOL
REMARK 927      BINDING AFFINITY PREDICTED BY RF-SCORE:    0.00 PKD
ROOT
HETATM    1  C   UNL     1     -14.269  15.256  71.944  1.00  0.00    -0.681 C  
HETATM    2  C   UNL     1     -12.845  14.745  71.890  1.00  0.00    -0.324 C  
ENDROOT
BRANCH   2   3
HETATM    3  O   UNL     1     -12.828  13.633  71.012  1.00  0.00    -0.323 OA 
HETATM    4  P   UNL     1     -12.150  13.857  69.436  1.00  0.00    -0.222 P  
HETATM    5  O   UNL     1     -12.271  12.210  69.242  1.00  0.00    -0.199 OA 
HETATM    6  S   UNL     1     -11.319  14.132  67.506  1.00  0.00    -0.340 SA 
HETATM    7  O   UNL     1     -10.752  14.165  69.983  1.00  0.00     0.096 OA 
BRANCH   5   8
HETATM    8  C   UNL     1     -11.299  11.388  69.884  1.00  0.00    -0.219 C  
HETATM    9  C   UNL     1     -12.005  10.245  70.594  1.00  0.00    -0.436 C  
ENDBRANCH   5   8
BRANCH   6  10
HETATM   10  C   UNL     1     -10.500  12.615  66.984  1.00  0.00    -0.232 C  
BRANCH  10  11
HETATM   11  C   UNL     1      -9.105  12.897  66.421  1.00  0.00    -0.074 C  
BRANCH  11  12
HETATM   12  N   UNL     1      -8.005  11.973  67.019  1.00  0.00    -0.165 N  
HETATM   13  C   UNL     1      -6.682  12.717  67.203  1.00  0.00    -0.017 C  
HETATM   14  C   UNL     1      -7.775  10.825  66.032  1.00  0.00    -0.139 C  
HETATM   15  C   UNL     1      -8.444  11.375  68.352  1.00  0.00    -0.155 C  
ENDBRANCH  11  12
ENDBRANCH  10  11
ENDBRANCH   6  10
ENDBRANCH   2   3
TORSDOF 5
ENDMDL
MODEL      123
REMARK 921   NORMALIZED FREE ENERGY PREDICTED BY IDOCK:   -2.50 KCAL/MOL
REMARK 922        TOTAL FREE ENERGY PREDICTED BY IDOCK:   -3.48 KCAL/MOL
REMARK 923 INTER-LIGAND FREE ENERGY PREDICTED BY IDOCK:   -3.18 KCAL/MOL
REMARK 924 INTRA-LIGAND FREE ENERGY PREDICTED BY IDOCK:   -0.30 KCAL/MOL
REMARK 927      BINDING AFFINITY PREDICTED BY RF-SCORE:    0.00 PKD
ROOT
HETATM    1  C   UNL     1      -6.865   5.802  68.340  1.00  0.00    -0.063 C  
HETATM    2  C   UNL     1      -7.870   6.836  68.802  1.00  0.00    -0.111 C  
ENDROOT
BRANCH   2   3
HETATM    3  O   UNL     1      -8.469   7.390  67.643  1.00  0.00    -0.120 OA 
HETATM    4  P   UNL     1      -9.234   8.935  67.789  1.00  0.00    -0.141 P  
HETATM    5  O   UNL     1      -9.378   8.926  66.132  1.00  0.00    -0.202 OA 
HETATM    6  S   UNL     1     -10.172  10.828  67.967  1.00  0.00    -0.186 SA 
HETATM    7  O   UNL     1      -7.927   9.650  68.143  1.00  0.00    -0.099 OA 
BRANCH   5   8
HETATM    8  C   UNL     1      -8.219   9.226  65.358  1.00  0.00    -0.127 C  
HETATM    9  C   UNL     1      -8.025   8.141  64.312  1.00  0.00    -0.144 C  
ENDBRANCH   5   8
BRANCH   6  10
HETATM   10  C   UNL     1      -9.960  11.748  66.434  1.00  0.00    -0.211 C  
BRANCH  10  11
HETATM   11  C   UNL     1     -11.306  12.056  65.775  1.00  0.00    -0.331 C  
BRANCH  11  12
HETATM   12  N   UNL     1     -11.169  12.841  64.438  1.00  0.00    -0.327 N  
HETATM   13  C   UNL     1     -10.333  12.071  63.415  1.00  0.00    -0.434 C  
HETATM   14  C   UNL     1     -10.454  14.159  64.745  1.00  0.00    -0.408 C  
HETATM   15  C   UNL     1     -12.535  13.166  63.841  1.00  0.00    -0.278 C  
ENDBRANCH  11  12
ENDBRANCH  10  11
ENDBRANCH   6  10
ENDBRANCH   2   3
TORSDOF 5
ENDMDL
MODEL      124
REMARK 921   NORMALIZED FREE ENERGY PREDICTED BY IDOCK:   -2.50 KCAL/MOL
REMARK 922        TOTAL FREE ENERGY PREDICTED BY IDOCK:   -3.48 KCAL/MOL
REMARK 923 INTER-LIGAND FREE ENERGY PREDICTED BY IDOCK:   -3.17 KCAL/MOL
REMARK 924 INTRA-LIGAND FREE ENERGY PREDICTED BY IDOCK:   -0.31 KCAL/MOL
REMARK 927      BINDING AFFINITY PREDICTED BY RF-SCORE:    0.00 PKD
ROOT
HETATM    1  C   UNL     1     -12.226   9.981  70.594  1.00  0.00    -0.360 C  
HETATM    2  C   UNL     1     -11.937   9.366  71.947  1.00  0.00    -0.346 C  
ENDROOT
BRANCH   2   3
HETATM    3  O   UNL     1     -11.860   7.962  71.765  1.00  0.00    -0.270 OA 
HETATM    4  P   UNL     1     -10.828   7.365  70.512  1.00  0.00    -0.250 P  
HETATM    5  O   UNL     1     -11.100   5.845  71.128  1.00  0.00    -0.274 OA 
HETATM    6  S   UNL     1      -9.563   6.633  68.976  1.00  0.00    -0.133 SA 
HETATM    7  O   UNL     1      -9.559   7.918  71.169  1.00  0.00    -0.157 OA 
BRANCH   5   8
HETATM    8  C   UNL     1     -10.401   5.468  72.312  1.00  0.00    -0.210 C  
HETATM    9  C   UNL     1     -11.360   4.754  73.250  1.00  0.00    -0.408 C  
ENDBRANCH   5   8
BRANCH   6  10
HETATM   10  C   UNL     1      -8.838   5.068  69.493  1.00  0.00    -0.095 C  
BRANCH  10  11
HETATM   11  C   UNL     1      -9.524   3.881  68.811  1.00  0.00    -0.155 C  
BRANCH  11  12
HETATM   12  N   UNL     1      -8.805   3.422  67.510  1.00  0.00    -0.117 N  
HETATM   13  C   UNL     1      -9.466   4.010  66.263  1.00  0.00    -0.190 C  
HETATM   14  C   UNL     1      -8.911   1.897  67.433  1.00  0.00    -0.140 C  
HETATM   15  C   UNL     1      -7.326   3.798  67.529  1.00  0.00    -0.067 C  
ENDBRANCH  11  12
ENDBRANCH  10  11
ENDBRANCH   6  10
ENDBRANCH   2   3
TORSDOF 5
ENDMDL
MODEL      125
REMARK 921   NORMALIZED FREE ENERGY PREDICTED BY IDOCK:   -2.49 KCAL/MOL
REMARK 922        TOTAL FREE ENERGY PREDICTED BY IDOCK:   -3.46 KCAL/MOL
REMARK 923 INTER-LIGAND FREE ENERGY PREDICTED BY IDOCK:   -3.20 KCAL/MOL
REMARK 924 INTRA-LIGAND FREE ENERGY PREDICTED BY IDOCK:   -0.26 KCAL/MOL
REMARK 927      BINDING AFFINITY PREDICTED BY RF-SCORE:    0.00 PKD
ROOT
HETATM    1  C   UNL     1      -9.908  10.199  64.992  1.00  0.00    -0.392 C  
HETATM    2  C   UNL     1      -8.969   9.576  66.002  1.00  0.00    -0.163 C  
ENDROOT
BRANCH   2   3
HETATM    3  O   UNL     1      -9.712   9.351  67.188  1.00  0.00    -0.156 OA 
HETATM    4  P   UNL     1      -8.952   8.457  68.459  1.00  0.00    -0.134 P  
HETATM    5  O   UNL     1     -10.251   8.872  69.412  1.00  0.00    -0.197 OA 
HETATM    6  S   UNL     1      -8.022   7.362  70.018  1.00  0.00    -0.121 SA 
HETATM    7  O   UNL     1      -7.860   9.511  68.670  1.00  0.00    -0.083 OA 
BRANCH   5   8
HETATM    8  C   UNL     1     -10.294  10.193  69.945  1.00  0.00    -0.261 C  
HETATM    9  C   UNL     1     -11.607  10.388  70.686  1.00  0.00    -0.440 C  
ENDBRANCH   5   8
BRANCH   6  10
HETATM   10  C   UNL     1      -8.578   7.994  71.609  1.00  0.00    -0.129 C  
BRANCH  10  11
HETATM   11  C   UNL     1      -8.826   6.860  72.607  1.00  0.00    -0.124 C  
BRANCH  11  12
HETATM   12  N   UNL     1     -10.332   6.498  72.762  1.00  0.00    -0.194 N  
HETATM   13  C   UNL     1     -11.162   7.712  73.179  1.00  0.00    -0.256 C  
HETATM   14  C   UNL     1     -10.444   5.441  73.863  1.00  0.00    -0.280 C  
HETATM   15  C   UNL     1     -10.898   5.910  71.474  1.00  0.00    -0.266 C  
ENDBRANCH  11  12
ENDBRANCH  10  11
ENDBRANCH   6  10
ENDBRANCH   2   3
TORSDOF 5
ENDMDL
MODEL      126
REMARK 921   NORMALIZED FREE ENERGY PREDICTED BY IDOCK:   -2.48 KCAL/MOL
REMARK 922        TOTAL FREE ENERGY PREDICTED BY IDOCK:   -3.46 KCAL/MOL
REMARK 923 INTER-LIGAND FREE ENERGY PREDICTED BY IDOCK:   -3.18 KCAL/MOL
REMARK 924 INTRA-LIGAND FREE ENERGY PREDICTED BY IDOCK:   -0.28 KCAL/MOL
REMARK 927      BINDING AFFINITY PREDICTED BY RF-SCORE:    0.00 PKD
ROOT
HETATM    1  C   UNL     1     -10.365  17.870  67.807  1.00  0.00    -0.393 C  
HETATM    2  C   UNL     1     -10.631  17.158  69.116  1.00  0.00    -0.259 C  
ENDROOT
BRANCH   2   3
HETATM    3  O   UNL     1     -10.071  15.860  69.013  1.00  0.00    -0.204 OA 
HETATM    4  P   UNL     1     -10.970  14.537  69.672  1.00  0.00    -0.079 P  
HETATM    5  O   UNL     1      -9.859  13.532  68.951  1.00  0.00    -0.098 OA 
HETATM    6  S   UNL     1     -12.072  12.916  70.480  1.00  0.00    -0.168 SA 
HETATM    7  O   UNL     1     -12.136  14.727  68.697  1.00  0.00    -0.277 OA 
BRANCH   5   8
HETATM    8  C   UNL     1      -9.968  13.313  67.546  1.00  0.00    -0.223 C  
HETATM    9  C   UNL     1      -8.575  13.235  66.945  1.00  0.00    -0.116 C  
ENDBRANCH   5   8
BRANCH   6  10
HETATM   10  C   UNL     1     -11.804  11.448  69.472  1.00  0.00    -0.357 C  
BRANCH  10  11
HETATM   11  C   UNL     1     -12.119  10.169  70.251  1.00  0.00    -0.204 C  
BRANCH  11  12
HETATM   12  N   UNL     1     -11.032   9.068  70.087  1.00  0.00    -0.238 N  
HETATM   13  C   UNL     1     -11.608   7.669  70.306  1.00  0.00    -0.060 C  
HETATM   14  C   UNL     1      -9.957   9.314  71.149  1.00  0.00    -0.286 C  
HETATM   15  C   UNL     1     -10.371   9.139  68.714  1.00  0.00    -0.214 C  
ENDBRANCH  11  12
ENDBRANCH  10  11
ENDBRANCH   6  10
ENDBRANCH   2   3
TORSDOF 5
ENDMDL
MODEL      127
REMARK 921   NORMALIZED FREE ENERGY PREDICTED BY IDOCK:   -2.46 KCAL/MOL
REMARK 922        TOTAL FREE ENERGY PREDICTED BY IDOCK:   -3.43 KCAL/MOL
REMARK 923 INTER-LIGAND FREE ENERGY PREDICTED BY IDOCK:   -3.11 KCAL/MOL
REMARK 924 INTRA-LIGAND FREE ENERGY PREDICTED BY IDOCK:   -0.32 KCAL/MOL
REMARK 927      BINDING AFFINITY PREDICTED BY RF-SCORE:    0.00 PKD
ROOT
HETATM    1  C   UNL     1      -6.881   2.745  65.566  1.00  0.00    -0.048 C  
HETATM    2  C   UNL     1      -7.715   2.621  66.823  1.00  0.00    -0.071 C  
ENDROOT
BRANCH   2   3
HETATM    3  O   UNL     1      -8.586   3.739  66.864  1.00  0.00    -0.103 OA 
HETATM    4  P   UNL     1      -9.142   4.273  68.413  1.00  0.00    -0.149 P  
HETATM    5  O   UNL     1      -9.775   5.599  67.635  1.00  0.00    -0.115 OA 
HETATM    6  S   UNL     1      -9.824   4.926  70.311  1.00  0.00    -0.253 SA 
HETATM    7  O   UNL     1      -7.734   4.637  68.894  1.00  0.00    -0.070 OA 
BRANCH   5   8
HETATM    8  C   UNL     1      -8.879   6.640  67.252  1.00  0.00    -0.116 C  
HETATM    9  C   UNL     1      -9.677   7.788  66.656  1.00  0.00    -0.292 C  
ENDBRANCH   5   8
BRANCH   6  10
HETATM   10  C   UNL     1     -10.004   6.718  70.298  1.00  0.00    -0.178 C  
BRANCH  10  11
HETATM   11  C   UNL     1     -11.448   7.138  70.585  1.00  0.00    -0.308 C  
BRANCH  11  12
HETATM   12  N   UNL     1     -11.569   8.159  71.753  1.00  0.00    -0.275 N  
HETATM   13  C   UNL     1     -13.025   8.537  72.024  1.00  0.00    -0.371 C  
HETATM   14  C   UNL     1     -10.814   9.426  71.343  1.00  0.00    -0.360 C  
HETATM   15  C   UNL     1     -10.936   7.618  73.032  1.00  0.00    -0.400 C  
ENDBRANCH  11  12
ENDBRANCH  10  11
ENDBRANCH   6  10
ENDBRANCH   2   3
TORSDOF 5
ENDMDL
MODEL      128
REMARK 921   NORMALIZED FREE ENERGY PREDICTED BY IDOCK:   -2.44 KCAL/MOL
REMARK 922        TOTAL FREE ENERGY PREDICTED BY IDOCK:   -3.40 KCAL/MOL
REMARK 923 INTER-LIGAND FREE ENERGY PREDICTED BY IDOCK:   -3.32 KCAL/MOL
REMARK 924 INTRA-LIGAND FREE ENERGY PREDICTED BY IDOCK:   -0.08 KCAL/MOL
REMARK 927      BINDING AFFINITY PREDICTED BY RF-SCORE:    0.00 PKD
ROOT
HETATM    1  C   UNL     1      -6.069  14.182  67.940  1.00  0.00    -0.154 C  
HETATM    2  C   UNL     1      -6.709  15.422  67.353  1.00  0.00    -0.144 C  
ENDROOT
BRANCH   2   3
HETATM    3  O   UNL     1      -8.017  15.067  66.939  1.00  0.00    -0.195 OA 
HETATM    4  P   UNL     1      -9.121  14.501  68.144  1.00  0.00    -0.202 P  
HETATM    5  O   UNL     1     -10.305  14.587  66.980  1.00  0.00    -0.260 OA 
HETATM    6  S   UNL     1     -10.474  13.807  69.622  1.00  0.00     0.576 SA 
HETATM    7  O   UNL     1      -9.112  15.830  68.905  1.00  0.00    -0.194 OA 
BRANCH   5   8
HETATM    8  C   UNL     1     -10.832  15.871  66.655  1.00  0.00    -0.213 C  
HETATM    9  C   UNL     1     -10.935  15.999  65.144  1.00  0.00    -0.360 C  
ENDBRANCH   5   8
BRANCH   6  10
HETATM   10  C   UNL     1     -12.141  14.349  69.209  1.00  0.00    -0.299 C  
BRANCH  10  11
HETATM   11  C   UNL     1     -12.619  15.456  70.153  1.00  0.00    -0.293 C  
BRANCH  11  12
HETATM   12  N   UNL     1     -13.013  14.930  71.564  1.00  0.00    -0.318 N  
HETATM   13  C   UNL     1     -13.157  13.408  71.578  1.00  0.00    -0.342 C  
HETATM   14  C   UNL     1     -14.368  15.542  71.926  1.00  0.00    -0.472 C  
HETATM   15  C   UNL     1     -11.997  15.357  72.619  1.00  0.00    -0.449 C  
ENDBRANCH  11  12
ENDBRANCH  10  11
ENDBRANCH   6  10
ENDBRANCH   2   3
TORSDOF 5
ENDMDL
MODEL      129
REMARK 921   NORMALIZED FREE ENERGY PREDICTED BY IDOCK:   -2.44 KCAL/MOL
REMARK 922        TOTAL FREE ENERGY PREDICTED BY IDOCK:   -3.40 KCAL/MOL
REMARK 923 INTER-LIGAND FREE ENERGY PREDICTED BY IDOCK:   -3.23 KCAL/MOL
REMARK 924 INTRA-LIGAND FREE ENERGY PREDICTED BY IDOCK:   -0.16 KCAL/MOL
REMARK 927      BINDING AFFINITY PREDICTED BY RF-SCORE:    0.00 PKD
ROOT
HETATM    1  C   UNL     1      -5.515  14.872  70.688  1.00  0.00    -0.138 C  
HETATM    2  C   UNL     1      -5.489  13.524  70.001  1.00  0.00    -0.105 C  
ENDROOT
BRANCH   2   3
HETATM    3  O   UNL     1      -6.761  13.326  69.408  1.00  0.00    -0.102 OA 
HETATM    4  P   UNL     1      -7.422  14.617  68.464  1.00  0.00    -0.139 P  
HETATM    5  O   UNL     1      -8.613  13.554  67.998  1.00  0.00    -0.158 OA 
HETATM    6  S   UNL     1      -8.231  16.198  67.307  1.00  0.00    -0.193 SA 
HETATM    7  O   UNL     1      -6.299  14.550  67.423  1.00  0.00    -0.322 OA 
BRANCH   5   8
HETATM    8  C   UNL     1      -8.290  12.579  67.009  1.00  0.00    -0.144 C  
HETATM    9  C   UNL     1      -9.335  11.476  67.038  1.00  0.00    -0.185 C  
ENDBRANCH   5   8
BRANCH   6  10
HETATM   10  C   UNL     1      -9.186  15.514  65.942  1.00  0.00    -0.270 C  
BRANCH  10  11
HETATM   11  C   UNL     1     -10.642  15.268  66.346  1.00  0.00    -0.308 C  
BRANCH  11  12
HETATM   12  N   UNL     1     -11.487  14.608  65.218  1.00  0.00    -0.351 N  
HETATM   13  C   UNL     1     -12.570  13.691  65.789  1.00  0.00    -0.461 C  
HETATM   14  C   UNL     1     -10.541  13.757  64.366  1.00  0.00    -0.295 C  
HETATM   15  C   UNL     1     -12.130  15.658  64.317  1.00  0.00    -0.063 C  
ENDBRANCH  11  12
ENDBRANCH  10  11
ENDBRANCH   6  10
ENDBRANCH   2   3
TORSDOF 5
ENDMDL
MODEL      130
REMARK 921   NORMALIZED FREE ENERGY PREDICTED BY IDOCK:   -2.43 KCAL/MOL
REMARK 922        TOTAL FREE ENERGY PREDICTED BY IDOCK:   -3.39 KCAL/MOL
REMARK 923 INTER-LIGAND FREE ENERGY PREDICTED BY IDOCK:   -2.99 KCAL/MOL
REMARK 924 INTRA-LIGAND FREE ENERGY PREDICTED BY IDOCK:   -0.41 KCAL/MOL
REMARK 927      BINDING AFFINITY PREDICTED BY RF-SCORE:    0.00 PKD
ROOT
HETATM    1  C   UNL     1      -5.601   2.865  71.062  1.00  0.00    -0.012 C  
HETATM    2  C   UNL     1      -6.108   3.590  72.291  1.00  0.00    -0.013 C  
ENDROOT
BRANCH   2   3
HETATM    3  O   UNL     1      -7.436   4.004  72.019  1.00  0.00    -0.061 OA 
HETATM    4  P   UNL     1      -7.986   5.478  72.740  1.00  0.00    -0.101 P  
HETATM    5  O   UNL     1      -9.340   5.341  71.785  1.00  0.00    -0.143 OA 
HETATM    6  S   UNL     1      -8.659   7.284  73.622  1.00  0.00    -0.175 SA 
HETATM    7  O   UNL     1      -6.963   6.334  71.985  1.00  0.00    -0.074 OA 
BRANCH   5   8
HETATM    8  C   UNL     1      -9.227   5.692  70.408  1.00  0.00    -0.152 C  
HETATM    9  C   UNL     1     -10.099   4.760  69.583  1.00  0.00    -0.275 C  
ENDBRANCH   5   8
BRANCH   6  10
HETATM   10  C   UNL     1      -9.797   8.112  72.499  1.00  0.00    -0.293 C  
BRANCH  10  11
HETATM   11  C   UNL     1     -11.251   7.934  72.943  1.00  0.00    -0.366 C  
BRANCH  11  12
HETATM   12  N   UNL     1     -12.279   8.270  71.824  1.00  0.00    -0.308 N  
HETATM   13  C   UNL     1     -12.832   7.005  71.168  1.00  0.00    -0.270 C  
HETATM   14  C   UNL     1     -11.550   9.085  70.753  1.00  0.00    -0.265 C  
HETATM   15  C   UNL     1     -13.432   9.112  72.363  1.00  0.00    -0.476 C  
ENDBRANCH  11  12
ENDBRANCH  10  11
ENDBRANCH   6  10
ENDBRANCH   2   3
TORSDOF 5
ENDMDL
MODEL      131
REMARK 921   NORMALIZED FREE ENERGY PREDICTED BY IDOCK:   -2.42 KCAL/MOL
REMARK 922        TOTAL FREE ENERGY PREDICTED BY IDOCK:   -3.37 KCAL/MOL
REMARK 923 INTER-LIGAND FREE ENERGY PREDICTED BY IDOCK:   -3.11 KCAL/MOL
REMARK 924 INTRA-LIGAND FREE ENERGY PREDICTED BY IDOCK:   -0.26 KCAL/MOL
REMARK 927      BINDING AFFINITY PREDICTED BY RF-SCORE:    0.00 PKD
ROOT
HETATM    1  C   UNL     1      -8.749  13.227  67.895  1.00  0.00    -0.192 C  
HETATM    2  C   UNL     1      -9.713  12.547  66.947  1.00  0.00    -0.232 C  
ENDROOT
BRANCH   2   3
HETATM    3  O   UNL     1     -10.577  11.740  67.729  1.00  0.00    -0.191 OA 
HETATM    4  P   UNL     1     -10.494  10.025  67.517  1.00  0.00    -0.275 P  
HETATM    5  O   UNL     1     -11.493   9.897  68.840  1.00  0.00    -0.080 OA 
HETATM    6  S   UNL     1     -10.391   7.923  67.257  1.00  0.00    -0.325 SA 
HETATM    7  O   UNL     1      -9.046   9.944  68.012  1.00  0.00    -0.122 OA 
BRANCH   5   8
HETATM    8  C   UNL     1     -10.918  10.078  70.132  1.00  0.00    -0.310 C  
HETATM    9  C   UNL     1     -12.013   9.981  71.182  1.00  0.00    -0.484 C  
ENDBRANCH   5   8
BRANCH   6  10
HETATM   10  C   UNL     1     -10.703   7.109  68.833  1.00  0.00    -0.175 C  
BRANCH  10  11
HETATM   11  C   UNL     1      -9.920   5.799  68.951  1.00  0.00    -0.161 C  
BRANCH  11  12
HETATM   12  N   UNL     1      -9.180   5.648  70.311  1.00  0.00    -0.148 N  
HETATM   13  C   UNL     1     -10.134   5.228  71.429  1.00  0.00    -0.203 C  
HETATM   14  C   UNL     1      -8.591   7.014  70.674  1.00  0.00    -0.147 C  
HETATM   15  C   UNL     1      -8.035   4.644  70.213  1.00  0.00    -0.064 C  
ENDBRANCH  11  12
ENDBRANCH  10  11
ENDBRANCH   6  10
ENDBRANCH   2   3
TORSDOF 5
ENDMDL
MODEL      132
REMARK 921   NORMALIZED FREE ENERGY PREDICTED BY IDOCK:   -2.40 KCAL/MOL
REMARK 922        TOTAL FREE ENERGY PREDICTED BY IDOCK:   -3.35 KCAL/MOL
REMARK 923 INTER-LIGAND FREE ENERGY PREDICTED BY IDOCK:   -3.16 KCAL/MOL
REMARK 924 INTRA-LIGAND FREE ENERGY PREDICTED BY IDOCK:   -0.18 KCAL/MOL
REMARK 927      BINDING AFFINITY PREDICTED BY RF-SCORE:    0.00 PKD
ROOT
HETATM    1  C   UNL     1     -10.475   8.699  67.225  1.00  0.00    -0.360 C  
HETATM    2  C   UNL     1     -10.638   9.955  66.395  1.00  0.00    -0.056 C  
ENDROOT
BRANCH   2   3
HETATM    3  O   UNL     1     -10.777  11.041  67.294  1.00  0.00    -0.233 OA 
HETATM    4  P   UNL     1      -9.347  11.909  67.738  1.00  0.00    -0.197 P  
HETATM    5  O   UNL     1     -10.349  13.014  68.475  1.00  0.00    -0.250 OA 
HETATM    6  S   UNL     1      -7.596  12.973  68.282  1.00  0.00    -0.143 SA 
HETATM    7  O   UNL     1      -9.087  12.392  66.308  1.00  0.00    -0.194 OA 
BRANCH   5   8
HETATM    8  C   UNL     1     -11.036  13.950  67.648  1.00  0.00    -0.264 C  
HETATM    9  C   UNL     1     -11.973  14.780  68.509  1.00  0.00    -0.284 C  
ENDBRANCH   5   8
BRANCH   6  10
HETATM   10  C   UNL     1      -8.001  14.711  68.520  1.00  0.00    -0.136 C  
BRANCH  10  11
HETATM   11  C   UNL     1      -7.988  15.476  67.194  1.00  0.00    -0.221 C  
BRANCH  11  12
HETATM   12  N   UNL     1      -7.274  16.855  67.288  1.00  0.00    -0.153 N  
HETATM   13  C   UNL     1      -7.332  17.424  68.706  1.00  0.00    -0.257 C  
HETATM   14  C   UNL     1      -8.007  17.822  66.355  1.00  0.00    -0.271 C  
HETATM   15  C   UNL     1      -5.821  16.762  66.835  1.00  0.00    -0.146 C  
ENDBRANCH  11  12
ENDBRANCH  10  11
ENDBRANCH   6  10
ENDBRANCH   2   3
TORSDOF 5
ENDMDL
MODEL      133
REMARK 921   NORMALIZED FREE ENERGY PREDICTED BY IDOCK:   -2.39 KCAL/MOL
REMARK 922        TOTAL FREE ENERGY PREDICTED BY IDOCK:   -3.34 KCAL/MOL
REMARK 923 INTER-LIGAND FREE ENERGY PREDICTED BY IDOCK:   -2.97 KCAL/MOL
REMARK 924 INTRA-LIGAND FREE ENERGY PREDICTED BY IDOCK:   -0.36 KCAL/MOL
REMARK 927      BINDING AFFINITY PREDICTED BY RF-SCORE:    0.00 PKD
ROOT
HETATM    1  C   UNL     1      -6.806   4.523  67.788  1.00  0.00    -0.055 C  
HETATM    2  C   UNL     1      -7.136   5.029  69.176  1.00  0.00    -0.056 C  
ENDROOT
BRANCH   2   3
HETATM    3  O   UNL     1      -8.438   5.586  69.125  1.00  0.00    -0.103 OA 
HETATM    4  P   UNL     1      -8.707   7.090  69.937  1.00  0.00    -0.141 P  
HETATM    5  O   UNL     1     -10.203   7.118  69.211  1.00  0.00    -0.179 OA 
HETATM    6  S   UNL     1      -9.035   8.933  70.931  1.00  0.00    -0.239 SA 
HETATM    7  O   UNL     1      -7.732   7.854  69.035  1.00  0.00    -0.097 OA 
BRANCH   5   8
HETATM    8  C   UNL     1     -10.272   7.491  67.836  1.00  0.00    -0.194 C  
HETATM    9  C   UNL     1     -11.097   6.461  67.083  1.00  0.00    -0.422 C  
ENDBRANCH   5   8
BRANCH   6  10
HETATM   10  C   UNL     1     -10.243   9.903  70.012  1.00  0.00    -0.271 C  
BRANCH  10  11
HETATM   11  C   UNL     1      -9.561  10.902  69.074  1.00  0.00    -0.156 C  
BRANCH  11  12
HETATM   12  N   UNL     1     -10.554  11.908  68.423  1.00  0.00    -0.211 N  
HETATM   13  C   UNL     1     -11.775  12.148  69.311  1.00  0.00    -0.328 C  
HETATM   14  C   UNL     1     -11.035  11.298  67.103  1.00  0.00    -0.291 C  
HETATM   15  C   UNL     1      -9.876  13.239  68.116  1.00  0.00    -0.231 C  
ENDBRANCH  11  12
ENDBRANCH  10  11
ENDBRANCH   6  10
ENDBRANCH   2   3
TORSDOF 5
ENDMDL
MODEL      134
REMARK 921   NORMALIZED FREE ENERGY PREDICTED BY IDOCK:   -2.39 KCAL/MOL
REMARK 922        TOTAL FREE ENERGY PREDICTED BY IDOCK:   -3.34 KCAL/MOL
REMARK 923 INTER-LIGAND FREE ENERGY PREDICTED BY IDOCK:   -3.16 KCAL/MOL
REMARK 924 INTRA-LIGAND FREE ENERGY PREDICTED BY IDOCK:   -0.18 KCAL/MOL
REMARK 927      BINDING AFFINITY PREDICTED BY RF-SCORE:    0.00 PKD
ROOT
HETATM    1  C   UNL     1     -10.609   5.567  70.455  1.00  0.00    -0.350 C  
HETATM    2  C   UNL     1     -11.803   6.495  70.529  1.00  0.00    -0.328 C  
ENDROOT
BRANCH   2   3
HETATM    3  O   UNL     1     -11.309   7.801  70.772  1.00  0.00    -0.276 OA 
HETATM    4  P   UNL     1      -9.964   8.345  69.831  1.00  0.00    -0.198 P  
HETATM    5  O   UNL     1     -10.217   9.850  70.492  1.00  0.00    -0.278 OA 
HETATM    6  S   UNL     1      -8.314   9.010  68.677  1.00  0.00    -0.124 SA 
HETATM    7  O   UNL     1     -10.741   8.273  68.513  1.00  0.00    -0.142 OA 
BRANCH   5   8
HETATM    8  C   UNL     1     -11.291  10.633  69.978  1.00  0.00    -0.324 C  
HETATM    9  C   UNL     1     -12.272  10.930  71.100  1.00  0.00    -0.441 C  
ENDBRANCH   5   8
BRANCH   6  10
HETATM   10  C   UNL     1      -8.470  10.779  68.375  1.00  0.00    -0.137 C  
BRANCH  10  11
HETATM   11  C   UNL     1      -7.320  11.560  69.017  1.00  0.00    -0.094 C  
BRANCH  11  12
HETATM   12  N   UNL     1      -6.764  12.691  68.104  1.00  0.00    -0.072 N  
HETATM   13  C   UNL     1      -7.889  13.512  67.473  1.00  0.00    -0.178 C  
HETATM   14  C   UNL     1      -5.965  12.029  66.978  1.00  0.00    -0.135 C  
HETATM   15  C   UNL     1      -5.827  13.617  68.875  1.00  0.00    -0.083 C  
ENDBRANCH  11  12
ENDBRANCH  10  11
ENDBRANCH   6  10
ENDBRANCH   2   3
TORSDOF 5
ENDMDL
MODEL      135
REMARK 921   NORMALIZED FREE ENERGY PREDICTED BY IDOCK:   -2.38 KCAL/MOL
REMARK 922        TOTAL FREE ENERGY PREDICTED BY IDOCK:   -3.33 KCAL/MOL
REMARK 923 INTER-LIGAND FREE ENERGY PREDICTED BY IDOCK:   -2.98 KCAL/MOL
REMARK 924 INTRA-LIGAND FREE ENERGY PREDICTED BY IDOCK:   -0.35 KCAL/MOL
REMARK 927      BINDING AFFINITY PREDICTED BY RF-SCORE:    0.00 PKD
ROOT
HETATM    1  C   UNL     1     -10.263   6.757  73.739  1.00  0.00    -0.378 C  
HETATM    2  C   UNL     1     -11.113   7.788  73.029  1.00  0.00    -0.359 C  
ENDROOT
BRANCH   2   3
HETATM    3  O   UNL     1     -10.436   8.146  71.836  1.00  0.00    -0.216 OA 
HETATM    4  P   UNL     1     -10.466   7.023  70.521  1.00  0.00    -0.218 P  
HETATM    5  O   UNL     1      -9.775   8.219  69.594  1.00  0.00    -0.171 OA 
HETATM    6  S   UNL     1     -10.503   5.647  68.909  1.00  0.00    -0.226 SA 
HETATM    7  O   UNL     1     -11.986   7.119  70.356  1.00  0.00    -0.244 OA 
BRANCH   5   8
HETATM    8  C   UNL     1     -10.616   9.270  69.124  1.00  0.00    -0.212 C  
HETATM    9  C   UNL     1      -9.904  10.599  69.313  1.00  0.00    -0.201 C  
ENDBRANCH   5   8
BRANCH   6  10
HETATM   10  C   UNL     1     -10.535   6.549  67.351  1.00  0.00    -0.252 C  
BRANCH  10  11
HETATM   11  C   UNL     1      -9.663   5.870  66.292  1.00  0.00    -0.096 C  
BRANCH  11  12
HETATM   12  N   UNL     1      -8.225   6.460  66.212  1.00  0.00    -0.114 N  
HETATM   13  C   UNL     1      -8.226   7.976  66.408  1.00  0.00    -0.113 C  
HETATM   14  C   UNL     1      -7.676   6.158  64.815  1.00  0.00    -0.099 C  
HETATM   15  C   UNL     1      -7.300   5.813  67.239  1.00  0.00    -0.077 C  
ENDBRANCH  11  12
ENDBRANCH  10  11
ENDBRANCH   6  10
ENDBRANCH   2   3
TORSDOF 5
ENDMDL
MODEL      136
REMARK 921   NORMALIZED FREE ENERGY PREDICTED BY IDOCK:   -2.36 KCAL/MOL
REMARK 922        TOTAL FREE ENERGY PREDICTED BY IDOCK:   -3.29 KCAL/MOL
REMARK 923 INTER-LIGAND FREE ENERGY PREDICTED BY IDOCK:   -3.02 KCAL/MOL
REMARK 924 INTRA-LIGAND FREE ENERGY PREDICTED BY IDOCK:   -0.27 KCAL/MOL
REMARK 927      BINDING AFFINITY PREDICTED BY RF-SCORE:    0.00 PKD
ROOT
HETATM    1  C   UNL     1     -10.777  12.735  64.130  1.00  0.00    -0.441 C  
HETATM    2  C   UNL     1     -10.687  11.297  64.595  1.00  0.00    -0.303 C  
ENDROOT
BRANCH   2   3
HETATM    3  O   UNL     1     -10.485  11.319  65.998  1.00  0.00    -0.245 OA 
HETATM    4  P   UNL     1     -10.437   9.803  66.830  1.00  0.00    -0.134 P  
HETATM    5  O   UNL     1      -9.948  10.652  68.174  1.00  0.00    -0.153 OA 
HETATM    6  S   UNL     1     -10.378   7.945  67.850  1.00  0.00    -0.209 SA 
HETATM    7  O   UNL     1      -9.182   9.332  66.088  1.00  0.00    -0.166 OA 
BRANCH   5   8
HETATM    8  C   UNL     1      -8.590  11.082  68.235  1.00  0.00    -0.143 C  
HETATM    9  C   UNL     1      -8.553  12.597  68.349  1.00  0.00    -0.122 C  
ENDBRANCH   5   8
BRANCH   6  10
HETATM   10  C   UNL     1      -9.215   8.051  69.221  1.00  0.00    -0.152 C  
BRANCH  10  11
HETATM   11  C   UNL     1      -9.553   7.042  70.321  1.00  0.00    -0.168 C  
BRANCH  11  12
HETATM   12  N   UNL     1      -9.860   7.711  71.693  1.00  0.00    -0.161 N  
HETATM   13  C   UNL     1     -11.326   7.537  72.089  1.00  0.00    -0.283 C  
HETATM   14  C   UNL     1      -9.576   9.209  71.553  1.00  0.00    -0.208 C  
HETATM   15  C   UNL     1      -8.964   7.155  72.795  1.00  0.00    -0.133 C  
ENDBRANCH  11  12
ENDBRANCH  10  11
ENDBRANCH   6  10
ENDBRANCH   2   3
TORSDOF 5
ENDMDL
MODEL      137
REMARK 921   NORMALIZED FREE ENERGY PREDICTED BY IDOCK:   -2.35 KCAL/MOL
REMARK 922        TOTAL FREE ENERGY PREDICTED BY IDOCK:   -3.28 KCAL/MOL
REMARK 923 INTER-LIGAND FREE ENERGY PREDICTED BY IDOCK:   -2.93 KCAL/MOL
REMARK 924 INTRA-LIGAND FREE ENERGY PREDICTED BY IDOCK:   -0.35 KCAL/MOL
REMARK 927      BINDING AFFINITY PREDICTED BY RF-SCORE:    0.00 PKD
ROOT
HETATM    1  C   UNL     1     -10.601   5.148  72.719  1.00  0.00    -0.278 C  
HETATM    2  C   UNL     1     -11.699   6.136  72.388  1.00  0.00    -0.272 C  
ENDROOT
BRANCH   2   3
HETATM    3  O   UNL     1     -11.106   7.200  71.664  1.00  0.00    -0.231 OA 
HETATM    4  P   UNL     1     -10.420   6.842  70.116  1.00  0.00    -0.227 P  
HETATM    5  O   UNL     1     -10.246   8.483  69.908  1.00  0.00    -0.194 OA 
HETATM    6  S   UNL     1      -9.580   6.403  68.220  1.00  0.00    -0.123 SA 
HETATM    7  O   UNL     1     -11.768   6.432  69.513  1.00  0.00    -0.366 OA 
BRANCH   5   8
HETATM    8  C   UNL     1     -11.404   9.241  69.566  1.00  0.00     0.103 C  
HETATM    9  C   UNL     1     -11.291  10.626  70.179  1.00  0.00    -0.402 C  
ENDBRANCH   5   8
BRANCH   6  10
HETATM   10  C   UNL     1      -9.808   7.812  67.123  1.00  0.00    -0.206 C  
BRANCH  10  11
HETATM   11  C   UNL     1      -8.528   8.644  67.005  1.00  0.00    -0.110 C  
BRANCH  11  12
HETATM   12  N   UNL     1      -8.789  10.108  66.548  1.00  0.00    -0.139 N  
HETATM   13  C   UNL     1      -8.145  10.399  65.192  1.00  0.00    -0.145 C  
HETATM   14  C   UNL     1      -8.156  11.039  67.587  1.00  0.00    -0.116 C  
HETATM   15  C   UNL     1     -10.282  10.413  66.480  1.00  0.00    -0.229 C  
ENDBRANCH  11  12
ENDBRANCH  10  11
ENDBRANCH   6  10
ENDBRANCH   2   3
TORSDOF 5
ENDMDL
MODEL      138
REMARK 921   NORMALIZED FREE ENERGY PREDICTED BY IDOCK:   -2.32 KCAL/MOL
REMARK 922        TOTAL FREE ENERGY PREDICTED BY IDOCK:   -3.24 KCAL/MOL
REMARK 923 INTER-LIGAND FREE ENERGY PREDICTED BY IDOCK:   -3.24 KCAL/MOL
REMARK 924 INTRA-LIGAND FREE ENERGY PREDICTED BY IDOCK:    0.00 KCAL/MOL
REMARK 927      BINDING AFFINITY PREDICTED BY RF-SCORE:    0.00 PKD
ROOT
HETATM    1  C   UNL     1     -12.148  13.746  70.983  1.00  0.00    -0.324 C  
HETATM    2  C   UNL     1     -12.748  14.200  69.670  1.00  0.00     0.132 C  
ENDROOT
BRANCH   2   3
HETATM    3  O   UNL     1     -11.810  13.901  68.650  1.00  0.00    -0.335 OA 
HETATM    4  P   UNL     1     -11.091  15.225  67.800  1.00  0.00    -0.311 P  
HETATM    5  O   UNL     1     -10.070  14.113  67.103  1.00  0.00    -0.253 OA 
HETATM    6  S   UNL     1     -10.210  16.847  66.758  1.00  0.00    -0.302 SA 
HETATM    7  O   UNL     1     -10.404  15.774  69.054  1.00  0.00    -0.202 OA 
BRANCH   5   8
HETATM    8  C   UNL     1      -8.984  13.620  67.885  1.00  0.00    -0.195 C  
HETATM    9  C   UNL     1      -8.005  12.897  66.976  1.00  0.00    -0.031 C  
ENDBRANCH   5   8
BRANCH   6  10
HETATM   10  C   UNL     1      -8.513  16.429  66.324  1.00  0.00    -0.337 C  
BRANCH  10  11
HETATM   11  C   UNL     1      -7.537  16.829  67.433  1.00  0.00    -0.163 C  
BRANCH  11  12
HETATM   12  N   UNL     1      -7.064  18.308  67.329  1.00  0.00    -0.197 N  
HETATM   13  C   UNL     1      -7.718  19.028  66.150  1.00  0.00    -0.271 C  
HETATM   14  C   UNL     1      -5.550  18.296  67.101  1.00  0.00    -0.134 C  
HETATM   15  C   UNL     1      -7.348  19.075  68.617  1.00  0.00    -0.318 C  
ENDBRANCH  11  12
ENDBRANCH  10  11
ENDBRANCH   6  10
ENDBRANCH   2   3
TORSDOF 5
ENDMDL
MODEL      139
REMARK 921   NORMALIZED FREE ENERGY PREDICTED BY IDOCK:   -2.31 KCAL/MOL
REMARK 922        TOTAL FREE ENERGY PREDICTED BY IDOCK:   -3.23 KCAL/MOL
REMARK 923 INTER-LIGAND FREE ENERGY PREDICTED BY IDOCK:   -2.86 KCAL/MOL
REMARK 924 INTRA-LIGAND FREE ENERGY PREDICTED BY IDOCK:   -0.38 KCAL/MOL
REMARK 927      BINDING AFFINITY PREDICTED BY RF-SCORE:    0.00 PKD
ROOT
HETATM    1  C   UNL     1      -6.608  14.587  69.227  1.00  0.00    -0.125 C  
HETATM    2  C   UNL     1      -6.828  13.588  68.111  1.00  0.00    -0.119 C  
ENDROOT
BRANCH   2   3
HETATM    3  O   UNL     1      -7.874  12.723  68.518  1.00  0.00    -0.134 OA 
HETATM    4  P   UNL     1      -8.674  11.793  67.298  1.00  0.00    -0.177 P  
HETATM    5  O   UNL     1      -9.436  10.983  68.534  1.00  0.00    -0.174 OA 
HETATM    6  S   UNL     1      -9.654  10.653  65.803  1.00  0.00    -0.225 SA 
HETATM    7  O   UNL     1      -7.407  11.013  66.934  1.00  0.00    -0.118 OA 
BRANCH   5   8
HETATM    8  C   UNL     1      -8.693   9.992  69.242  1.00  0.00    -0.177 C  
HETATM    9  C   UNL     1      -9.531   9.476  70.400  1.00  0.00    -0.317 C  
ENDBRANCH   5   8
BRANCH   6  10
HETATM   10  C   UNL     1     -10.132   9.057  66.484  1.00  0.00    -0.283 C  
BRANCH  10  11
HETATM   11  C   UNL     1      -9.108   7.972  66.140  1.00  0.00    -0.176 C  
BRANCH  11  12
HETATM   12  N   UNL     1      -9.437   6.593  66.783  1.00  0.00    -0.156 N  
HETATM   13  C   UNL     1      -9.126   5.439  65.830  1.00  0.00    -0.154 C  
HETATM   14  C   UNL     1     -10.937   6.569  67.089  1.00  0.00    -0.408 C  
HETATM   15  C   UNL     1      -8.678   6.393  68.091  1.00  0.00    -0.116 C  
ENDBRANCH  11  12
ENDBRANCH  10  11
ENDBRANCH   6  10
ENDBRANCH   2   3
TORSDOF 5
ENDMDL
MODEL      140
REMARK 921   NORMALIZED FREE ENERGY PREDICTED BY IDOCK:   -2.28 KCAL/MOL
REMARK 922        TOTAL FREE ENERGY PREDICTED BY IDOCK:   -3.20 KCAL/MOL
REMARK 923 INTER-LIGAND FREE ENERGY PREDICTED BY IDOCK:   -2.94 KCAL/MOL
REMARK 924 INTRA-LIGAND FREE ENERGY PREDICTED BY IDOCK:   -0.26 KCAL/MOL
REMARK 927      BINDING AFFINITY PREDICTED BY RF-SCORE:    0.00 PKD
ROOT
HETATM    1  C   UNL     1     -12.109  14.575  65.044  1.00  0.00    -0.390 C  
HETATM    2  C   UNL     1     -11.949  13.267  64.299  1.00  0.00    -0.421 C  
ENDROOT
BRANCH   2   3
HETATM    3  O   UNL     1     -11.906  12.232  65.266  1.00  0.00    -0.376 OA 
HETATM    4  P   UNL     1     -10.573  11.131  65.212  1.00  0.00    -0.152 P  
HETATM    5  O   UNL     1     -11.116  10.533  66.665  1.00  0.00    -0.111 OA 
HETATM    6  S   UNL     1      -8.940   9.781  65.145  1.00  0.00    -0.213 SA 
HETATM    7  O   UNL     1      -9.541  12.223  65.509  1.00  0.00    -0.205 OA 
BRANCH   5   8
HETATM    8  C   UNL     1     -10.845  11.289  67.843  1.00  0.00    -0.228 C  
HETATM    9  C   UNL     1     -11.254  10.478  69.061  1.00  0.00    -0.316 C  
ENDBRANCH   5   8
BRANCH   6  10
HETATM   10  C   UNL     1      -8.509   9.278  66.819  1.00  0.00    -0.127 C  
BRANCH  10  11
HETATM   11  C   UNL     1      -8.145   7.792  66.882  1.00  0.00    -0.116 C  
BRANCH  11  12
HETATM   12  N   UNL     1      -7.250   7.432  68.103  1.00  0.00    -0.088 N  
HETATM   13  C   UNL     1      -7.272   8.533  69.163  1.00  0.00    -0.068 C  
HETATM   14  C   UNL     1      -5.812   7.284  67.597  1.00  0.00    -0.030 C  
HETATM   15  C   UNL     1      -7.674   6.108  68.732  1.00  0.00    -0.096 C  
ENDBRANCH  11  12
ENDBRANCH  10  11
ENDBRANCH   6  10
ENDBRANCH   2   3
TORSDOF 5
ENDMDL
MODEL      141
REMARK 921   NORMALIZED FREE ENERGY PREDICTED BY IDOCK:   -2.27 KCAL/MOL
REMARK 922        TOTAL FREE ENERGY PREDICTED BY IDOCK:   -3.18 KCAL/MOL
REMARK 923 INTER-LIGAND FREE ENERGY PREDICTED BY IDOCK:   -2.86 KCAL/MOL
REMARK 924 INTRA-LIGAND FREE ENERGY PREDICTED BY IDOCK:   -0.32 KCAL/MOL
REMARK 927      BINDING AFFINITY PREDICTED BY RF-SCORE:    0.00 PKD
ROOT
HETATM    1  C   UNL     1     -13.851   9.250  71.876  1.00  0.00    -0.414 C  
HETATM    2  C   UNL     1     -12.581  10.052  71.684  1.00  0.00    -0.427 C  
ENDROOT
BRANCH   2   3
HETATM    3  O   UNL     1     -11.495   9.143  71.738  1.00  0.00    -0.347 OA 
HETATM    4  P   UNL     1     -10.903   8.501  70.245  1.00  0.00    -0.205 P  
HETATM    5  O   UNL     1      -9.642   7.858  71.118  1.00  0.00    -0.157 OA 
HETATM    6  S   UNL     1     -10.178   7.714  68.415  1.00  0.00    -0.199 SA 
HETATM    7  O   UNL     1     -10.464   9.873  69.724  1.00  0.00    -0.224 OA 
BRANCH   5   8
HETATM    8  C   UNL     1      -8.591   8.734  71.517  1.00  0.00    -0.186 C  
HETATM    9  C   UNL     1      -8.040   8.272  72.856  1.00  0.00    -0.211 C  
ENDBRANCH   5   8
BRANCH   6  10
HETATM   10  C   UNL     1      -8.397   7.473  68.530  1.00  0.00    -0.126 C  
BRANCH  10  11
HETATM   11  C   UNL     1      -7.730   7.568  67.155  1.00  0.00    -0.112 C  
BRANCH  11  12
HETATM   12  N   UNL     1      -6.669   8.703  67.066  1.00  0.00    -0.062 N  
HETATM   13  C   UNL     1      -5.255   8.173  67.303  1.00  0.00    -0.032 C  
HETATM   14  C   UNL     1      -6.988   9.723  68.162  1.00  0.00    -0.077 C  
HETATM   15  C   UNL     1      -6.728   9.415  65.718  1.00  0.00    -0.077 C  
ENDBRANCH  11  12
ENDBRANCH  10  11
ENDBRANCH   6  10
ENDBRANCH   2   3
TORSDOF 5
ENDMDL
MODEL      142
REMARK 921   NORMALIZED FREE ENERGY PREDICTED BY IDOCK:   -2.26 KCAL/MOL
REMARK 922        TOTAL FREE ENERGY PREDICTED BY IDOCK:   -3.16 KCAL/MOL
REMARK 923 INTER-LIGAND FREE ENERGY PREDICTED BY IDOCK:   -2.91 KCAL/MOL
REMARK 924 INTRA-LIGAND FREE ENERGY PREDICTED BY IDOCK:   -0.25 KCAL/MOL
REMARK 927      BINDING AFFINITY PREDICTED BY RF-SCORE:    0.00 PKD
ROOT
HETATM    1  C   UNL     1      -5.542   9.101  69.420  1.00  0.00    -0.035 C  
HETATM    2  C   UNL     1      -5.410   9.676  68.026  1.00  0.00    -0.040 C  
ENDROOT
BRANCH   2   3
HETATM    3  O   UNL     1      -6.639   9.450  67.358  1.00  0.00    -0.063 OA 
HETATM    4  P   UNL     1      -7.931  10.565  67.643  1.00  0.00    -0.106 P  
HETATM    5  O   UNL     1      -8.750   9.799  66.415  1.00  0.00    -0.129 OA 
HETATM    6  S   UNL     1      -9.514  11.931  67.992  1.00  0.00    -0.202 SA 
HETATM    7  O   UNL     1      -7.167  11.745  67.034  1.00  0.00    -0.140 OA 
BRANCH   5   8
HETATM    8  C   UNL     1      -8.374  10.097  65.072  1.00  0.00    -0.155 C  
HETATM    9  C   UNL     1      -7.944   8.814  64.380  1.00  0.00    -0.144 C  
ENDBRANCH   5   8
BRANCH   6  10
HETATM   10  C   UNL     1     -10.487  12.118  66.488  1.00  0.00    -0.225 C  
BRANCH  10  11
HETATM   11  C   UNL     1     -10.087  13.378  65.716  1.00  0.00    -0.288 C  
BRANCH  11  12
HETATM   12  N   UNL     1     -10.934  14.626  66.099  1.00  0.00    -0.323 N  
HETATM   13  C   UNL     1     -10.296  15.410  67.246  1.00  0.00    -0.271 C  
HETATM   14  C   UNL     1     -12.307  14.131  66.564  1.00  0.00    -0.372 C  
HETATM   15  C   UNL     1     -11.139  15.548  64.901  1.00  0.00    -0.416 C  
ENDBRANCH  11  12
ENDBRANCH  10  11
ENDBRANCH   6  10
ENDBRANCH   2   3
TORSDOF 5
ENDMDL
MODEL      143
REMARK 921   NORMALIZED FREE ENERGY PREDICTED BY IDOCK:   -2.25 KCAL/MOL
REMARK 922        TOTAL FREE ENERGY PREDICTED BY IDOCK:   -3.15 KCAL/MOL
REMARK 923 INTER-LIGAND FREE ENERGY PREDICTED BY IDOCK:   -2.85 KCAL/MOL
REMARK 924 INTRA-LIGAND FREE ENERGY PREDICTED BY IDOCK:   -0.31 KCAL/MOL
REMARK 927      BINDING AFFINITY PREDICTED BY RF-SCORE:    0.00 PKD
ROOT
HETATM    1  C   UNL     1      -7.618   4.593  65.672  1.00  0.00    -0.082 C  
HETATM    2  C   UNL     1      -6.688   5.443  66.512  1.00  0.00    -0.057 C  
ENDROOT
BRANCH   2   3
HETATM    3  O   UNL     1      -7.483   6.409  67.178  1.00  0.00    -0.082 OA 
HETATM    4  P   UNL     1      -8.741   5.840  68.220  1.00  0.00    -0.109 P  
HETATM    5  O   UNL     1      -8.928   7.417  68.715  1.00  0.00    -0.130 OA 
HETATM    6  S   UNL     1     -10.283   5.143  69.497  1.00  0.00    -0.218 SA 
HETATM    7  O   UNL     1      -7.761   5.159  69.180  1.00  0.00    -0.078 OA 
BRANCH   5   8
HETATM    8  C   UNL     1      -7.977   7.945  69.637  1.00  0.00    -0.118 C  
HETATM    9  C   UNL     1      -7.616   9.362  69.221  1.00  0.00    -0.081 C  
ENDBRANCH   5   8
BRANCH   6  10
HETATM   10  C   UNL     1     -10.463   6.271  70.890  1.00  0.00    -0.223 C  
BRANCH  10  11
HETATM   11  C   UNL     1     -11.584   7.285  70.648  1.00  0.00    -0.290 C  
BRANCH  11  12
HETATM   12  N   UNL     1     -11.690   8.360  71.769  1.00  0.00    -0.289 N  
HETATM   13  C   UNL     1     -11.049   9.682  71.345  1.00  0.00    -0.326 C  
HETATM   14  C   UNL     1     -10.933   7.832  72.991  1.00  0.00    -0.381 C  
HETATM   15  C   UNL     1     -13.141   8.602  72.172  1.00  0.00    -0.383 C  
ENDBRANCH  11  12
ENDBRANCH  10  11
ENDBRANCH   6  10
ENDBRANCH   2   3
TORSDOF 5
ENDMDL
MODEL      144
REMARK 921   NORMALIZED FREE ENERGY PREDICTED BY IDOCK:   -2.22 KCAL/MOL
REMARK 922        TOTAL FREE ENERGY PREDICTED BY IDOCK:   -3.12 KCAL/MOL
REMARK 923 INTER-LIGAND FREE ENERGY PREDICTED BY IDOCK:   -2.75 KCAL/MOL
REMARK 924 INTRA-LIGAND FREE ENERGY PREDICTED BY IDOCK:   -0.37 KCAL/MOL
REMARK 927      BINDING AFFINITY PREDICTED BY RF-SCORE:    0.00 PKD
ROOT
HETATM    1  C   UNL     1      -9.596   2.993  64.369  1.00  0.00    -0.150 C  
HETATM    2  C   UNL     1      -8.647   2.993  65.549  1.00  0.00    -0.114 C  
ENDROOT
BRANCH   2   3
HETATM    3  O   UNL     1      -8.318   4.344  65.827  1.00  0.00    -0.112 OA 
HETATM    4  P   UNL     1      -9.524   5.332  66.577  1.00  0.00    -0.171 P  
HETATM    5  O   UNL     1      -8.342   6.488  66.758  1.00  0.00    -0.109 OA 
HETATM    6  S   UNL     1     -11.001   6.543  67.496  1.00  0.00    -0.323 SA 
HETATM    7  O   UNL     1      -9.552   4.485  67.853  1.00  0.00    -0.150 OA 
BRANCH   5   8
HETATM    8  C   UNL     1      -7.390   6.313  67.804  1.00  0.00    -0.084 C  
HETATM    9  C   UNL     1      -6.250   7.299  67.609  1.00  0.00    -0.046 C  
ENDBRANCH   5   8
BRANCH   6  10
HETATM   10  C   UNL     1     -10.207   7.720  68.603  1.00  0.00    -0.201 C  
BRANCH  10  11
HETATM   11  C   UNL     1     -10.352   7.298  70.067  1.00  0.00    -0.213 C  
BRANCH  11  12
HETATM   12  N   UNL     1     -11.054   8.372  70.948  1.00  0.00    -0.249 N  
HETATM   13  C   UNL     1     -12.488   7.969  71.294  1.00  0.00    -0.253 C  
HETATM   14  C   UNL     1     -11.105   9.673  70.141  1.00  0.00    -0.269 C  
HETATM   15  C   UNL     1     -10.274   8.636  72.232  1.00  0.00    -0.301 C  
ENDBRANCH  11  12
ENDBRANCH  10  11
ENDBRANCH   6  10
ENDBRANCH   2   3
TORSDOF 5
ENDMDL
MODEL      145
REMARK 921   NORMALIZED FREE ENERGY PREDICTED BY IDOCK:   -2.22 KCAL/MOL
REMARK 922        TOTAL FREE ENERGY PREDICTED BY IDOCK:   -3.12 KCAL/MOL
REMARK 923 INTER-LIGAND FREE ENERGY PREDICTED BY IDOCK:   -2.81 KCAL/MOL
REMARK 924 INTRA-LIGAND FREE ENERGY PREDICTED BY IDOCK:   -0.31 KCAL/MOL
REMARK 927      BINDING AFFINITY PREDICTED BY RF-SCORE:    0.00 PKD
ROOT
HETATM    1  C   UNL     1      -8.194   8.940  65.555  1.00  0.00    -0.130 C  
HETATM    2  C   UNL     1      -9.625   8.863  66.044  1.00  0.00    -0.250 C  
ENDROOT
BRANCH   2   3
HETATM    3  O   UNL     1      -9.602   9.035  67.451  1.00  0.00    -0.143 OA 
HETATM    4  P   UNL     1     -10.306   7.793  68.428  1.00  0.00    -0.137 P  
HETATM    5  O   UNL     1      -9.663   8.581  69.744  1.00  0.00    -0.176 OA 
HETATM    6  S   UNL     1     -11.169   6.272  69.626  1.00  0.00    -0.417 SA 
HETATM    7  O   UNL     1      -9.295   6.736  67.973  1.00  0.00    -0.121 OA 
BRANCH   5   8
HETATM    8  C   UNL     1      -8.269   8.425  70.001  1.00  0.00    -0.121 C  
HETATM    9  C   UNL     1      -7.657   9.790  70.269  1.00  0.00    -0.184 C  
ENDBRANCH   5   8
BRANCH   6  10
HETATM   10  C   UNL     1     -10.244   6.123  71.163  1.00  0.00    -0.198 C  
BRANCH  10  11
HETATM   11  C   UNL     1      -9.667   4.715  71.335  1.00  0.00    -0.179 C  
BRANCH  11  12
HETATM   12  N   UNL     1     -10.041   4.062  72.697  1.00  0.00    -0.158 N  
HETATM   13  C   UNL     1     -11.273   4.720  73.319  1.00  0.00    -0.340 C  
HETATM   14  C   UNL     1      -8.859   4.263  73.649  1.00  0.00    -0.093 C  
HETATM   15  C   UNL     1     -10.284   2.563  72.547  1.00  0.00    -0.159 C  
ENDBRANCH  11  12
ENDBRANCH  10  11
ENDBRANCH   6  10
ENDBRANCH   2   3
TORSDOF 5
ENDMDL
MODEL      146
REMARK 921   NORMALIZED FREE ENERGY PREDICTED BY IDOCK:   -2.22 KCAL/MOL
REMARK 922        TOTAL FREE ENERGY PREDICTED BY IDOCK:   -3.11 KCAL/MOL
REMARK 923 INTER-LIGAND FREE ENERGY PREDICTED BY IDOCK:   -2.83 KCAL/MOL
REMARK 924 INTRA-LIGAND FREE ENERGY PREDICTED BY IDOCK:   -0.28 KCAL/MOL
REMARK 927      BINDING AFFINITY PREDICTED BY RF-SCORE:    0.00 PKD
ROOT
HETATM    1  C   UNL     1      -9.364   3.462  68.923  1.00  0.00    -0.237 C  
HETATM    2  C   UNL     1      -8.580   4.756  68.884  1.00  0.00    -0.084 C  
ENDROOT
BRANCH   2   3
HETATM    3  O   UNL     1      -8.953   5.441  67.701  1.00  0.00    -0.110 OA 
HETATM    4  P   UNL     1      -9.651   7.016  67.865  1.00  0.00    -0.127 P  
HETATM    5  O   UNL     1      -9.523   7.153  66.213  1.00  0.00    -0.153 OA 
HETATM    6  S   UNL     1     -10.506   8.945  68.066  1.00  0.00    -0.177 SA 
HETATM    7  O   UNL     1      -8.383   7.612  68.486  1.00  0.00    -0.127 OA 
BRANCH   5   8
HETATM    8  C   UNL     1      -8.239   7.438  65.662  1.00  0.00    -0.137 C  
HETATM    9  C   UNL     1      -7.968   6.484  64.511  1.00  0.00    -0.110 C  
ENDBRANCH   5   8
BRANCH   6  10
HETATM   10  C   UNL     1      -9.999   9.973  66.677  1.00  0.00    -0.216 C  
BRANCH  10  11
HETATM   11  C   UNL     1      -9.525  11.352  67.144  1.00  0.00    -0.175 C  
BRANCH  11  12
HETATM   12  N   UNL     1     -10.475  12.506  66.709  1.00  0.00    -0.225 N  
HETATM   13  C   UNL     1      -9.703  13.796  66.430  1.00  0.00    -0.294 C  
HETATM   14  C   UNL     1     -11.446  12.769  67.863  1.00  0.00    -0.317 C  
HETATM   15  C   UNL     1     -11.289  12.121  65.478  1.00  0.00    -0.344 C  
ENDBRANCH  11  12
ENDBRANCH  10  11
ENDBRANCH   6  10
ENDBRANCH   2   3
TORSDOF 5
ENDMDL
MODEL      147
REMARK 921   NORMALIZED FREE ENERGY PREDICTED BY IDOCK:   -2.21 KCAL/MOL
REMARK 922        TOTAL FREE ENERGY PREDICTED BY IDOCK:   -3.11 KCAL/MOL
REMARK 923 INTER-LIGAND FREE ENERGY PREDICTED BY IDOCK:   -2.82 KCAL/MOL
REMARK 924 INTRA-LIGAND FREE ENERGY PREDICTED BY IDOCK:   -0.29 KCAL/MOL
REMARK 927      BINDING AFFINITY PREDICTED BY RF-SCORE:    0.00 PKD
ROOT
HETATM    1  C   UNL     1     -12.178  13.263  64.261  1.00  0.00    -0.454 C  
HETATM    2  C   UNL     1     -11.446  13.039  65.567  1.00  0.00    -0.321 C  
ENDROOT
BRANCH   2   3
HETATM    3  O   UNL     1     -10.306  12.246  65.283  1.00  0.00    -0.268 OA 
HETATM    4  P   UNL     1      -9.561  11.402  66.596  1.00  0.00    -0.202 P  
HETATM    5  O   UNL     1      -8.628  10.627  65.458  1.00  0.00    -0.178 OA 
HETATM    6  S   UNL     1      -8.648  10.367  68.206  1.00  0.00    -0.132 SA 
HETATM    7  O   UNL     1     -10.797  10.536  66.860  1.00  0.00    -0.250 OA 
BRANCH   5   8
HETATM    8  C   UNL     1      -9.226   9.571  64.710  1.00  0.00    -0.205 C  
HETATM    9  C   UNL     1      -8.232   9.070  63.676  1.00  0.00    -0.177 C  
ENDBRANCH   5   8
BRANCH   6  10
HETATM   10  C   UNL     1      -7.993   8.798  67.614  1.00  0.00    -0.106 C  
BRANCH  10  11
HETATM   11  C   UNL     1      -7.226   8.060  68.715  1.00  0.00    -0.083 C  
BRANCH  11  12
HETATM   12  N   UNL     1      -7.999   6.836  69.285  1.00  0.00    -0.114 N  
HETATM   13  C   UNL     1      -7.079   5.630  69.481  1.00  0.00    -0.064 C  
HETATM   14  C   UNL     1      -9.078   6.454  68.269  1.00  0.00    -0.114 C  
HETATM   15  C   UNL     1      -8.684   7.176  70.605  1.00  0.00    -0.148 C  
ENDBRANCH  11  12
ENDBRANCH  10  11
ENDBRANCH   6  10
ENDBRANCH   2   3
TORSDOF 5
ENDMDL
MODEL      148
REMARK 921   NORMALIZED FREE ENERGY PREDICTED BY IDOCK:   -2.21 KCAL/MOL
REMARK 922        TOTAL FREE ENERGY PREDICTED BY IDOCK:   -3.10 KCAL/MOL
REMARK 923 INTER-LIGAND FREE ENERGY PREDICTED BY IDOCK:   -2.76 KCAL/MOL
REMARK 924 INTRA-LIGAND FREE ENERGY PREDICTED BY IDOCK:   -0.35 KCAL/MOL
REMARK 927      BINDING AFFINITY PREDICTED BY RF-SCORE:    0.00 PKD
ROOT
HETATM    1  C   UNL     1     -10.206  11.865  64.401  1.00  0.00    -0.333 C  
HETATM    2  C   UNL     1      -9.451  10.577  64.652  1.00  0.00    -0.263 C  
ENDROOT
BRANCH   2   3
HETATM    3  O   UNL     1      -9.108  10.549  66.027  1.00  0.00    -0.159 OA 
HETATM    4  P   UNL     1      -9.834   9.330  67.017  1.00  0.00    -0.237 P  
HETATM    5  O   UNL     1      -8.791   9.806  68.221  1.00  0.00    -0.119 OA 
HETATM    6  S   UNL     1     -10.724   7.837  68.231  1.00  0.00     0.042 SA 
HETATM    7  O   UNL     1      -9.172   8.183  66.248  1.00  0.00    -0.177 OA 
BRANCH   5   8
HETATM    8  C   UNL     1      -7.435   9.373  68.141  1.00  0.00    -0.079 C  
HETATM    9  C   UNL     1      -6.679   9.875  69.360  1.00  0.00    -0.057 C  
ENDBRANCH   5   8
BRANCH   6  10
HETATM   10  C   UNL     1      -9.555   7.320  69.498  1.00  0.00    -0.155 C  
BRANCH  10  11
HETATM   11  C   UNL     1     -10.274   6.816  70.752  1.00  0.00    -0.195 C  
BRANCH  11  12
HETATM   12  N   UNL     1     -10.435   7.909  71.847  1.00  0.00    -0.218 N  
HETATM   13  C   UNL     1      -9.580   9.140  71.545  1.00  0.00    -0.208 C  
HETATM   14  C   UNL     1      -9.959   7.311  73.174  1.00  0.00    -0.249 C  
HETATM   15  C   UNL     1     -11.894   8.327  72.007  1.00  0.00    -0.347 C  
ENDBRANCH  11  12
ENDBRANCH  10  11
ENDBRANCH   6  10
ENDBRANCH   2   3
TORSDOF 5
ENDMDL
MODEL      149
REMARK 921   NORMALIZED FREE ENERGY PREDICTED BY IDOCK:   -2.19 KCAL/MOL
REMARK 922        TOTAL FREE ENERGY PREDICTED BY IDOCK:   -3.08 KCAL/MOL
REMARK 923 INTER-LIGAND FREE ENERGY PREDICTED BY IDOCK:   -3.04 KCAL/MOL
REMARK 924 INTRA-LIGAND FREE ENERGY PREDICTED BY IDOCK:   -0.04 KCAL/MOL
REMARK 927      BINDING AFFINITY PREDICTED BY RF-SCORE:    0.00 PKD
ROOT
HETATM    1  C   UNL     1      -5.128  10.178  69.182  1.00  0.00    -0.035 C  
HETATM    2  C   UNL     1      -5.633  10.858  67.928  1.00  0.00    -0.039 C  
ENDROOT
BRANCH   2   3
HETATM    3  O   UNL     1      -6.752  10.119  67.467  1.00  0.00    -0.070 OA 
HETATM    4  P   UNL     1      -7.665   9.224  68.633  1.00  0.00    -0.085 P  
HETATM    5  O   UNL     1      -8.778   8.952  67.427  1.00  0.00    -0.124 OA 
HETATM    6  S   UNL     1      -8.784   8.128  70.061  1.00  0.00    -0.131 SA 
HETATM    7  O   UNL     1      -8.095  10.482  69.395  1.00  0.00    -0.155 OA 
BRANCH   5   8
HETATM    8  C   UNL     1      -9.666  10.013  67.086  1.00  0.00    -0.174 C  
HETATM    9  C   UNL     1      -9.866  10.028  65.579  1.00  0.00    -0.373 C  
ENDBRANCH   5   8
BRANCH   6  10
HETATM   10  C   UNL     1     -10.522   8.130  69.591  1.00  0.00    -0.224 C  
BRANCH  10  11
HETATM   11  C   UNL     1     -11.361   8.973  70.554  1.00  0.00    -0.243 C  
BRANCH  11  12
HETATM   12  N   UNL     1     -12.081   8.125  71.643  1.00  0.00    -0.291 N  
HETATM   13  C   UNL     1     -11.199   7.926  72.876  1.00  0.00    -0.366 C  
HETATM   14  C   UNL     1     -12.377   6.750  71.040  1.00  0.00    -0.315 C  
HETATM   15  C   UNL     1     -13.404   8.760  72.058  1.00  0.00    -0.413 C  
ENDBRANCH  11  12
ENDBRANCH  10  11
ENDBRANCH   6  10
ENDBRANCH   2   3
TORSDOF 5
ENDMDL
MODEL      150
REMARK 921   NORMALIZED FREE ENERGY PREDICTED BY IDOCK:   -2.19 KCAL/MOL
REMARK 922        TOTAL FREE ENERGY PREDICTED BY IDOCK:   -3.08 KCAL/MOL
REMARK 923 INTER-LIGAND FREE ENERGY PREDICTED BY IDOCK:   -2.81 KCAL/MOL
REMARK 924 INTRA-LIGAND FREE ENERGY PREDICTED BY IDOCK:   -0.26 KCAL/MOL
REMARK 927      BINDING AFFINITY PREDICTED BY RF-SCORE:    0.00 PKD
ROOT
HETATM    1  C   UNL     1      -9.578  20.109  66.456  1.00  0.00    -0.529 C  
HETATM    2  C   UNL     1     -10.132  19.195  67.528  1.00  0.00    -0.376 C  
ENDROOT
BRANCH   2   3
HETATM    3  O   UNL     1      -9.160  18.192  67.772  1.00  0.00    -0.257 OA 
HETATM    4  P   UNL     1      -9.716  16.573  68.027  1.00  0.00    -0.247 P  
HETATM    5  O   UNL     1      -8.123  16.104  67.955  1.00  0.00    -0.144 OA 
HETATM    6  S   UNL     1     -10.398  14.590  68.339  1.00  0.00    -0.247 SA 
HETATM    7  O   UNL     1     -10.304  16.457  66.617  1.00  0.00    -0.285 OA 
BRANCH   5   8
HETATM    8  C   UNL     1      -7.507  16.022  66.672  1.00  0.00    -0.123 C  
HETATM    9  C   UNL     1      -6.380  17.039  66.595  1.00  0.00    -0.247 C  
ENDBRANCH   5   8
BRANCH   6  10
HETATM   10  C   UNL     1      -9.200  13.431  67.657  1.00  0.00    -0.212 C  
BRANCH  10  11
HETATM   11  C   UNL     1      -8.509  12.626  68.760  1.00  0.00     0.162 C  
BRANCH  11  12
HETATM   12  N   UNL     1      -7.386  11.691  68.225  1.00  0.00    -0.087 N  
HETATM   13  C   UNL     1      -6.724  12.265  66.973  1.00  0.00    -0.038 C  
HETATM   14  C   UNL     1      -8.034  10.354  67.853  1.00  0.00    -0.102 C  
HETATM   15  C   UNL     1      -6.326  11.429  69.289  1.00  0.00    -0.084 C  
ENDBRANCH  11  12
ENDBRANCH  10  11
ENDBRANCH   6  10
ENDBRANCH   2   3
TORSDOF 5
ENDMDL
MODEL      151
REMARK 921   NORMALIZED FREE ENERGY PREDICTED BY IDOCK:   -2.17 KCAL/MOL
REMARK 922        TOTAL FREE ENERGY PREDICTED BY IDOCK:   -3.05 KCAL/MOL
REMARK 923 INTER-LIGAND FREE ENERGY PREDICTED BY IDOCK:   -2.88 KCAL/MOL
REMARK 924 INTRA-LIGAND FREE ENERGY PREDICTED BY IDOCK:   -0.17 KCAL/MOL
REMARK 927      BINDING AFFINITY PREDICTED BY RF-SCORE:    0.00 PKD
ROOT
HETATM    1  C   UNL     1     -12.524  13.678  66.004  1.00  0.00    -0.477 C  
HETATM    2  C   UNL     1     -11.424  13.117  66.880  1.00  0.00    -0.341 C  
ENDROOT
BRANCH   2   3
HETATM    3  O   UNL     1     -10.462  12.525  66.024  1.00  0.00    -0.250 OA 
HETATM    4  P   UNL     1      -9.460  11.275  66.678  1.00  0.00    -0.196 P  
HETATM    5  O   UNL     1      -8.922  11.012  65.126  1.00  0.00    -0.197 OA 
HETATM    6  S   UNL     1      -8.231   9.744  67.478  1.00  0.00    -0.114 SA 
HETATM    7  O   UNL     1     -10.642  10.335  66.932  1.00  0.00    -0.245 OA 
BRANCH   5   8
HETATM    8  C   UNL     1      -9.773  10.293  64.237  1.00  0.00    -0.308 C  
HETATM    9  C   UNL     1     -10.172  11.203  63.087  1.00  0.00    -0.347 C  
ENDBRANCH   5   8
BRANCH   6  10
HETATM   10  C   UNL     1      -7.874   8.531  66.196  1.00  0.00    -0.098 C  
BRANCH  10  11
HETATM   11  C   UNL     1      -8.099   7.102  66.700  1.00  0.00    -0.109 C  
BRANCH  11  12
HETATM   12  N   UNL     1      -7.545   6.018  65.731  1.00  0.00    -0.081 N  
HETATM   13  C   UNL     1      -6.375   6.547  64.901  1.00  0.00    -0.041 C  
HETATM   14  C   UNL     1      -8.674   5.630  64.773  1.00  0.00    -0.000 C  
HETATM   15  C   UNL     1      -7.109   4.766  66.487  1.00  0.00    -0.075 C  
ENDBRANCH  11  12
ENDBRANCH  10  11
ENDBRANCH   6  10
ENDBRANCH   2   3
TORSDOF 5
ENDMDL
MODEL      152
REMARK 921   NORMALIZED FREE ENERGY PREDICTED BY IDOCK:   -2.13 KCAL/MOL
REMARK 922        TOTAL FREE ENERGY PREDICTED BY IDOCK:   -3.00 KCAL/MOL
REMARK 923 INTER-LIGAND FREE ENERGY PREDICTED BY IDOCK:   -2.70 KCAL/MOL
REMARK 924 INTRA-LIGAND FREE ENERGY PREDICTED BY IDOCK:   -0.30 KCAL/MOL
REMARK 927      BINDING AFFINITY PREDICTED BY RF-SCORE:    0.00 PKD
ROOT
HETATM    1  C   UNL     1      -5.998   9.932  63.548  1.00  0.00    -0.119 C  
HETATM    2  C   UNL     1      -7.500   9.783  63.437  1.00  0.00    -0.124 C  
ENDROOT
BRANCH   2   3
HETATM    3  O   UNL     1      -8.078  10.502  64.514  1.00  0.00    -0.143 OA 
HETATM    4  P   UNL     1      -9.161   9.654  65.563  1.00  0.00    -0.268 P  
HETATM    5  O   UNL     1      -9.125  10.995  66.545  1.00  0.00    -0.164 OA 
HETATM    6  S   UNL     1     -10.490   8.616  66.848  1.00  0.00    -0.199 SA 
HETATM    7  O   UNL     1      -8.078   8.686  66.048  1.00  0.00    -0.102 OA 
BRANCH   5   8
HETATM    8  C   UNL     1      -7.980  11.187  67.373  1.00  0.00    -0.125 C  
HETATM    9  C   UNL     1      -7.670  12.673  67.456  1.00  0.00    -0.161 C  
ENDBRANCH   5   8
BRANCH   6  10
HETATM   10  C   UNL     1     -10.316   9.246  68.526  1.00  0.00    -0.209 C  
BRANCH  10  11
HETATM   11  C   UNL     1     -10.517   8.139  69.564  1.00  0.00    -0.227 C  
BRANCH  11  12
HETATM   12  N   UNL     1      -9.613   8.304  70.819  1.00  0.00    -0.169 N  
HETATM   13  C   UNL     1      -8.929   6.990  71.198  1.00  0.00    -0.146 C  
HETATM   14  C   UNL     1     -10.509   8.730  71.985  1.00  0.00    -0.344 C  
HETATM   15  C   UNL     1      -8.558   9.386  70.607  1.00  0.00    -0.198 C  
ENDBRANCH  11  12
ENDBRANCH  10  11
ENDBRANCH   6  10
ENDBRANCH   2   3
TORSDOF 5
ENDMDL
MODEL      153
REMARK 921   NORMALIZED FREE ENERGY PREDICTED BY IDOCK:   -2.09 KCAL/MOL
REMARK 922        TOTAL FREE ENERGY PREDICTED BY IDOCK:   -2.94 KCAL/MOL
REMARK 923 INTER-LIGAND FREE ENERGY PREDICTED BY IDOCK:   -2.63 KCAL/MOL
REMARK 924 INTRA-LIGAND FREE ENERGY PREDICTED BY IDOCK:   -0.31 KCAL/MOL
REMARK 927      BINDING AFFINITY PREDICTED BY RF-SCORE:    0.00 PKD
ROOT
HETATM    1  C   UNL     1      -6.914   6.373  68.306  1.00  0.00    -0.080 C  
HETATM    2  C   UNL     1      -7.929   7.493  68.395  1.00  0.00    -0.123 C  
ENDROOT
BRANCH   2   3
HETATM    3  O   UNL     1      -7.417   8.587  67.654  1.00  0.00    -0.091 OA 
HETATM    4  P   UNL     1      -8.547   9.603  66.827  1.00  0.00    -0.135 P  
HETATM    5  O   UNL     1      -7.274  10.626  66.519  1.00  0.00    -0.118 OA 
HETATM    6  S   UNL     1      -9.933  10.848  65.815  1.00  0.00    -0.259 SA 
HETATM    7  O   UNL     1      -9.218  10.065  68.125  1.00  0.00    -0.127 OA 
BRANCH   5   8
HETATM    8  C   UNL     1      -6.819  11.466  67.577  1.00  0.00    -0.086 C  
HETATM    9  C   UNL     1      -5.418  11.958  67.254  1.00  0.00    -0.121 C  
ENDBRANCH   5   8
BRANCH   6  10
HETATM   10  C   UNL     1      -9.331  12.545  65.824  1.00  0.00     0.024 C  
BRANCH  10  11
HETATM   11  C   UNL     1     -10.017  13.376  66.910  1.00  0.00    -0.252 C  
BRANCH  11  12
HETATM   12  N   UNL     1     -10.051  14.898  66.588  1.00  0.00    -0.252 N  
HETATM   13  C   UNL     1     -10.908  15.669  67.592  1.00  0.00    -0.307 C  
HETATM   14  C   UNL     1     -10.674  15.066  65.199  1.00  0.00    -0.415 C  
HETATM   15  C   UNL     1      -8.645  15.491  66.556  1.00  0.00    -0.285 C  
ENDBRANCH  11  12
ENDBRANCH  10  11
ENDBRANCH   6  10
ENDBRANCH   2   3
TORSDOF 5
ENDMDL
MODEL      154
REMARK 921   NORMALIZED FREE ENERGY PREDICTED BY IDOCK:   -2.08 KCAL/MOL
REMARK 922        TOTAL FREE ENERGY PREDICTED BY IDOCK:   -2.94 KCAL/MOL
REMARK 923 INTER-LIGAND FREE ENERGY PREDICTED BY IDOCK:   -2.87 KCAL/MOL
REMARK 924 INTRA-LIGAND FREE ENERGY PREDICTED BY IDOCK:   -0.06 KCAL/MOL
REMARK 927      BINDING AFFINITY PREDICTED BY RF-SCORE:    0.00 PKD
ROOT
HETATM    1  C   UNL     1      -8.068   3.572  67.079  1.00  0.00    -0.087 C  
HETATM    2  C   UNL     1      -7.217   4.701  67.620  1.00  0.00    -0.066 C  
ENDROOT
BRANCH   2   3
HETATM    3  O   UNL     1      -8.072   5.813  67.827  1.00  0.00    -0.101 OA 
HETATM    4  P   UNL     1      -7.769   7.246  66.908  1.00  0.00    -0.113 P  
HETATM    5  O   UNL     1      -9.210   7.829  67.500  1.00  0.00    -0.131 OA 
HETATM    6  S   UNL     1      -7.399   9.003  65.780  1.00  0.00    -0.090 SA 
HETATM    7  O   UNL     1      -8.056   6.557  65.570  1.00  0.00    -0.114 OA 
BRANCH   5   8
HETATM    8  C   UNL     1     -10.418   7.339  66.923  1.00  0.00    -0.299 C  
HETATM    9  C   UNL     1     -11.080   6.379  67.896  1.00  0.00    -0.370 C  
ENDBRANCH   5   8
BRANCH   6  10
HETATM   10  C   UNL     1      -8.962   9.814  65.404  1.00  0.00    -0.190 C  
BRANCH  10  11
HETATM   11  C   UNL     1      -9.059  11.184  66.080  1.00  0.00    -0.201 C  
BRANCH  11  12
HETATM   12  N   UNL     1     -10.380  11.938  65.750  1.00  0.00    -0.239 N  
HETATM   13  C   UNL     1     -10.183  13.454  65.766  1.00  0.00    -0.295 C  
HETATM   14  C   UNL     1     -11.403  11.577  66.831  1.00  0.00    -0.253 C  
HETATM   15  C   UNL     1     -10.942  11.510  64.398  1.00  0.00    -0.324 C  
ENDBRANCH  11  12
ENDBRANCH  10  11
ENDBRANCH   6  10
ENDBRANCH   2   3
TORSDOF 5
ENDMDL
MODEL      155
REMARK 921   NORMALIZED FREE ENERGY PREDICTED BY IDOCK:   -2.06 KCAL/MOL
REMARK 922        TOTAL FREE ENERGY PREDICTED BY IDOCK:   -2.91 KCAL/MOL
REMARK 923 INTER-LIGAND FREE ENERGY PREDICTED BY IDOCK:   -2.81 KCAL/MOL
REMARK 924 INTRA-LIGAND FREE ENERGY PREDICTED BY IDOCK:   -0.10 KCAL/MOL
REMARK 927      BINDING AFFINITY PREDICTED BY RF-SCORE:    0.00 PKD
ROOT
HETATM    1  C   UNL     1     -10.700  11.701  66.384  1.00  0.00    -0.316 C  
HETATM    2  C   UNL     1     -10.207  10.270  66.343  1.00  0.00    -0.225 C  
ENDROOT
BRANCH   2   3
HETATM    3  O   UNL     1      -9.857   9.905  67.668  1.00  0.00    -0.154 OA 
HETATM    4  P   UNL     1     -10.286   8.319  68.208  1.00  0.00    -0.130 P  
HETATM    5  O   UNL     1      -9.369   8.623  69.561  1.00  0.00    -0.152 OA 
HETATM    6  S   UNL     1     -10.812   6.375  68.870  1.00  0.00    -0.344 SA 
HETATM    7  O   UNL     1      -9.388   7.627  67.177  1.00  0.00    -0.136 OA 
BRANCH   5   8
HETATM    8  C   UNL     1      -7.951   8.537  69.441  1.00  0.00    -0.107 C  
HETATM    9  C   UNL     1      -7.363   9.938  69.473  1.00  0.00    -0.102 C  
ENDBRANCH   5   8
BRANCH   6  10
HETATM   10  C   UNL     1      -9.549   5.765  69.999  1.00  0.00    -0.164 C  
BRANCH  10  11
HETATM   11  C   UNL     1     -10.150   4.852  71.072  1.00  0.00    -0.218 C  
BRANCH  11  12
HETATM   12  N   UNL     1      -9.963   5.399  72.517  1.00  0.00    -0.165 N  
HETATM   13  C   UNL     1      -8.763   4.756  73.212  1.00  0.00    -0.104 C  
HETATM   14  C   UNL     1     -11.223   5.046  73.313  1.00  0.00    -0.338 C  
HETATM   15  C   UNL     1      -9.804   6.916  72.521  1.00  0.00    -0.157 C  
ENDBRANCH  11  12
ENDBRANCH  10  11
ENDBRANCH   6  10
ENDBRANCH   2   3
TORSDOF 5
ENDMDL
MODEL      156
REMARK 921   NORMALIZED FREE ENERGY PREDICTED BY IDOCK:   -2.05 KCAL/MOL
REMARK 922        TOTAL FREE ENERGY PREDICTED BY IDOCK:   -2.90 KCAL/MOL
REMARK 923 INTER-LIGAND FREE ENERGY PREDICTED BY IDOCK:   -2.64 KCAL/MOL
REMARK 924 INTRA-LIGAND FREE ENERGY PREDICTED BY IDOCK:   -0.26 KCAL/MOL
REMARK 927      BINDING AFFINITY PREDICTED BY RF-SCORE:    0.00 PKD
ROOT
HETATM    1  C   UNL     1      -6.744  14.888  68.210  1.00  0.00    -0.113 C  
HETATM    2  C   UNL     1      -7.002  13.593  67.470  1.00  0.00    -0.143 C  
ENDROOT
BRANCH   2   3
HETATM    3  O   UNL     1      -7.306  12.605  68.440  1.00  0.00    -0.104 OA 
HETATM    4  P   UNL     1      -8.816  11.772  68.300  1.00  0.00    -0.135 P  
HETATM    5  O   UNL     1      -8.272  10.759  69.501  1.00  0.00    -0.091 OA 
HETATM    6  S   UNL     1     -10.666  10.752  68.128  1.00  0.00    -0.235 SA 
HETATM    7  O   UNL     1      -8.448  11.144  66.952  1.00  0.00    -0.137 OA 
BRANCH   5   8
HETATM    8  C   UNL     1      -7.328   9.750  69.148  1.00  0.00    -0.079 C  
HETATM    9  C   UNL     1      -6.338   9.577  70.288  1.00  0.00    -0.066 C  
ENDBRANCH   5   8
BRANCH   6  10
HETATM   10  C   UNL     1     -10.466   9.051  68.684  1.00  0.00    -0.200 C  
BRANCH  10  11
HETATM   11  C   UNL     1     -11.120   8.828  70.050  1.00  0.00    -0.162 C  
BRANCH  11  12
HETATM   12  N   UNL     1     -11.301   7.324  70.405  1.00  0.00    -0.283 N  
HETATM   13  C   UNL     1     -12.645   7.063  71.084  1.00  0.00    -0.339 C  
HETATM   14  C   UNL     1     -10.188   6.940  71.384  1.00  0.00    -0.197 C  
HETATM   15  C   UNL     1     -11.174   6.441  69.167  1.00  0.00    -0.354 C  
ENDBRANCH  11  12
ENDBRANCH  10  11
ENDBRANCH   6  10
ENDBRANCH   2   3
TORSDOF 5
ENDMDL
MODEL      157
REMARK 921   NORMALIZED FREE ENERGY PREDICTED BY IDOCK:   -2.04 KCAL/MOL
REMARK 922        TOTAL FREE ENERGY PREDICTED BY IDOCK:   -2.89 KCAL/MOL
REMARK 923 INTER-LIGAND FREE ENERGY PREDICTED BY IDOCK:   -2.60 KCAL/MOL
REMARK 924 INTRA-LIGAND FREE ENERGY PREDICTED BY IDOCK:   -0.29 KCAL/MOL
REMARK 927      BINDING AFFINITY PREDICTED BY RF-SCORE:    0.00 PKD
ROOT
HETATM    1  C   UNL     1     -10.502  12.340  68.184  1.00  0.00    -0.228 C  
HETATM    2  C   UNL     1     -11.044  11.208  67.339  1.00  0.00    -0.307 C  
ENDROOT
BRANCH   2   3
HETATM    3  O   UNL     1     -11.134  10.064  68.172  1.00  0.00    -0.253 OA 
HETATM    4  P   UNL     1     -10.379   8.606  67.626  1.00  0.00    -0.227 P  
HETATM    5  O   UNL     1     -10.695   7.978  69.133  1.00  0.00    -0.199 OA 
HETATM    6  S   UNL     1      -9.453   6.820  66.958  1.00  0.00    -0.152 SA 
HETATM    7  O   UNL     1      -8.974   9.216  67.657  1.00  0.00    -0.123 OA 
BRANCH   5   8
HETATM    8  C   UNL     1      -9.855   8.377  70.214  1.00  0.00    -0.181 C  
HETATM    9  C   UNL     1     -10.723   8.800  71.388  1.00  0.00    -0.356 C  
ENDBRANCH   5   8
BRANCH   6  10
HETATM   10  C   UNL     1      -8.810   5.913  68.374  1.00  0.00    -0.111 C  
BRANCH  10  11
HETATM   11  C   UNL     1      -7.767   4.875  67.948  1.00  0.00    -0.083 C  
BRANCH  11  12
HETATM   12  N   UNL     1      -8.142   3.423  68.364  1.00  0.00    -0.069 N  
HETATM   13  C   UNL     1      -8.480   2.558  67.150  1.00  0.00    -0.100 C  
HETATM   14  C   UNL     1      -9.384   3.502  69.256  1.00  0.00    -0.172 C  
HETATM   15  C   UNL     1      -7.020   2.767  69.163  1.00  0.00    -0.041 C  
ENDBRANCH  11  12
ENDBRANCH  10  11
ENDBRANCH   6  10
ENDBRANCH   2   3
TORSDOF 5
ENDMDL
MODEL      158
REMARK 921   NORMALIZED FREE ENERGY PREDICTED BY IDOCK:   -2.03 KCAL/MOL
REMARK 922        TOTAL FREE ENERGY PREDICTED BY IDOCK:   -2.87 KCAL/MOL
REMARK 923 INTER-LIGAND FREE ENERGY PREDICTED BY IDOCK:   -2.50 KCAL/MOL
REMARK 924 INTRA-LIGAND FREE ENERGY PREDICTED BY IDOCK:   -0.38 KCAL/MOL
REMARK 927      BINDING AFFINITY PREDICTED BY RF-SCORE:    0.00 PKD
ROOT
HETATM    1  C   UNL     1      -6.424  11.227  69.839  1.00  0.00    -0.132 C  
HETATM    2  C   UNL     1      -7.613  11.307  68.905  1.00  0.00    -0.126 C  
ENDROOT
BRANCH   2   3
HETATM    3  O   UNL     1      -8.609  10.437  69.414  1.00  0.00    -0.165 OA 
HETATM    4  P   UNL     1      -9.370   9.346  68.308  1.00  0.00    -0.133 P  
HETATM    5  O   UNL     1     -10.078   8.630  69.632  1.00  0.00    -0.191 OA 
HETATM    6  S   UNL     1     -10.302   8.009  66.952  1.00  0.00    -0.300 SA 
HETATM    7  O   UNL     1      -8.067   8.597  68.009  1.00  0.00    -0.109 OA 
BRANCH   5   8
HETATM    8  C   UNL     1      -9.279   7.758  70.427  1.00  0.00    -0.156 C  
HETATM    9  C   UNL     1      -9.470   8.108  71.894  1.00  0.00    -0.260 C  
ENDBRANCH   5   8
BRANCH   6  10
HETATM   10  C   UNL     1     -10.691   6.469  67.801  1.00  0.00    -0.296 C  
BRANCH  10  11
HETATM   11  C   UNL     1     -10.604   5.270  66.854  1.00  0.00    -0.214 C  
BRANCH  11  12
HETATM   12  N   UNL     1      -9.219   4.561  66.887  1.00  0.00    -0.125 N  
HETATM   13  C   UNL     1      -8.455   4.755  65.577  1.00  0.00    -0.127 C  
HETATM   14  C   UNL     1      -9.468   3.063  67.079  1.00  0.00    -0.063 C  
HETATM   15  C   UNL     1      -8.368   5.057  68.052  1.00  0.00    -0.100 C  
ENDBRANCH  11  12
ENDBRANCH  10  11
ENDBRANCH   6  10
ENDBRANCH   2   3
TORSDOF 5
ENDMDL
MODEL      159
REMARK 921   NORMALIZED FREE ENERGY PREDICTED BY IDOCK:   -2.02 KCAL/MOL
REMARK 922        TOTAL FREE ENERGY PREDICTED BY IDOCK:   -2.86 KCAL/MOL
REMARK 923 INTER-LIGAND FREE ENERGY PREDICTED BY IDOCK:   -2.57 KCAL/MOL
REMARK 924 INTRA-LIGAND FREE ENERGY PREDICTED BY IDOCK:   -0.29 KCAL/MOL
REMARK 927      BINDING AFFINITY PREDICTED BY RF-SCORE:    0.00 PKD
ROOT
HETATM    1  C   UNL     1     -13.244   9.602  71.375  1.00  0.00    -0.469 C  
HETATM    2  C   UNL     1     -11.908  10.211  71.006  1.00  0.00    -0.383 C  
ENDROOT
BRANCH   2   3
HETATM    3  O   UNL     1     -10.993   9.145  70.823  1.00  0.00    -0.233 OA 
HETATM    4  P   UNL     1     -10.775   8.533  69.219  1.00  0.00     0.012 P  
HETATM    5  O   UNL     1      -9.508   7.640  69.822  1.00  0.00    -0.157 OA 
HETATM    6  S   UNL     1     -10.507   7.785  67.254  1.00  0.00    -0.318 SA 
HETATM    7  O   UNL     1     -10.209   9.857  68.695  1.00  0.00    -0.165 OA 
BRANCH   5   8
HETATM    8  C   UNL     1      -8.275   8.311  70.069  1.00  0.00    -0.119 C  
HETATM    9  C   UNL     1      -7.620   7.711  71.302  1.00  0.00    -0.080 C  
ENDBRANCH   5   8
BRANCH   6  10
HETATM   10  C   UNL     1      -8.797   7.265  67.038  1.00  0.00    -0.128 C  
BRANCH  10  11
HETATM   11  C   UNL     1      -8.709   5.820  66.539  1.00  0.00    -0.123 C  
BRANCH  11  12
HETATM   12  N   UNL     1      -7.954   5.685  65.185  1.00  0.00    -0.106 N  
HETATM   13  C   UNL     1      -6.539   5.141  65.381  1.00  0.00    -0.040 C  
HETATM   14  C   UNL     1      -7.848   7.084  64.571  1.00  0.00    -0.118 C  
HETATM   15  C   UNL     1      -8.714   4.791  64.210  1.00  0.00    -0.143 C  
ENDBRANCH  11  12
ENDBRANCH  10  11
ENDBRANCH   6  10
ENDBRANCH   2   3
TORSDOF 5
ENDMDL
MODEL      160
REMARK 921   NORMALIZED FREE ENERGY PREDICTED BY IDOCK:   -2.01 KCAL/MOL
REMARK 922        TOTAL FREE ENERGY PREDICTED BY IDOCK:   -2.84 KCAL/MOL
REMARK 923 INTER-LIGAND FREE ENERGY PREDICTED BY IDOCK:   -2.72 KCAL/MOL
REMARK 924 INTRA-LIGAND FREE ENERGY PREDICTED BY IDOCK:   -0.12 KCAL/MOL
REMARK 927      BINDING AFFINITY PREDICTED BY RF-SCORE:    0.00 PKD
ROOT
HETATM    1  C   UNL     1      -9.426  17.050  65.610  1.00  0.00     0.172 C  
HETATM    2  C   UNL     1      -9.694  15.570  65.437  1.00  0.00    -0.197 C  
ENDROOT
BRANCH   2   3
HETATM    3  O   UNL     1      -9.052  14.897  66.507  1.00  0.00    -0.265 OA 
HETATM    4  P   UNL     1     -10.013  13.856  67.499  1.00  0.00    -0.248 P  
HETATM    5  O   UNL     1      -8.592  13.350  68.199  1.00  0.00    -0.162 OA 
HETATM    6  S   UNL     1     -11.192  12.580  68.715  1.00  0.00    -0.291 SA 
HETATM    7  O   UNL     1     -10.334  12.901  66.344  1.00  0.00    -0.259 OA 
BRANCH   5   8
HETATM    8  C   UNL     1      -7.782  12.427  67.476  1.00  0.00    -0.161 C  
HETATM    9  C   UNL     1      -6.898  11.670  68.452  1.00  0.00    -0.071 C  
ENDBRANCH   5   8
BRANCH   6  10
HETATM   10  C   UNL     1     -10.196  11.180  69.255  1.00  0.00    -0.083 C  
BRANCH  10  11
HETATM   11  C   UNL     1     -11.055  10.114  69.940  1.00  0.00    -0.293 C  
BRANCH  11  12
HETATM   12  N   UNL     1     -10.277   8.799  70.237  1.00  0.00    -0.190 N  
HETATM   13  C   UNL     1     -10.896   8.029  71.404  1.00  0.00    -0.231 C  
HETATM   14  C   UNL     1      -8.846   9.182  70.623  1.00  0.00    -0.232 C  
HETATM   15  C   UNL     1     -10.216   7.899  69.007  1.00  0.00    -0.209 C  
ENDBRANCH  11  12
ENDBRANCH  10  11
ENDBRANCH   6  10
ENDBRANCH   2   3
TORSDOF 5
ENDMDL
MODEL      161
REMARK 921   NORMALIZED FREE ENERGY PREDICTED BY IDOCK:   -2.00 KCAL/MOL
REMARK 922        TOTAL FREE ENERGY PREDICTED BY IDOCK:   -2.83 KCAL/MOL
REMARK 923 INTER-LIGAND FREE ENERGY PREDICTED BY IDOCK:   -2.88 KCAL/MOL
REMARK 924 INTRA-LIGAND FREE ENERGY PREDICTED BY IDOCK:    0.06 KCAL/MOL
REMARK 927      BINDING AFFINITY PREDICTED BY RF-SCORE:    0.00 PKD
ROOT
HETATM    1  C   UNL     1      -6.415  21.019  67.739  1.00  0.00    -0.407 C  
HETATM    2  C   UNL     1      -6.992  20.229  68.894  1.00  0.00    -0.124 C  
ENDROOT
BRANCH   2   3
HETATM    3  O   UNL     1      -8.197  19.636  68.441  1.00  0.00    -0.334 OA 
HETATM    4  P   UNL     1      -8.078  18.247  67.416  1.00  0.00    -0.237 P  
HETATM    5  O   UNL     1      -9.724  18.083  67.591  1.00  0.00    -0.278 OA 
HETATM    6  S   UNL     1      -7.932  16.545  66.161  1.00  0.00     0.030 SA 
HETATM    7  O   UNL     1      -7.403  17.396  68.497  1.00  0.00    -0.217 OA 
BRANCH   5   8
HETATM    8  C   UNL     1     -10.215  17.528  68.809  1.00  0.00    -0.373 C  
HETATM    9  C   UNL     1     -11.530  16.817  68.537  1.00  0.00     0.065 C  
ENDBRANCH   5   8
BRANCH   6  10
HETATM   10  C   UNL     1      -9.304  15.430  66.503  1.00  0.00    -0.282 C  
BRANCH  10  11
HETATM   11  C   UNL     1      -8.950  13.983  66.150  1.00  0.00     0.214 C  
BRANCH  11  12
HETATM   12  N   UNL     1      -9.786  12.937  66.943  1.00  0.00    -0.233 N  
HETATM   13  C   UNL     1     -10.207  11.763  66.059  1.00  0.00    -0.230 C  
HETATM   14  C   UNL     1     -11.052  13.636  67.444  1.00  0.00    -0.282 C  
HETATM   15  C   UNL     1      -9.018  12.414  68.154  1.00  0.00    -0.196 C  
ENDBRANCH  11  12
ENDBRANCH  10  11
ENDBRANCH   6  10
ENDBRANCH   2   3
TORSDOF 5
ENDMDL
MODEL      162
REMARK 921   NORMALIZED FREE ENERGY PREDICTED BY IDOCK:   -2.00 KCAL/MOL
REMARK 922        TOTAL FREE ENERGY PREDICTED BY IDOCK:   -2.83 KCAL/MOL
REMARK 923 INTER-LIGAND FREE ENERGY PREDICTED BY IDOCK:   -2.90 KCAL/MOL
REMARK 924 INTRA-LIGAND FREE ENERGY PREDICTED BY IDOCK:    0.07 KCAL/MOL
REMARK 927      BINDING AFFINITY PREDICTED BY RF-SCORE:    0.00 PKD
ROOT
HETATM    1  C   UNL     1     -10.527  12.369  68.160  1.00  0.00    -0.228 C  
HETATM    2  C   UNL     1     -10.783  11.094  67.387  1.00  0.00    -0.250 C  
ENDROOT
BRANCH   2   3
HETATM    3  O   UNL     1     -10.968  10.055  68.334  1.00  0.00    -0.239 OA 
HETATM    4  P   UNL     1      -9.787   8.792  68.388  1.00  0.00    -0.183 P  
HETATM    5  O   UNL     1     -10.543   8.259  69.770  1.00  0.00    -0.226 OA 
HETATM    6  S   UNL     1      -8.340   7.244  68.454  1.00  0.00    -0.125 SA 
HETATM    7  O   UNL     1      -8.659   9.741  68.805  1.00  0.00    -0.119 OA 
BRANCH   5   8
HETATM    8  C   UNL     1     -10.296   8.966  70.983  1.00  0.00    -0.253 C  
HETATM    9  C   UNL     1     -11.585   9.043  71.784  1.00  0.00    -0.444 C  
ENDBRANCH   5   8
BRANCH   6  10
HETATM   10  C   UNL     1      -8.145   6.678  70.153  1.00  0.00    -0.124 C  
BRANCH  10  11
HETATM   11  C   UNL     1      -9.194   5.625  70.516  1.00  0.00    -0.150 C  
BRANCH  11  12
HETATM   12  N   UNL     1      -9.130   5.185  72.007  1.00  0.00    -0.136 N  
HETATM   13  C   UNL     1      -7.738   5.401  72.599  1.00  0.00    -0.099 C  
HETATM   14  C   UNL     1      -9.448   3.689  72.064  1.00  0.00    -0.135 C  
HETATM   15  C   UNL     1     -10.164   5.926  72.851  1.00  0.00    -0.191 C  
ENDBRANCH  11  12
ENDBRANCH  10  11
ENDBRANCH   6  10
ENDBRANCH   2   3
TORSDOF 5
ENDMDL
MODEL      163
REMARK 921   NORMALIZED FREE ENERGY PREDICTED BY IDOCK:   -1.98 KCAL/MOL
REMARK 922        TOTAL FREE ENERGY PREDICTED BY IDOCK:   -2.81 KCAL/MOL
REMARK 923 INTER-LIGAND FREE ENERGY PREDICTED BY IDOCK:   -2.33 KCAL/MOL
REMARK 924 INTRA-LIGAND FREE ENERGY PREDICTED BY IDOCK:   -0.47 KCAL/MOL
REMARK 927      BINDING AFFINITY PREDICTED BY RF-SCORE:    0.00 PKD
ROOT
HETATM    1  C   UNL     1      -9.063   2.548  68.276  1.00  0.00    -0.229 C  
HETATM    2  C   UNL     1      -7.842   3.396  68.565  1.00  0.00    -0.058 C  
ENDROOT
BRANCH   2   3
HETATM    3  O   UNL     1      -8.163   4.732  68.214  1.00  0.00    -0.088 OA 
HETATM    4  P   UNL     1      -8.949   5.712  69.403  1.00  0.00    -0.115 P  
HETATM    5  O   UNL     1      -8.709   6.999  68.377  1.00  0.00    -0.125 OA 
HETATM    6  S   UNL     1      -9.913   6.914  70.859  1.00  0.00    -0.189 SA 
HETATM    7  O   UNL     1      -7.762   5.652  70.369  1.00  0.00    -0.089 OA 
BRANCH   5   8
HETATM    8  C   UNL     1      -7.404   7.572  68.317  1.00  0.00    -0.096 C  
HETATM    9  C   UNL     1      -7.186   8.167  66.936  1.00  0.00    -0.083 C  
ENDBRANCH   5   8
BRANCH   6  10
HETATM   10  C   UNL     1      -9.359   8.619  70.690  1.00  0.00    -0.185 C  
BRANCH  10  11
HETATM   11  C   UNL     1     -10.541   9.577  70.517  1.00  0.00    -0.297 C  
BRANCH  11  12
HETATM   12  N   UNL     1     -10.440  10.447  69.231  1.00  0.00    -0.220 N  
HETATM   13  C   UNL     1     -10.899   9.678  67.992  1.00  0.00    -0.196 C  
HETATM   14  C   UNL     1      -8.969  10.827  69.041  1.00  0.00    -0.132 C  
HETATM   15  C   UNL     1     -11.252  11.732  69.364  1.00  0.00    -0.234 C  
ENDBRANCH  11  12
ENDBRANCH  10  11
ENDBRANCH   6  10
ENDBRANCH   2   3
TORSDOF 5
ENDMDL
MODEL      164
REMARK 921   NORMALIZED FREE ENERGY PREDICTED BY IDOCK:   -1.94 KCAL/MOL
REMARK 922        TOTAL FREE ENERGY PREDICTED BY IDOCK:   -2.76 KCAL/MOL
REMARK 923 INTER-LIGAND FREE ENERGY PREDICTED BY IDOCK:   -2.41 KCAL/MOL
REMARK 924 INTRA-LIGAND FREE ENERGY PREDICTED BY IDOCK:   -0.35 KCAL/MOL
REMARK 927      BINDING AFFINITY PREDICTED BY RF-SCORE:    0.00 PKD
ROOT
HETATM    1  C   UNL     1     -13.163   8.490  71.921  1.00  0.00    -0.398 C  
HETATM    2  C   UNL     1     -11.905   9.327  71.823  1.00  0.00    -0.384 C  
ENDROOT
BRANCH   2   3
HETATM    3  O   UNL     1     -10.805   8.467  72.069  1.00  0.00    -0.286 OA 
HETATM    4  P   UNL     1     -10.549   7.152  70.975  1.00  0.00    -0.226 P  
HETATM    5  O   UNL     1      -9.101   6.898  71.753  1.00  0.00    -0.139 OA 
HETATM    6  S   UNL     1     -10.234   5.539  69.635  1.00  0.00    -0.290 SA 
HETATM    7  O   UNL     1     -10.286   8.076  69.782  1.00  0.00    -0.197 OA 
BRANCH   5   8
HETATM    8  C   UNL     1      -8.016   7.771  71.448  1.00  0.00    -0.095 C  
HETATM    9  C   UNL     1      -7.336   8.191  72.741  1.00  0.00    -0.151 C  
ENDBRANCH   5   8
BRANCH   6  10
HETATM   10  C   UNL     1      -8.466   5.240  69.463  1.00  0.00    -0.094 C  
BRANCH  10  11
HETATM   11  C   UNL     1      -8.121   3.769  69.711  1.00  0.00    -0.053 C  
BRANCH  11  12
HETATM   12  N   UNL     1      -6.608   3.533  69.990  1.00  0.00    -0.032 N  
HETATM   13  C   UNL     1      -5.770   3.691  68.721  1.00  0.00    -0.022 C  
HETATM   14  C   UNL     1      -6.447   2.097  70.494  1.00  0.00    -0.024 C  
HETATM   15  C   UNL     1      -6.087   4.480  71.067  1.00  0.00    -0.018 C  
ENDBRANCH  11  12
ENDBRANCH  10  11
ENDBRANCH   6  10
ENDBRANCH   2   3
TORSDOF 5
ENDMDL
MODEL      165
REMARK 921   NORMALIZED FREE ENERGY PREDICTED BY IDOCK:   -1.94 KCAL/MOL
REMARK 922        TOTAL FREE ENERGY PREDICTED BY IDOCK:   -2.76 KCAL/MOL
REMARK 923 INTER-LIGAND FREE ENERGY PREDICTED BY IDOCK:   -2.29 KCAL/MOL
REMARK 924 INTRA-LIGAND FREE ENERGY PREDICTED BY IDOCK:   -0.46 KCAL/MOL
REMARK 927      BINDING AFFINITY PREDICTED BY RF-SCORE:    0.00 PKD
ROOT
HETATM    1  C   UNL     1      -5.178  10.571  63.021  1.00  0.00    -0.157 C  
HETATM    2  C   UNL     1      -6.345   9.606  63.047  1.00  0.00    -0.106 C  
ENDROOT
BRANCH   2   3
HETATM    3  O   UNL     1      -6.437   9.089  64.364  1.00  0.00    -0.074 OA 
HETATM    4  P   UNL     1      -6.760  10.203  65.648  1.00  0.00    -0.126 P  
HETATM    5  O   UNL     1      -6.954   8.878  66.634  1.00  0.00    -0.078 OA 
HETATM    6  S   UNL     1      -7.157  11.567  67.222  1.00  0.00    -0.138 SA 
HETATM    7  O   UNL     1      -8.138  10.582  65.094  1.00  0.00    -0.155 OA 
BRANCH   5   8
HETATM    8  C   UNL     1      -8.175   8.148  66.542  1.00  0.00    -0.107 C  
HETATM    9  C   UNL     1      -8.161   7.023  67.563  1.00  0.00    -0.113 C  
ENDBRANCH   5   8
BRANCH   6  10
HETATM   10  C   UNL     1      -8.168  10.759  68.474  1.00  0.00    -0.136 C  
BRANCH  10  11
HETATM   11  C   UNL     1      -9.481  11.512  68.705  1.00  0.00    -0.141 C  
BRANCH  11  12
HETATM   12  N   UNL     1     -10.720  10.574  68.782  1.00  0.00    -0.202 N  
HETATM   13  C   UNL     1     -10.390   9.261  69.493  1.00  0.00    -0.216 C  
HETATM   14  C   UNL     1     -11.145  10.247  67.347  1.00  0.00    -0.189 C  
HETATM   15  C   UNL     1     -11.891  11.255  69.484  1.00  0.00    -0.357 C  
ENDBRANCH  11  12
ENDBRANCH  10  11
ENDBRANCH   6  10
ENDBRANCH   2   3
TORSDOF 5
ENDMDL
MODEL      166
REMARK 921   NORMALIZED FREE ENERGY PREDICTED BY IDOCK:   -1.93 KCAL/MOL
REMARK 922        TOTAL FREE ENERGY PREDICTED BY IDOCK:   -2.74 KCAL/MOL
REMARK 923 INTER-LIGAND FREE ENERGY PREDICTED BY IDOCK:   -2.43 KCAL/MOL
REMARK 924 INTRA-LIGAND FREE ENERGY PREDICTED BY IDOCK:   -0.31 KCAL/MOL
REMARK 927      BINDING AFFINITY PREDICTED BY RF-SCORE:    0.00 PKD
ROOT
HETATM    1  C   UNL     1      -5.199  10.598  63.456  1.00  0.00    -0.167 C  
HETATM    2  C   UNL     1      -6.095   9.378  63.452  1.00  0.00    -0.092 C  
ENDROOT
BRANCH   2   3
HETATM    3  O   UNL     1      -6.308   9.006  64.803  1.00  0.00    -0.065 OA 
HETATM    4  P   UNL     1      -7.896   9.216  65.458  1.00  0.00    -0.101 P  
HETATM    5  O   UNL     1      -7.365   8.378  66.793  1.00  0.00    -0.081 OA 
HETATM    6  S   UNL     1      -9.841   9.473  66.260  1.00  0.00    -0.273 SA 
HETATM    7  O   UNL     1      -8.526   8.209  64.490  1.00  0.00    -0.113 OA 
BRANCH   5   8
HETATM    8  C   UNL     1      -7.256   6.960  66.692  1.00  0.00    -0.076 C  
HETATM    9  C   UNL     1      -6.211   6.470  67.681  1.00  0.00    -0.035 C  
ENDBRANCH   5   8
BRANCH   6  10
HETATM   10  C   UNL     1     -10.180   8.158  67.443  1.00  0.00    -0.258 C  
BRANCH  10  11
HETATM   11  C   UNL     1     -10.657   8.721  68.784  1.00  0.00    -0.145 C  
BRANCH  11  12
HETATM   12  N   UNL     1     -10.596   7.682  69.941  1.00  0.00    -0.232 N  
HETATM   13  C   UNL     1     -11.440   6.445  69.633  1.00  0.00    -0.378 C  
HETATM   14  C   UNL     1     -11.166   8.349  71.196  1.00  0.00    -0.263 C  
HETATM   15  C   UNL     1      -9.160   7.259  70.235  1.00  0.00    -0.152 C  
ENDBRANCH  11  12
ENDBRANCH  10  11
ENDBRANCH   6  10
ENDBRANCH   2   3
TORSDOF 5
ENDMDL
MODEL      167
REMARK 921   NORMALIZED FREE ENERGY PREDICTED BY IDOCK:   -1.93 KCAL/MOL
REMARK 922        TOTAL FREE ENERGY PREDICTED BY IDOCK:   -2.74 KCAL/MOL
REMARK 923 INTER-LIGAND FREE ENERGY PREDICTED BY IDOCK:   -2.39 KCAL/MOL
REMARK 924 INTRA-LIGAND FREE ENERGY PREDICTED BY IDOCK:   -0.35 KCAL/MOL
REMARK 927      BINDING AFFINITY PREDICTED BY RF-SCORE:    0.00 PKD
ROOT
HETATM    1  C   UNL     1     -12.450   6.662  71.326  1.00  0.00    -0.284 C  
HETATM    2  C   UNL     1     -11.149   7.387  71.597  1.00  0.00    -0.236 C  
ENDROOT
BRANCH   2   3
HETATM    3  O   UNL     1     -10.117   6.659  70.953  1.00  0.00    -0.187 OA 
HETATM    4  P   UNL     1     -10.324   6.272  69.280  1.00  0.00    -0.275 P  
HETATM    5  O   UNL     1      -8.745   5.749  69.293  1.00  0.00    -0.112 OA 
HETATM    6  S   UNL     1     -10.577   5.798  67.229  1.00  0.00    -0.267 SA 
HETATM    7  O   UNL     1     -10.329   7.742  68.848  1.00  0.00    -0.208 OA 
BRANCH   5   8
HETATM    8  C   UNL     1      -7.714   6.734  69.259  1.00  0.00    -0.105 C  
HETATM    9  C   UNL     1      -6.366   6.039  69.171  1.00  0.00    -0.041 C  
ENDBRANCH   5   8
BRANCH   6  10
HETATM   10  C   UNL     1      -8.976   5.829  66.405  1.00  0.00    -0.137 C  
BRANCH  10  11
HETATM   11  C   UNL     1      -8.469   4.414  66.114  1.00  0.00    -0.113 C  
BRANCH  11  12
HETATM   12  N   UNL     1      -8.497   4.053  64.600  1.00  0.00    -0.105 N  
HETATM   13  C   UNL     1      -9.746   3.251  64.235  1.00  0.00    -0.162 C  
HETATM   14  C   UNL     1      -7.269   3.185  64.307  1.00  0.00    -0.058 C  
HETATM   15  C   UNL     1      -8.418   5.302  63.729  1.00  0.00    -0.096 C  
ENDBRANCH  11  12
ENDBRANCH  10  11
ENDBRANCH   6  10
ENDBRANCH   2   3
TORSDOF 5
ENDMDL
MODEL      168
REMARK 921   NORMALIZED FREE ENERGY PREDICTED BY IDOCK:   -1.90 KCAL/MOL
REMARK 922        TOTAL FREE ENERGY PREDICTED BY IDOCK:   -2.71 KCAL/MOL
REMARK 923 INTER-LIGAND FREE ENERGY PREDICTED BY IDOCK:   -2.35 KCAL/MOL
REMARK 924 INTRA-LIGAND FREE ENERGY PREDICTED BY IDOCK:   -0.35 KCAL/MOL
REMARK 927      BINDING AFFINITY PREDICTED BY RF-SCORE:    0.00 PKD
ROOT
HETATM    1  C   UNL     1      -7.488  11.207  68.778  1.00  0.00    -0.118 C  
HETATM    2  C   UNL     1      -8.765  10.414  68.601  1.00  0.00    -0.138 C  
ENDROOT
BRANCH   2   3
HETATM    3  O   UNL     1      -9.023   9.749  69.826  1.00  0.00    -0.192 OA 
HETATM    4  P   UNL     1      -9.272   8.038  69.780  1.00  0.00    -0.147 P  
HETATM    5  O   UNL     1      -9.223   8.071  71.442  1.00  0.00    -0.135 OA 
HETATM    6  S   UNL     1      -9.576   5.941  69.723  1.00  0.00    -0.157 SA 
HETATM    7  O   UNL     1      -7.854   7.755  69.273  1.00  0.00    -0.111 OA 
BRANCH   5   8
HETATM    8  C   UNL     1      -7.949   8.182  72.071  1.00  0.00    -0.124 C  
HETATM    9  C   UNL     1      -8.145   8.301  73.574  1.00  0.00    -0.237 C  
ENDBRANCH   5   8
BRANCH   6  10
HETATM   10  C   UNL     1      -8.912   5.198  71.223  1.00  0.00    -0.139 C  
BRANCH  10  11
HETATM   11  C   UNL     1      -9.725   3.974  71.649  1.00  0.00    -0.172 C  
BRANCH  11  12
HETATM   12  N   UNL     1     -10.372   4.127  73.057  1.00  0.00    -0.163 N  
HETATM   13  C   UNL     1     -11.623   5.005  73.010  1.00  0.00    -0.216 C  
HETATM   14  C   UNL     1      -9.345   4.806  73.968  1.00  0.00    -0.117 C  
HETATM   15  C   UNL     1     -10.722   2.770  73.659  1.00  0.00    -0.185 C  
ENDBRANCH  11  12
ENDBRANCH  10  11
ENDBRANCH   6  10
ENDBRANCH   2   3
TORSDOF 5
ENDMDL
MODEL      169
REMARK 921   NORMALIZED FREE ENERGY PREDICTED BY IDOCK:   -1.90 KCAL/MOL
REMARK 922        TOTAL FREE ENERGY PREDICTED BY IDOCK:   -2.70 KCAL/MOL
REMARK 923 INTER-LIGAND FREE ENERGY PREDICTED BY IDOCK:   -2.46 KCAL/MOL
REMARK 924 INTRA-LIGAND FREE ENERGY PREDICTED BY IDOCK:   -0.24 KCAL/MOL
REMARK 927      BINDING AFFINITY PREDICTED BY RF-SCORE:    0.00 PKD
ROOT
HETATM    1  C   UNL     1      -8.792  12.524  67.241  1.00  0.00    -0.195 C  
HETATM    2  C   UNL     1      -8.131  11.163  67.297  1.00  0.00    -0.137 C  
ENDROOT
BRANCH   2   3
HETATM    3  O   UNL     1      -7.845  10.889  68.658  1.00  0.00    -0.110 OA 
HETATM    4  P   UNL     1      -8.922   9.841  69.515  1.00  0.00    -0.225 P  
HETATM    5  O   UNL     1      -7.815   9.856  70.756  1.00  0.00    -0.275 OA 
HETATM    6  S   UNL     1     -10.242   8.557  70.565  1.00  0.00    -0.200 SA 
HETATM    7  O   UNL     1      -8.609   8.638  68.620  1.00  0.00    -0.129 OA 
BRANCH   5   8
HETATM    8  C   UNL     1      -6.645   9.052  70.618  1.00  0.00    -0.060 C  
HETATM    9  C   UNL     1      -5.984   8.899  71.978  1.00  0.00    -0.076 C  
ENDBRANCH   5   8
BRANCH   6  10
HETATM   10  C   UNL     1      -9.309   7.585  71.759  1.00  0.00    -0.144 C  
BRANCH  10  11
HETATM   11  C   UNL     1      -9.502   6.083  71.532  1.00  0.00    -0.149 C  
BRANCH  11  12
HETATM   12  N   UNL     1     -10.412   5.414  72.603  1.00  0.00    -0.206 N  
HETATM   13  C   UNL     1     -11.882   5.785  72.406  1.00  0.00    -0.168 C  
HETATM   14  C   UNL     1      -9.969   5.928  73.976  1.00  0.00    -0.227 C  
HETATM   15  C   UNL     1     -10.263   3.896  72.590  1.00  0.00    -0.167 C  
ENDBRANCH  11  12
ENDBRANCH  10  11
ENDBRANCH   6  10
ENDBRANCH   2   3
TORSDOF 5
ENDMDL
MODEL      170
REMARK 921   NORMALIZED FREE ENERGY PREDICTED BY IDOCK:   -1.86 KCAL/MOL
REMARK 922        TOTAL FREE ENERGY PREDICTED BY IDOCK:   -2.65 KCAL/MOL
REMARK 923 INTER-LIGAND FREE ENERGY PREDICTED BY IDOCK:   -2.78 KCAL/MOL
REMARK 924 INTRA-LIGAND FREE ENERGY PREDICTED BY IDOCK:    0.13 KCAL/MOL
REMARK 927      BINDING AFFINITY PREDICTED BY RF-SCORE:    0.00 PKD
ROOT
HETATM    1  C   UNL     1     -11.434   9.129  71.792  1.00  0.00    -0.452 C  
HETATM    2  C   UNL     1     -12.595   8.164  71.905  1.00  0.00    -0.335 C  
ENDROOT
BRANCH   2   3
HETATM    3  O   UNL     1     -12.058   6.852  71.895  1.00  0.00    -0.311 OA 
HETATM    4  P   UNL     1     -10.374   6.667  72.245  1.00  0.00    -0.205 P  
HETATM    5  O   UNL     1     -10.650   5.027  72.289  1.00  0.00    -0.214 OA 
HETATM    6  S   UNL     1      -8.310   6.439  72.673  1.00  0.00    -0.121 SA 
HETATM    7  O   UNL     1     -10.518   7.206  73.671  1.00  0.00    -0.358 OA 
BRANCH   5   8
HETATM    8  C   UNL     1     -11.270   4.485  73.453  1.00  0.00    -0.315 C  
HETATM    9  C   UNL     1     -11.159   2.970  73.415  1.00  0.00    -0.285 C  
ENDBRANCH   5   8
BRANCH   6  10
HETATM   10  C   UNL     1      -8.049   4.894  73.560  1.00  0.00    -0.107 C  
BRANCH  10  11
HETATM   11  C   UNL     1      -7.391   3.839  72.666  1.00  0.00    -0.058 C  
BRANCH  11  12
HETATM   12  N   UNL     1      -5.837   3.838  72.761  1.00  0.00    -0.007 N  
HETATM   13  C   UNL     1      -5.201   4.599  71.598  1.00  0.00    -0.004 C  
HETATM   14  C   UNL     1      -5.369   2.382  72.694  1.00  0.00     0.000 C  
HETATM   15  C   UNL     1      -5.361   4.434  74.082  1.00  0.00    -0.008 C  
ENDBRANCH  11  12
ENDBRANCH  10  11
ENDBRANCH   6  10
ENDBRANCH   2   3
TORSDOF 5
ENDMDL
MODEL      171
REMARK 921   NORMALIZED FREE ENERGY PREDICTED BY IDOCK:   -1.77 KCAL/MOL
REMARK 922        TOTAL FREE ENERGY PREDICTED BY IDOCK:   -2.54 KCAL/MOL
REMARK 923 INTER-LIGAND FREE ENERGY PREDICTED BY IDOCK:   -2.20 KCAL/MOL
REMARK 924 INTRA-LIGAND FREE ENERGY PREDICTED BY IDOCK:   -0.34 KCAL/MOL
REMARK 927      BINDING AFFINITY PREDICTED BY RF-SCORE:    0.00 PKD
ROOT
HETATM    1  C   UNL     1      -5.566   1.950  64.487  1.00  0.00    -0.009 C  
HETATM    2  C   UNL     1      -6.806   2.115  65.338  1.00  0.00    -0.035 C  
ENDROOT
BRANCH   2   3
HETATM    3  O   UNL     1      -6.847   3.466  65.767  1.00  0.00    -0.050 OA 
HETATM    4  P   UNL     1      -8.398   4.168  66.077  1.00  0.00    -0.110 P  
HETATM    5  O   UNL     1      -7.586   5.473  66.712  1.00  0.00    -0.086 OA 
HETATM    6  S   UNL     1     -10.297   5.028  66.458  1.00  0.00    -0.273 SA 
HETATM    7  O   UNL     1      -8.705   3.202  67.226  1.00  0.00    -0.105 OA 
BRANCH   5   8
HETATM    8  C   UNL     1      -7.035   5.347  68.021  1.00  0.00    -0.065 C  
HETATM    9  C   UNL     1      -6.419   6.674  68.431  1.00  0.00    -0.049 C  
ENDBRANCH   5   8
BRANCH   6  10
HETATM   10  C   UNL     1     -10.163   6.199  67.820  1.00  0.00    -0.172 C  
BRANCH  10  11
HETATM   11  C   UNL     1     -10.701   5.605  69.124  1.00  0.00    -0.255 C  
BRANCH  11  12
HETATM   12  N   UNL     1     -10.721   6.624  70.299  1.00  0.00    -0.231 N  
HETATM   13  C   UNL     1     -12.137   6.844  70.831  1.00  0.00    -0.373 C  
HETATM   14  C   UNL     1     -10.198   7.960  69.765  1.00  0.00    -0.212 C  
HETATM   15  C   UNL     1      -9.811   6.176  71.439  1.00  0.00    -0.175 C  
ENDBRANCH  11  12
ENDBRANCH  10  11
ENDBRANCH   6  10
ENDBRANCH   2   3
TORSDOF 5
ENDMDL
MODEL      172
REMARK 921   NORMALIZED FREE ENERGY PREDICTED BY IDOCK:   -1.77 KCAL/MOL
REMARK 922        TOTAL FREE ENERGY PREDICTED BY IDOCK:   -2.54 KCAL/MOL
REMARK 923 INTER-LIGAND FREE ENERGY PREDICTED BY IDOCK:   -2.50 KCAL/MOL
REMARK 924 INTRA-LIGAND FREE ENERGY PREDICTED BY IDOCK:   -0.04 KCAL/MOL
REMARK 927      BINDING AFFINITY PREDICTED BY RF-SCORE:    0.00 PKD
ROOT
HETATM    1  C   UNL     1      -8.726  17.015  66.274  1.00  0.00    -0.285 C  
HETATM    2  C   UNL     1     -10.128  16.444  66.304  1.00  0.00    -0.331 C  
ENDROOT
BRANCH   2   3
HETATM    3  O   UNL     1     -10.038  15.082  65.921  1.00  0.00    -0.279 OA 
HETATM    4  P   UNL     1      -9.049  14.036  66.881  1.00  0.00    -0.194 P  
HETATM    5  O   UNL     1      -9.676  12.773  66.000  1.00  0.00    -0.259 OA 
HETATM    6  S   UNL     1      -7.837  12.755  68.057  1.00  0.00    -0.164 SA 
HETATM    7  O   UNL     1      -9.916  14.214  68.131  1.00  0.00    -0.220 OA 
BRANCH   5   8
HETATM    8  C   UNL     1     -10.993  12.328  66.314  1.00  0.00    -0.291 C  
HETATM    9  C   UNL     1     -11.075  10.826  66.097  1.00  0.00     0.066 C  
ENDBRANCH   5   8
BRANCH   6  10
HETATM   10  C   UNL     1      -8.568  11.110  68.098  1.00  0.00    -0.140 C  
BRANCH  10  11
HETATM   11  C   UNL     1      -8.367  10.442  69.461  1.00  0.00    -0.113 C  
BRANCH  11  12
HETATM   12  N   UNL     1      -7.354   9.262  69.422  1.00  0.00    -0.074 N  
HETATM   13  C   UNL     1      -7.738   8.156  70.405  1.00  0.00    -0.085 C  
HETATM   14  C   UNL     1      -5.985   9.812  69.833  1.00  0.00    -0.043 C  
HETATM   15  C   UNL     1      -7.232   8.679  68.018  1.00  0.00    -0.087 C  
ENDBRANCH  11  12
ENDBRANCH  10  11
ENDBRANCH   6  10
ENDBRANCH   2   3
TORSDOF 5
ENDMDL
MODEL      173
REMARK 921   NORMALIZED FREE ENERGY PREDICTED BY IDOCK:   -1.76 KCAL/MOL
REMARK 922        TOTAL FREE ENERGY PREDICTED BY IDOCK:   -2.52 KCAL/MOL
REMARK 923 INTER-LIGAND FREE ENERGY PREDICTED BY IDOCK:   -2.11 KCAL/MOL
REMARK 924 INTRA-LIGAND FREE ENERGY PREDICTED BY IDOCK:   -0.41 KCAL/MOL
REMARK 927      BINDING AFFINITY PREDICTED BY RF-SCORE:    0.00 PKD
ROOT
HETATM    1  C   UNL     1     -10.201   9.698  71.071  1.00  0.00    -0.252 C  
HETATM    2  C   UNL     1      -8.919   9.794  70.271  1.00  0.00    -0.150 C  
ENDROOT
BRANCH   2   3
HETATM    3  O   UNL     1      -8.376   8.487  70.186  1.00  0.00    -0.115 OA 
HETATM    4  P   UNL     1      -9.364   7.244  69.499  1.00  0.00    -0.150 P  
HETATM    5  O   UNL     1      -8.015   6.271  69.533  1.00  0.00    -0.104 OA 
HETATM    6  S   UNL     1     -10.574   5.720  68.658  1.00  0.00    -0.218 SA 
HETATM    7  O   UNL     1      -9.420   7.922  68.127  1.00  0.00    -0.145 OA 
BRANCH   5   8
HETATM    8  C   UNL     1      -7.023   6.468  68.529  1.00  0.00    -0.080 C  
HETATM    9  C   UNL     1      -5.651   6.200  69.126  1.00  0.00    -0.012 C  
ENDBRANCH   5   8
BRANCH   6  10
HETATM   10  C   UNL     1      -9.535   4.559  67.756  1.00  0.00    -0.156 C  
BRANCH  10  11
HETATM   11  C   UNL     1      -9.930   4.485  66.279  1.00  0.00    -0.247 C  
BRANCH  11  12
HETATM   12  N   UNL     1      -8.726   4.682  65.313  1.00  0.00    -0.132 N  
HETATM   13  C   UNL     1      -8.327   6.153  65.201  1.00  0.00    -0.129 C  
HETATM   14  C   UNL     1      -9.159   4.197  63.926  1.00  0.00    -0.140 C  
HETATM   15  C   UNL     1      -7.520   3.857  65.752  1.00  0.00    -0.081 C  
ENDBRANCH  11  12
ENDBRANCH  10  11
ENDBRANCH   6  10
ENDBRANCH   2   3
TORSDOF 5
ENDMDL
MODEL      174
REMARK 921   NORMALIZED FREE ENERGY PREDICTED BY IDOCK:   -1.76 KCAL/MOL
REMARK 922        TOTAL FREE ENERGY PREDICTED BY IDOCK:   -2.52 KCAL/MOL
REMARK 923 INTER-LIGAND FREE ENERGY PREDICTED BY IDOCK:   -2.27 KCAL/MOL
REMARK 924 INTRA-LIGAND FREE ENERGY PREDICTED BY IDOCK:   -0.24 KCAL/MOL
REMARK 927      BINDING AFFINITY PREDICTED BY RF-SCORE:    0.00 PKD
ROOT
HETATM    1  C   UNL     1     -11.279   6.015  70.600  1.00  0.00    -0.347 C  
HETATM    2  C   UNL     1      -9.832   6.014  71.044  1.00  0.00    -0.183 C  
ENDROOT
BRANCH   2   3
HETATM    3  O   UNL     1      -9.044   5.679  69.914  1.00  0.00    -0.132 OA 
HETATM    4  P   UNL     1      -9.287   6.586  68.461  1.00  0.00    -0.121 P  
HETATM    5  O   UNL     1      -7.943   5.816  67.856  1.00  0.00    -0.097 OA 
HETATM    6  S   UNL     1      -9.584   7.698  66.681  1.00  0.00    -0.196 SA 
HETATM    7  O   UNL     1      -8.827   7.902  69.099  1.00  0.00    -0.141 OA 
BRANCH   5   8
HETATM    8  C   UNL     1      -6.662   6.265  68.291  1.00  0.00    -0.068 C  
HETATM    9  C   UNL     1      -5.809   5.059  68.651  1.00  0.00    -0.021 C  
ENDBRANCH   5   8
BRANCH   6  10
HETATM   10  C   UNL     1      -8.016   7.870  65.813  1.00  0.00    -0.109 C  
BRANCH  10  11
HETATM   11  C   UNL     1      -8.226   8.274  64.351  1.00  0.00    -0.127 C  
BRANCH  11  12
HETATM   12  N   UNL     1      -8.163   9.812  64.125  1.00  0.00    -0.146 N  
HETATM   13  C   UNL     1      -7.327  10.167  62.895  1.00  0.00    -0.141 C  
HETATM   14  C   UNL     1      -7.494  10.434  65.354  1.00  0.00    -0.127 C  
HETATM   15  C   UNL     1      -9.558  10.412  63.986  1.00  0.00    -0.317 C  
ENDBRANCH  11  12
ENDBRANCH  10  11
ENDBRANCH   6  10
ENDBRANCH   2   3
TORSDOF 5
ENDMDL
MODEL      175
REMARK 921   NORMALIZED FREE ENERGY PREDICTED BY IDOCK:   -1.74 KCAL/MOL
REMARK 922        TOTAL FREE ENERGY PREDICTED BY IDOCK:   -2.49 KCAL/MOL
REMARK 923 INTER-LIGAND FREE ENERGY PREDICTED BY IDOCK:   -2.21 KCAL/MOL
REMARK 924 INTRA-LIGAND FREE ENERGY PREDICTED BY IDOCK:   -0.28 KCAL/MOL
REMARK 927      BINDING AFFINITY PREDICTED BY RF-SCORE:    0.00 PKD
ROOT
HETATM    1  C   UNL     1      -6.220   3.900  72.035  1.00  0.00    -0.014 C  
HETATM    2  C   UNL     1      -6.415   5.297  72.584  1.00  0.00    -0.055 C  
ENDROOT
BRANCH   2   3
HETATM    3  O   UNL     1      -7.630   5.795  72.051  1.00  0.00    -0.097 OA 
HETATM    4  P   UNL     1      -7.621   7.382  71.362  1.00  0.00    -0.084 P  
HETATM    5  O   UNL     1      -9.159   7.063  70.816  1.00  0.00    -0.153 OA 
HETATM    6  S   UNL     1      -7.609   9.327  70.518  1.00  0.00    -0.149 SA 
HETATM    7  O   UNL     1      -6.638   6.993  70.254  1.00  0.00    -0.045 OA 
BRANCH   5   8
HETATM    8  C   UNL     1      -9.301   6.228  69.669  1.00  0.00    -0.143 C  
HETATM    9  C   UNL     1     -10.429   5.239  69.911  1.00  0.00    -0.351 C  
ENDBRANCH   5   8
BRANCH   6  10
HETATM   10  C   UNL     1      -8.753   9.384  69.129  1.00  0.00    -0.142 C  
BRANCH  10  11
HETATM   11  C   UNL     1      -8.275  10.359  68.050  1.00  0.00    -0.114 C  
BRANCH  11  12
HETATM   12  N   UNL     1      -9.441  11.108  67.341  1.00  0.00    -0.164 N  
HETATM   13  C   UNL     1      -9.161  11.306  65.852  1.00  0.00    -0.204 C  
HETATM   14  C   UNL     1      -9.568  12.488  67.992  1.00  0.00    -0.212 C  
HETATM   15  C   UNL     1     -10.765  10.371  67.519  1.00  0.00    -0.287 C  
ENDBRANCH  11  12
ENDBRANCH  10  11
ENDBRANCH   6  10
ENDBRANCH   2   3
TORSDOF 5
ENDMDL
MODEL      176
REMARK 921   NORMALIZED FREE ENERGY PREDICTED BY IDOCK:   -1.67 KCAL/MOL
REMARK 922        TOTAL FREE ENERGY PREDICTED BY IDOCK:   -2.41 KCAL/MOL
REMARK 923 INTER-LIGAND FREE ENERGY PREDICTED BY IDOCK:   -2.09 KCAL/MOL
REMARK 924 INTRA-LIGAND FREE ENERGY PREDICTED BY IDOCK:   -0.31 KCAL/MOL
REMARK 927      BINDING AFFINITY PREDICTED BY RF-SCORE:    0.00 PKD
ROOT
HETATM    1  C   UNL     1      -6.950   1.721  70.562  1.00  0.00    -0.033 C  
HETATM    2  C   UNL     1      -7.863   2.734  71.220  1.00  0.00    -0.044 C  
ENDROOT
BRANCH   2   3
HETATM    3  O   UNL     1      -8.598   3.373  70.190  1.00  0.00    -0.058 OA 
HETATM    4  P   UNL     1      -8.371   5.073  69.969  1.00  0.00    -0.085 P  
HETATM    5  O   UNL     1      -9.269   4.928  68.577  1.00  0.00    -0.109 OA 
HETATM    6  S   UNL     1      -8.092   7.157  69.699  1.00  0.00    -0.131 SA 
HETATM    7  O   UNL     1      -6.893   4.919  69.594  1.00  0.00    -0.049 OA 
BRANCH   5   8
HETATM    8  C   UNL     1      -8.633   4.378  67.425  1.00  0.00    -0.104 C  
HETATM    9  C   UNL     1      -9.696   3.858  66.471  1.00  0.00    -0.186 C  
ENDBRANCH   5   8
BRANCH   6  10
HETATM   10  C   UNL     1      -8.229   7.558  67.949  1.00  0.00    -0.123 C  
BRANCH  10  11
HETATM   11  C   UNL     1      -8.668   9.010  67.739  1.00  0.00    -0.125 C  
BRANCH  11  12
HETATM   12  N   UNL     1      -9.974   9.140  66.903  1.00  0.00    -0.216 N  
HETATM   13  C   UNL     1     -10.967  10.103  67.555  1.00  0.00    -0.255 C  
HETATM   14  C   UNL     1     -10.624   7.755  66.837  1.00  0.00    -0.277 C  
HETATM   15  C   UNL     1      -9.679   9.598  65.478  1.00  0.00    -0.301 C  
ENDBRANCH  11  12
ENDBRANCH  10  11
ENDBRANCH   6  10
ENDBRANCH   2   3
TORSDOF 5
ENDMDL
MODEL      177
REMARK 921   NORMALIZED FREE ENERGY PREDICTED BY IDOCK:   -1.61 KCAL/MOL
REMARK 922        TOTAL FREE ENERGY PREDICTED BY IDOCK:   -2.32 KCAL/MOL
REMARK 923 INTER-LIGAND FREE ENERGY PREDICTED BY IDOCK:   -2.10 KCAL/MOL
REMARK 924 INTRA-LIGAND FREE ENERGY PREDICTED BY IDOCK:   -0.22 KCAL/MOL
REMARK 927      BINDING AFFINITY PREDICTED BY RF-SCORE:    0.00 PKD
ROOT
HETATM    1  C   UNL     1      -7.961   3.077  67.854  1.00  0.00    -0.071 C  
HETATM    2  C   UNL     1      -7.075   3.839  68.816  1.00  0.00    -0.050 C  
ENDROOT
BRANCH   2   3
HETATM    3  O   UNL     1      -7.905   4.734  69.537  1.00  0.00    -0.065 OA 
HETATM    4  P   UNL     1      -7.623   6.430  69.346  1.00  0.00    -0.098 P  
HETATM    5  O   UNL     1      -9.029   6.675  70.199  1.00  0.00    -0.150 OA 
HETATM    6  S   UNL     1      -7.276   8.508  69.111  1.00  0.00    -0.069 SA 
HETATM    7  O   UNL     1      -7.974   6.412  67.855  1.00  0.00    -0.109 OA 
BRANCH   5   8
HETATM    8  C   UNL     1     -10.266   6.488  69.517  1.00  0.00    -0.186 C  
HETATM    9  C   UNL     1     -11.224   5.731  70.422  1.00  0.00    -0.211 C  
ENDBRANCH   5   8
BRANCH   6  10
HETATM   10  C   UNL     1      -8.843   9.391  69.207  1.00  0.00    -0.150 C  
BRANCH  10  11
HETATM   11  C   UNL     1      -9.535   9.453  67.843  1.00  0.00    -0.132 C  
BRANCH  11  12
HETATM   12  N   UNL     1      -9.606  10.893  67.257  1.00  0.00    -0.163 N  
HETATM   13  C   UNL     1     -11.037  11.279  66.884  1.00  0.00    -0.275 C  
HETATM   14  C   UNL     1      -8.756  10.920  65.984  1.00  0.00    -0.186 C  
HETATM   15  C   UNL     1      -9.039  11.919  68.233  1.00  0.00    -0.183 C  
ENDBRANCH  11  12
ENDBRANCH  10  11
ENDBRANCH   6  10
ENDBRANCH   2   3
TORSDOF 5
ENDMDL
MODEL      178
REMARK 921   NORMALIZED FREE ENERGY PREDICTED BY IDOCK:   -1.60 KCAL/MOL
REMARK 922        TOTAL FREE ENERGY PREDICTED BY IDOCK:   -2.31 KCAL/MOL
REMARK 923 INTER-LIGAND FREE ENERGY PREDICTED BY IDOCK:   -2.04 KCAL/MOL
REMARK 924 INTRA-LIGAND FREE ENERGY PREDICTED BY IDOCK:   -0.28 KCAL/MOL
REMARK 927      BINDING AFFINITY PREDICTED BY RF-SCORE:    0.00 PKD
ROOT
HETATM    1  C   UNL     1      -7.245  12.234  67.717  1.00  0.00    -0.114 C  
HETATM    2  C   UNL     1      -7.472  11.173  66.661  1.00  0.00    -0.146 C  
ENDROOT
BRANCH   2   3
HETATM    3  O   UNL     1      -7.241   9.914  67.271  1.00  0.00    -0.085 OA 
HETATM    4  P   UNL     1      -8.227   9.478  68.623  1.00  0.00    -0.116 P  
HETATM    5  O   UNL     1      -7.551   7.962  68.520  1.00  0.00    -0.100 OA 
HETATM    6  S   UNL     1      -9.435   8.943  70.281  1.00  0.00    -0.202 SA 
HETATM    7  O   UNL     1      -9.517   9.475  67.797  1.00  0.00    -0.131 OA 
BRANCH   5   8
HETATM    8  C   UNL     1      -8.024   7.088  67.497  1.00  0.00    -0.113 C  
HETATM    9  C   UNL     1      -7.300   5.756  67.608  1.00  0.00    -0.077 C  
ENDBRANCH   5   8
BRANCH   6  10
HETATM   10  C   UNL     1      -9.725   7.166  70.263  1.00  0.00    -0.175 C  
BRANCH  10  11
HETATM   11  C   UNL     1      -9.014   6.471  71.427  1.00  0.00    -0.140 C  
BRANCH  11  12
HETATM   12  N   UNL     1      -9.989   5.974  72.532  1.00  0.00    -0.175 N  
HETATM   13  C   UNL     1     -11.150   5.173  71.942  1.00  0.00     0.033 C  
HETATM   14  C   UNL     1     -10.567   7.208  73.231  1.00  0.00    -0.364 C  
HETATM   15  C   UNL     1      -9.265   5.129  73.576  1.00  0.00    -0.130 C  
ENDBRANCH  11  12
ENDBRANCH  10  11
ENDBRANCH   6  10
ENDBRANCH   2   3
TORSDOF 5
ENDMDL
MODEL      179
REMARK 921   NORMALIZED FREE ENERGY PREDICTED BY IDOCK:   -1.58 KCAL/MOL
REMARK 922        TOTAL FREE ENERGY PREDICTED BY IDOCK:   -2.29 KCAL/MOL
REMARK 923 INTER-LIGAND FREE ENERGY PREDICTED BY IDOCK:   -1.83 KCAL/MOL
REMARK 924 INTRA-LIGAND FREE ENERGY PREDICTED BY IDOCK:   -0.46 KCAL/MOL
REMARK 927      BINDING AFFINITY PREDICTED BY RF-SCORE:    0.00 PKD
ROOT
HETATM    1  C   UNL     1      -6.272  10.752  66.316  1.00  0.00    -0.130 C  
HETATM    2  C   UNL     1      -6.501  10.206  64.923  1.00  0.00    -0.129 C  
ENDROOT
BRANCH   2   3
HETATM    3  O   UNL     1      -6.658   8.802  65.039  1.00  0.00    -0.067 OA 
HETATM    4  P   UNL     1      -7.871   8.211  66.122  1.00  0.00    -0.099 P  
HETATM    5  O   UNL     1      -7.580   6.701  65.489  1.00  0.00    -0.079 OA 
HETATM    6  S   UNL     1      -9.358   7.487  67.448  1.00  0.00    -0.144 SA 
HETATM    7  O   UNL     1      -9.017   8.842  65.324  1.00  0.00    -0.194 OA 
BRANCH   5   8
HETATM    8  C   UNL     1      -8.130   6.394  64.210  1.00  0.00    -0.063 C  
HETATM    9  C   UNL     1      -7.228   5.392  63.509  1.00  0.00    -0.049 C  
ENDBRANCH   5   8
BRANCH   6  10
HETATM   10  C   UNL     1     -10.070   5.974  66.781  1.00  0.00    -0.187 C  
BRANCH  10  11
HETATM   11  C   UNL     1     -10.022   4.835  67.803  1.00  0.00    -0.112 C  
BRANCH  11  12
HETATM   12  N   UNL     1      -9.039   3.696  67.405  1.00  0.00    -0.146 N  
HETATM   13  C   UNL     1      -9.156   3.343  65.923  1.00  0.00    -0.154 C  
HETATM   14  C   UNL     1      -9.411   2.455  68.223  1.00  0.00    -0.209 C  
HETATM   15  C   UNL     1      -7.596   4.067  67.730  1.00  0.00    -0.068 C  
ENDBRANCH  11  12
ENDBRANCH  10  11
ENDBRANCH   6  10
ENDBRANCH   2   3
TORSDOF 5
ENDMDL
MODEL      180
REMARK 921   NORMALIZED FREE ENERGY PREDICTED BY IDOCK:   -1.58 KCAL/MOL
REMARK 922        TOTAL FREE ENERGY PREDICTED BY IDOCK:   -2.29 KCAL/MOL
REMARK 923 INTER-LIGAND FREE ENERGY PREDICTED BY IDOCK:   -2.47 KCAL/MOL
REMARK 924 INTRA-LIGAND FREE ENERGY PREDICTED BY IDOCK:    0.19 KCAL/MOL
REMARK 927      BINDING AFFINITY PREDICTED BY RF-SCORE:    0.00 PKD
ROOT
HETATM    1  C   UNL     1      -7.201   4.417  67.261  1.00  0.00    -0.069 C  
HETATM    2  C   UNL     1      -7.030   5.918  67.359  1.00  0.00    -0.069 C  
ENDROOT
BRANCH   2   3
HETATM    3  O   UNL     1      -8.264   6.456  67.804  1.00  0.00    -0.117 OA 
HETATM    4  P   UNL     1      -8.540   8.147  67.567  1.00  0.00    -0.130 P  
HETATM    5  O   UNL     1     -10.107   7.874  68.051  1.00  0.00    -0.177 OA 
HETATM    6  S   UNL     1      -8.878  10.220  67.277  1.00  0.00    -0.131 SA 
HETATM    7  O   UNL     1      -8.492   8.033  66.040  1.00  0.00    -0.121 OA 
BRANCH   5   8
HETATM    8  C   UNL     1     -11.002   7.279  67.114  1.00  0.00    -0.215 C  
HETATM    9  C   UNL     1     -11.100   5.789  67.396  1.00  0.00     0.021 C  
ENDBRANCH   5   8
BRANCH   6  10
HETATM   10  C   UNL     1     -10.625  10.501  66.945  1.00  0.00    -0.243 C  
BRANCH  10  11
HETATM   11  C   UNL     1     -11.317  11.186  68.126  1.00  0.00    -0.309 C  
BRANCH  11  12
HETATM   12  N   UNL     1     -11.505  12.717  67.922  1.00  0.00    -0.295 N  
HETATM   13  C   UNL     1     -12.220  13.027  66.607  1.00  0.00    -0.217 C  
HETATM   14  C   UNL     1     -10.113  13.354  67.872  1.00  0.00    -0.238 C  
HETATM   15  C   UNL     1     -12.275  13.343  69.081  1.00  0.00    -0.165 C  
ENDBRANCH  11  12
ENDBRANCH  10  11
ENDBRANCH   6  10
ENDBRANCH   2   3
TORSDOF 5
ENDMDL
MODEL      181
REMARK 921   NORMALIZED FREE ENERGY PREDICTED BY IDOCK:   -1.56 KCAL/MOL
REMARK 922        TOTAL FREE ENERGY PREDICTED BY IDOCK:   -2.27 KCAL/MOL
REMARK 923 INTER-LIGAND FREE ENERGY PREDICTED BY IDOCK:   -1.98 KCAL/MOL
REMARK 924 INTRA-LIGAND FREE ENERGY PREDICTED BY IDOCK:   -0.29 KCAL/MOL
REMARK 927      BINDING AFFINITY PREDICTED BY RF-SCORE:    0.00 PKD
ROOT
HETATM    1  C   UNL     1      -9.867  12.630  67.963  1.00  0.00    -0.218 C  
HETATM    2  C   UNL     1      -8.995  11.412  67.740  1.00  0.00    -0.147 C  
ENDROOT
BRANCH   2   3
HETATM    3  O   UNL     1      -8.458  11.040  68.998  1.00  0.00    -0.147 OA 
HETATM    4  P   UNL     1      -9.011   9.562  69.707  1.00  0.00    -0.229 P  
HETATM    5  O   UNL     1      -7.816   9.761  70.847  1.00  0.00    -0.299 OA 
HETATM    6  S   UNL     1      -9.688   7.751  70.576  1.00  0.00    -0.174 SA 
HETATM    7  O   UNL     1      -8.442   8.701  68.575  1.00  0.00    -0.128 OA 
BRANCH   5   8
HETATM    8  C   UNL     1      -6.477   9.444  70.474  1.00  0.00    -0.078 C  
HETATM    9  C   UNL     1      -5.602   9.441  71.717  1.00  0.00    -0.070 C  
ENDBRANCH   5   8
BRANCH   6  10
HETATM   10  C   UNL     1      -8.339   6.984  71.490  1.00  0.00    -0.112 C  
BRANCH  10  11
HETATM   11  C   UNL     1      -7.499   6.074  70.590  1.00  0.00    -0.087 C  
BRANCH  11  12
HETATM   12  N   UNL     1      -7.911   4.576  70.678  1.00  0.00    -0.056 N  
HETATM   13  C   UNL     1      -8.856   4.183  69.542  1.00  0.00    -0.089 C  
HETATM   14  C   UNL     1      -8.648   4.374  72.005  1.00  0.00    -0.112 C  
HETATM   15  C   UNL     1      -6.690   3.661  70.666  1.00  0.00    -0.033 C  
ENDBRANCH  11  12
ENDBRANCH  10  11
ENDBRANCH   6  10
ENDBRANCH   2   3
TORSDOF 5
ENDMDL
MODEL      182
REMARK 921   NORMALIZED FREE ENERGY PREDICTED BY IDOCK:   -1.56 KCAL/MOL
REMARK 922        TOTAL FREE ENERGY PREDICTED BY IDOCK:   -2.27 KCAL/MOL
REMARK 923 INTER-LIGAND FREE ENERGY PREDICTED BY IDOCK:   -2.15 KCAL/MOL
REMARK 924 INTRA-LIGAND FREE ENERGY PREDICTED BY IDOCK:   -0.12 KCAL/MOL
REMARK 927      BINDING AFFINITY PREDICTED BY RF-SCORE:    0.00 PKD
ROOT
HETATM    1  C   UNL     1     -10.730   8.949  71.724  1.00  0.00    -0.432 C  
HETATM    2  C   UNL     1      -9.484   9.081  70.875  1.00  0.00    -0.267 C  
ENDROOT
BRANCH   2   3
HETATM    3  O   UNL     1      -8.649   7.976  71.175  1.00  0.00    -0.122 OA 
HETATM    4  P   UNL     1      -9.198   6.400  70.718  1.00  0.00    -0.157 P  
HETATM    5  O   UNL     1      -7.687   5.845  71.136  1.00  0.00    -0.104 OA 
HETATM    6  S   UNL     1      -9.871   4.470  70.158  1.00  0.00    -0.212 SA 
HETATM    7  O   UNL     1      -9.180   6.730  69.222  1.00  0.00    -0.142 OA 
BRANCH   5   8
HETATM    8  C   UNL     1      -6.614   6.075  70.226  1.00  0.00    -0.044 C  
HETATM    9  C   UNL     1      -5.343   6.343  71.014  1.00  0.00    -0.019 C  
ENDBRANCH   5   8
BRANCH   6  10
HETATM   10  C   UNL     1      -8.459   3.456  69.689  1.00  0.00    -0.060 C  
BRANCH  10  11
HETATM   11  C   UNL     1      -8.832   2.445  68.601  1.00  0.00    -0.106 C  
BRANCH  11  12
HETATM   12  N   UNL     1      -8.680   3.012  67.160  1.00  0.00    -0.115 N  
HETATM   13  C   UNL     1      -9.779   4.023  66.833  1.00  0.00    -0.185 C  
HETATM   14  C   UNL     1      -8.804   1.838  66.184  1.00  0.00    -0.116 C  
HETATM   15  C   UNL     1      -7.314   3.659  66.958  1.00  0.00    -0.068 C  
ENDBRANCH  11  12
ENDBRANCH  10  11
ENDBRANCH   6  10
ENDBRANCH   2   3
TORSDOF 5
ENDMDL
MODEL      183
REMARK 921   NORMALIZED FREE ENERGY PREDICTED BY IDOCK:   -1.53 KCAL/MOL
REMARK 922        TOTAL FREE ENERGY PREDICTED BY IDOCK:   -2.22 KCAL/MOL
REMARK 923 INTER-LIGAND FREE ENERGY PREDICTED BY IDOCK:   -2.85 KCAL/MOL
REMARK 924 INTRA-LIGAND FREE ENERGY PREDICTED BY IDOCK:    0.62 KCAL/MOL
REMARK 927      BINDING AFFINITY PREDICTED BY RF-SCORE:    0.00 PKD
ROOT
HETATM    1  C   UNL     1      -5.294  10.173  63.283  1.00  0.00    -0.114 C  
HETATM    2  C   UNL     1      -6.449   9.199  63.200  1.00  0.00    -0.090 C  
ENDROOT
BRANCH   2   3
HETATM    3  O   UNL     1      -7.296   9.452  64.308  1.00  0.00    -0.103 OA 
HETATM    4  P   UNL     1      -8.507  10.675  64.137  1.00  0.00     0.086 P  
HETATM    5  O   UNL     1      -9.115  10.159  65.596  1.00  0.00    -0.162 OA 
HETATM    6  S   UNL     1      -9.990  12.175  63.928  1.00  0.00    -0.251 SA 
HETATM    7  O   UNL     1      -9.243   9.919  63.027  1.00  0.00    -0.266 OA 
BRANCH   5   8
HETATM    8  C   UNL     1      -9.886   8.960  65.612  1.00  0.00     0.077 C  
HETATM    9  C   UNL     1      -9.113   7.881  66.353  1.00  0.00    -0.221 C  
ENDBRANCH   5   8
BRANCH   6  10
HETATM   10  C   UNL     1     -11.454  11.705  64.865  1.00  0.00    -0.136 C  
BRANCH  10  11
HETATM   11  C   UNL     1     -11.337  12.122  66.333  1.00  0.00    -0.356 C  
BRANCH  11  12
HETATM   12  N   UNL     1     -11.312  13.665  66.531  1.00  0.00    -0.311 N  
HETATM   13  C   UNL     1      -9.883  14.200  66.619  1.00  0.00    -0.283 C  
HETATM   14  C   UNL     1     -12.021  13.975  67.853  1.00  0.00    -0.351 C  
HETATM   15  C   UNL     1     -12.057  14.382  65.409  1.00  0.00    -0.364 C  
ENDBRANCH  11  12
ENDBRANCH  10  11
ENDBRANCH   6  10
ENDBRANCH   2   3
TORSDOF 5
ENDMDL
MODEL      184
REMARK 921   NORMALIZED FREE ENERGY PREDICTED BY IDOCK:   -1.52 KCAL/MOL
REMARK 922        TOTAL FREE ENERGY PREDICTED BY IDOCK:   -2.21 KCAL/MOL
REMARK 923 INTER-LIGAND FREE ENERGY PREDICTED BY IDOCK:   -1.90 KCAL/MOL
REMARK 924 INTRA-LIGAND FREE ENERGY PREDICTED BY IDOCK:   -0.31 KCAL/MOL
REMARK 927      BINDING AFFINITY PREDICTED BY RF-SCORE:    0.00 PKD
ROOT
HETATM    1  C   UNL     1      -7.956   8.238  65.137  1.00  0.00    -0.128 C  
HETATM    2  C   UNL     1      -9.212   8.241  65.981  1.00  0.00    -0.166 C  
ENDROOT
BRANCH   2   3
HETATM    3  O   UNL     1      -8.860   8.736  67.262  1.00  0.00    -0.130 OA 
HETATM    4  P   UNL     1      -9.609   8.010  68.642  1.00  0.00    -0.153 P  
HETATM    5  O   UNL     1      -8.547   8.887  69.574  1.00  0.00    -0.127 OA 
HETATM    6  S   UNL     1     -10.525   7.120  70.334  1.00  0.00    -0.223 SA 
HETATM    7  O   UNL     1      -8.979   6.639  68.376  1.00  0.00    -0.124 OA 
BRANCH   5   8
HETATM    8  C   UNL     1      -7.202   8.424  69.671  1.00  0.00    -0.057 C  
HETATM    9  C   UNL     1      -6.257   9.573  69.361  1.00  0.00    -0.040 C  
ENDBRANCH   5   8
BRANCH   6  10
HETATM   10  C   UNL     1      -9.360   7.102  71.707  1.00  0.00    -0.147 C  
BRANCH  10  11
HETATM   11  C   UNL     1      -8.976   5.672  72.096  1.00  0.00    -0.137 C  
BRANCH  11  12
HETATM   12  N   UNL     1      -8.421   5.560  73.546  1.00  0.00    -0.113 N  
HETATM   13  C   UNL     1      -6.921   5.264  73.553  1.00  0.00    -0.081 C  
HETATM   14  C   UNL     1      -9.141   4.396  74.230  1.00  0.00    -0.103 C  
HETATM   15  C   UNL     1      -8.695   6.829  74.346  1.00  0.00    -0.171 C  
ENDBRANCH  11  12
ENDBRANCH  10  11
ENDBRANCH   6  10
ENDBRANCH   2   3
TORSDOF 5
ENDMDL
MODEL      185
REMARK 921   NORMALIZED FREE ENERGY PREDICTED BY IDOCK:   -1.50 KCAL/MOL
REMARK 922        TOTAL FREE ENERGY PREDICTED BY IDOCK:   -2.19 KCAL/MOL
REMARK 923 INTER-LIGAND FREE ENERGY PREDICTED BY IDOCK:   -1.83 KCAL/MOL
REMARK 924 INTRA-LIGAND FREE ENERGY PREDICTED BY IDOCK:   -0.36 KCAL/MOL
REMARK 927      BINDING AFFINITY PREDICTED BY RF-SCORE:    0.00 PKD
ROOT
HETATM    1  C   UNL     1     -10.240  11.878  64.367  1.00  0.00    -0.333 C  
HETATM    2  C   UNL     1      -9.273  10.746  64.643  1.00  0.00    -0.219 C  
ENDROOT
BRANCH   2   3
HETATM    3  O   UNL     1      -8.834  10.883  65.984  1.00  0.00    -0.176 OA 
HETATM    4  P   UNL     1      -9.128   9.568  67.069  1.00  0.00    -0.138 P  
HETATM    5  O   UNL     1      -8.166  10.367  68.165  1.00  0.00    -0.112 OA 
HETATM    6  S   UNL     1      -9.489   7.956  68.398  1.00  0.00    -0.149 SA 
HETATM    7  O   UNL     1      -8.239   8.601  66.281  1.00  0.00    -0.110 OA 
BRANCH   5   8
HETATM    8  C   UNL     1      -6.754  10.308  67.983  1.00  0.00    -0.066 C  
HETATM    9  C   UNL     1      -6.074  11.050  69.122  1.00  0.00    -0.045 C  
ENDBRANCH   5   8
BRANCH   6  10
HETATM   10  C   UNL     1      -8.133   7.837  69.577  1.00  0.00    -0.126 C  
BRANCH  10  11
HETATM   11  C   UNL     1      -7.082   6.822  69.119  1.00  0.00    -0.088 C  
BRANCH  11  12
HETATM   12  N   UNL     1      -7.247   5.425  69.785  1.00  0.00    -0.062 N  
HETATM   13  C   UNL     1      -8.233   5.471  70.953  1.00  0.00    -0.118 C  
HETATM   14  C   UNL     1      -5.880   5.005  70.330  1.00  0.00    -0.017 C  
HETATM   15  C   UNL     1      -7.702   4.377  68.774  1.00  0.00    -0.066 C  
ENDBRANCH  11  12
ENDBRANCH  10  11
ENDBRANCH   6  10
ENDBRANCH   2   3
TORSDOF 5
ENDMDL
MODEL      186
REMARK 921   NORMALIZED FREE ENERGY PREDICTED BY IDOCK:   -1.45 KCAL/MOL
REMARK 922        TOTAL FREE ENERGY PREDICTED BY IDOCK:   -2.13 KCAL/MOL
REMARK 923 INTER-LIGAND FREE ENERGY PREDICTED BY IDOCK:   -1.88 KCAL/MOL
REMARK 924 INTRA-LIGAND FREE ENERGY PREDICTED BY IDOCK:   -0.25 KCAL/MOL
REMARK 927      BINDING AFFINITY PREDICTED BY RF-SCORE:    0.00 PKD
ROOT
HETATM    1  C   UNL     1      -6.809  10.983  66.160  1.00  0.00    -0.059 C  
HETATM    2  C   UNL     1      -7.200   9.564  65.809  1.00  0.00    -0.097 C  
ENDROOT
BRANCH   2   3
HETATM    3  O   UNL     1      -7.403   8.868  67.027  1.00  0.00    -0.082 OA 
HETATM    4  P   UNL     1      -8.640   9.444  68.091  1.00  0.00    -0.119 P  
HETATM    5  O   UNL     1      -8.395   8.063  68.986  1.00  0.00    -0.126 OA 
HETATM    6  S   UNL     1     -10.155  10.149  69.395  1.00  0.00    -0.242 SA 
HETATM    7  O   UNL     1      -9.761   9.160  67.087  1.00  0.00    -0.161 OA 
BRANCH   5   8
HETATM    8  C   UNL     1      -8.948   6.843  68.499  1.00  0.00    -0.122 C  
HETATM    9  C   UNL     1      -8.683   5.739  69.508  1.00  0.00    -0.111 C  
ENDBRANCH   5   8
BRANCH   6  10
HETATM   10  C   UNL     1     -10.912   8.753  70.244  1.00  0.00    -0.235 C  
BRANCH  10  11
HETATM   11  C   UNL     1     -11.397   9.145  71.642  1.00  0.00    -0.376 C  
BRANCH  11  12
HETATM   12  N   UNL     1     -12.862   9.669  71.659  1.00  0.00    -0.373 N  
HETATM   13  C   UNL     1     -13.581   9.375  70.342  1.00  0.00     0.740 C  
HETATM   14  C   UNL     1     -12.810  11.188  71.846  1.00  0.00    -0.294 C  
HETATM   15  C   UNL     1     -13.654   9.072  72.817  1.00  0.00    -0.222 C  
ENDBRANCH  11  12
ENDBRANCH  10  11
ENDBRANCH   6  10
ENDBRANCH   2   3
TORSDOF 5
ENDMDL
MODEL      187
REMARK 921   NORMALIZED FREE ENERGY PREDICTED BY IDOCK:   -1.06 KCAL/MOL
REMARK 922        TOTAL FREE ENERGY PREDICTED BY IDOCK:   -1.62 KCAL/MOL
REMARK 923 INTER-LIGAND FREE ENERGY PREDICTED BY IDOCK:   -3.71 KCAL/MOL
REMARK 924 INTRA-LIGAND FREE ENERGY PREDICTED BY IDOCK:    2.09 KCAL/MOL
REMARK 927      BINDING AFFINITY PREDICTED BY RF-SCORE:    0.00 PKD
ROOT
HETATM    1  C   UNL     1      -5.127  18.700  70.866  1.00  0.00    -0.270 C  
HETATM    2  C   UNL     1      -5.720  17.340  70.570  1.00  0.00    -0.038 C  
ENDROOT
BRANCH   2   3
HETATM    3  O   UNL     1      -5.787  17.205  69.160  1.00  0.00    -0.169 OA 
HETATM    4  P   UNL     1      -7.004  16.165  68.505  1.00  0.00    -0.153 P  
HETATM    5  O   UNL     1      -6.585  16.757  67.008  1.00  0.00    -0.167 OA 
HETATM    6  S   UNL     1      -8.496  14.890  67.702  1.00  0.00    -0.179 SA 
HETATM    7  O   UNL     1      -8.155  17.021  69.044  1.00  0.00    -0.226 OA 
BRANCH   5   8
HETATM    8  C   UNL     1      -7.057  18.053  66.646  1.00  0.00    -0.211 C  
HETATM    9  C   UNL     1      -8.426  18.275  67.266  1.00  0.00    -0.250 C  
ENDBRANCH   5   8
BRANCH   6  10
HETATM   10  C   UNL     1      -9.075  15.559  66.133  1.00  0.00    -0.324 C  
BRANCH  10  11
HETATM   11  C   UNL     1     -10.600  15.681  66.106  1.00  0.00    -0.320 C  
BRANCH  11  12
HETATM   12  N   UNL     1     -11.296  14.505  65.362  1.00  0.00    -0.331 N  
HETATM   13  C   UNL     1     -12.388  15.003  64.416  1.00  0.00    -0.266 C  
HETATM   14  C   UNL     1     -11.950  13.610  66.418  1.00  0.00    -0.426 C  
HETATM   15  C   UNL     1     -10.288  13.666  64.582  1.00  0.00    -0.384 C  
ENDBRANCH  11  12
ENDBRANCH  10  11
ENDBRANCH   6  10
ENDBRANCH   2   3
TORSDOF 5
ENDMDL
MODEL      188
REMARK 921   NORMALIZED FREE ENERGY PREDICTED BY IDOCK:   -1.05 KCAL/MOL
REMARK 922        TOTAL FREE ENERGY PREDICTED BY IDOCK:   -1.61 KCAL/MOL
REMARK 923 INTER-LIGAND FREE ENERGY PREDICTED BY IDOCK:   -1.76 KCAL/MOL
REMARK 924 INTRA-LIGAND FREE ENERGY PREDICTED BY IDOCK:    0.15 KCAL/MOL
REMARK 927      BINDING AFFINITY PREDICTED BY RF-SCORE:    0.00 PKD
ROOT
HETATM    1  C   UNL     1      -8.949  11.535  67.113  1.00  0.00    -0.166 C  
HETATM    2  C   UNL     1      -7.979  10.403  67.378  1.00  0.00    -0.107 C  
ENDROOT
BRANCH   2   3
HETATM    3  O   UNL     1      -7.704  10.399  68.768  1.00  0.00    -0.090 OA 
HETATM    4  P   UNL     1      -8.224   9.030  69.690  1.00  0.00    -0.135 P  
HETATM    5  O   UNL     1      -7.355   9.661  70.960  1.00  0.00    -0.321 OA 
HETATM    6  S   UNL     1      -8.861   7.353  70.819  1.00  0.00    -0.150 SA 
HETATM    7  O   UNL     1      -7.312   8.060  68.932  1.00  0.00    -0.077 OA 
BRANCH   5   8
HETATM    8  C   UNL     1      -5.938   9.504  70.944  1.00  0.00    -0.073 C  
HETATM    9  C   UNL     1      -5.440   9.349  72.371  1.00  0.00    -0.040 C  
ENDBRANCH   5   8
BRANCH   6  10
HETATM   10  C   UNL     1      -7.676   7.033  72.137  1.00  0.00    -0.092 C  
BRANCH  10  11
HETATM   11  C   UNL     1      -7.332   5.544  72.231  1.00  0.00    -0.094 C  
BRANCH  11  12
HETATM   12  N   UNL     1      -8.279   4.755  73.181  1.00  0.00    -0.100 N  
HETATM   13  C   UNL     1      -7.502   4.037  74.284  1.00  0.00    -0.071 C  
HETATM   14  C   UNL     1      -9.004   3.699  72.342  1.00  0.00    -0.103 C  
HETATM   15  C   UNL     1      -9.328   5.670  73.807  1.00  0.00    -0.137 C  
ENDBRANCH  11  12
ENDBRANCH  10  11
ENDBRANCH   6  10
ENDBRANCH   2   3
TORSDOF 5
ENDMDL
MODEL      189
REMARK 921   NORMALIZED FREE ENERGY PREDICTED BY IDOCK:   -1.03 KCAL/MOL
REMARK 922        TOTAL FREE ENERGY PREDICTED BY IDOCK:   -1.58 KCAL/MOL
REMARK 923 INTER-LIGAND FREE ENERGY PREDICTED BY IDOCK:   -2.71 KCAL/MOL
REMARK 924 INTRA-LIGAND FREE ENERGY PREDICTED BY IDOCK:    1.13 KCAL/MOL
REMARK 927      BINDING AFFINITY PREDICTED BY RF-SCORE:    0.00 PKD
ROOT
HETATM    1  C   UNL     1     -11.137  16.030  67.826  1.00  0.00    -0.273 C  
HETATM    2  C   UNL     1     -10.978  15.337  69.162  1.00  0.00    -0.251 C  
ENDROOT
BRANCH   2   3
HETATM    3  O   UNL     1     -10.118  14.228  68.964  1.00  0.00    -0.209 OA 
HETATM    4  P   UNL     1     -10.426  13.199  67.608  1.00  0.00    -0.227 P  
HETATM    5  O   UNL     1      -8.978  12.456  67.949  1.00  0.00    -0.168 OA 
HETATM    6  S   UNL     1     -10.804  11.938  65.946  1.00  0.00    -0.306 SA 
HETATM    7  O   UNL     1     -10.156  14.310  66.589  1.00  0.00    -0.261 OA 
BRANCH   5   8
HETATM    8  C   UNL     1      -7.778  13.124  67.566  1.00  0.00    -0.166 C  
HETATM    9  C   UNL     1      -6.816  13.133  68.743  1.00  0.00    -0.102 C  
ENDBRANCH   5   8
BRANCH   6  10
HETATM   10  C   UNL     1      -9.242  11.318  65.298  1.00  0.00    -0.172 C  
BRANCH  10  11
HETATM   11  C   UNL     1      -9.411  10.737  63.892  1.00  0.00    -0.253 C  
BRANCH  11  12
HETATM   12  N   UNL     1      -8.184   9.903  63.422  1.00  0.00    -0.149 N  
HETATM   13  C   UNL     1      -7.422   9.306  64.605  1.00  0.00    -0.102 C  
HETATM   14  C   UNL     1      -7.240  10.846  62.672  1.00  0.00     0.104 C  
HETATM   15  C   UNL     1      -8.602   8.787  62.469  1.00  0.00    -0.170 C  
ENDBRANCH  11  12
ENDBRANCH  10  11
ENDBRANCH   6  10
ENDBRANCH   2   3
TORSDOF 5
ENDMDL
MODEL      190
REMARK 921   NORMALIZED FREE ENERGY PREDICTED BY IDOCK:   -0.01 KCAL/MOL
REMARK 922        TOTAL FREE ENERGY PREDICTED BY IDOCK:   -0.26 KCAL/MOL
REMARK 923 INTER-LIGAND FREE ENERGY PREDICTED BY IDOCK:   -2.23 KCAL/MOL
REMARK 924 INTRA-LIGAND FREE ENERGY PREDICTED BY IDOCK:    1.97 KCAL/MOL
REMARK 927      BINDING AFFINITY PREDICTED BY RF-SCORE:    0.00 PKD
ROOT
HETATM    1  C   UNL     1      -6.070  19.313  69.478  1.00  0.00    -0.306 C  
HETATM    2  C   UNL     1      -5.671  17.859  69.604  1.00  0.00    -0.233 C  
ENDROOT
BRANCH   2   3
HETATM    3  O   UNL     1      -6.051  17.210  68.402  1.00  0.00    -0.141 OA 
HETATM    4  P   UNL     1      -5.946  15.484  68.348  1.00  0.00    -0.124 P  
HETATM    5  O   UNL     1      -6.742  15.566  66.890  1.00  0.00    -0.234 OA 
HETATM    6  S   UNL     1      -5.818  13.369  68.281  1.00  0.00    -0.109 SA 
HETATM    7  O   UNL     1      -6.997  15.295  69.447  1.00  0.00    -0.150 OA 
BRANCH   5   8
HETATM    8  C   UNL     1      -8.150  15.791  66.908  1.00  0.00    -0.257 C  
HETATM    9  C   UNL     1      -8.507  16.609  68.138  1.00  0.00    -0.198 C  
ENDBRANCH   5   8
BRANCH   6  10
HETATM   10  C   UNL     1      -7.148  12.720  67.255  1.00  0.00    -0.082 C  
BRANCH  10  11
HETATM   11  C   UNL     1      -7.518  11.290  67.657  1.00  0.00    -0.101 C  
BRANCH  11  12
HETATM   12  N   UNL     1      -6.969  10.216  66.673  1.00  0.00    -0.089 N  
HETATM   13  C   UNL     1      -8.098   9.421  66.018  1.00  0.00    -0.111 C  
HETATM   14  C   UNL     1      -6.105   9.244  67.482  1.00  0.00    -0.054 C  
HETATM   15  C   UNL     1      -6.095  10.846  65.593  1.00  0.00    -0.040 C  
ENDBRANCH  11  12
ENDBRANCH  10  11
ENDBRANCH   6  10
ENDBRANCH   2   3
TORSDOF 5
ENDMDL
MODEL      191
REMARK 921   NORMALIZED FREE ENERGY PREDICTED BY IDOCK:    0.42 KCAL/MOL
REMARK 922        TOTAL FREE ENERGY PREDICTED BY IDOCK:    0.29 KCAL/MOL
REMARK 923 INTER-LIGAND FREE ENERGY PREDICTED BY IDOCK:   -2.28 KCAL/MOL
REMARK 924 INTRA-LIGAND FREE ENERGY PREDICTED BY IDOCK:    2.58 KCAL/MOL
REMARK 927      BINDING AFFINITY PREDICTED BY RF-SCORE:    0.00 PKD
ROOT
HETATM    1  C   UNL     1     -12.261  11.076  69.198  1.00  0.00    -0.229 C  
HETATM    2  C   UNL     1     -10.878  11.104  69.812  1.00  0.00    -0.090 C  
ENDROOT
BRANCH   2   3
HETATM    3  O   UNL     1      -9.976  11.527  68.804  1.00  0.00    -0.205 OA 
HETATM    4  P   UNL     1      -9.322  10.323  67.747  1.00  0.00    -0.145 P  
HETATM    5  O   UNL     1      -8.696  11.574  66.848  1.00  0.00    -0.167 OA 
HETATM    6  S   UNL     1      -8.521   8.848  66.452  1.00  0.00    -0.121 SA 
HETATM    7  O   UNL     1     -10.692   9.964  67.163  1.00  0.00    -0.253 OA 
BRANCH   5   8
HETATM    8  C   UNL     1      -9.581  12.291  65.991  1.00  0.00    -0.222 C  
HETATM    9  C   UNL     1     -10.767  11.404  65.647  1.00  0.00    -0.301 C  
ENDBRANCH   5   8
BRANCH   6  10
HETATM   10  C   UNL     1      -8.292   9.553  64.811  1.00  0.00    -0.150 C  
BRANCH  10  11
HETATM   11  C   UNL     1      -6.809   9.762  64.493  1.00  0.00    -0.118 C  
BRANCH  11  12
HETATM   12  N   UNL     1      -6.226   8.672  63.548  1.00  0.00    -0.081 N  
HETATM   13  C   UNL     1      -7.314   8.030  62.688  1.00  0.00    -0.101 C  
HETATM   14  C   UNL     1      -5.604   7.581  64.425  1.00  0.00    -0.033 C  
HETATM   15  C   UNL     1      -5.133   9.242  62.649  1.00  0.00    -0.068 C  
ENDBRANCH  11  12
ENDBRANCH  10  11
ENDBRANCH   6  10
ENDBRANCH   2   3
TORSDOF 5
ENDMDL
MODEL      192
REMARK 921   NORMALIZED FREE ENERGY PREDICTED BY IDOCK:    0.43 KCAL/MOL
REMARK 922        TOTAL FREE ENERGY PREDICTED BY IDOCK:    0.31 KCAL/MOL
REMARK 923 INTER-LIGAND FREE ENERGY PREDICTED BY IDOCK:   -2.97 KCAL/MOL
REMARK 924 INTRA-LIGAND FREE ENERGY PREDICTED BY IDOCK:    3.28 KCAL/MOL
REMARK 927      BINDING AFFINITY PREDICTED BY RF-SCORE:    0.00 PKD
ROOT
HETATM    1  C   UNL     1     -10.901   5.856  70.302  1.00  0.00    -0.391 C  
HETATM    2  C   UNL     1     -11.954   6.871  70.691  1.00  0.00    -0.348 C  
ENDROOT
BRANCH   2   3
HETATM    3  O   UNL     1     -11.404   8.158  70.466  1.00  0.00    -0.268 OA 
HETATM    4  P   UNL     1      -9.907   8.258  69.605  1.00  0.00    -0.191 P  
HETATM    5  O   UNL     1     -10.138   9.904  69.563  1.00  0.00    -0.193 OA 
HETATM    6  S   UNL     1      -8.072   8.381  68.549  1.00  0.00    -0.124 SA 
HETATM    7  O   UNL     1     -10.501   7.667  68.322  1.00  0.00    -0.199 OA 
BRANCH   5   8
HETATM    8  C   UNL     1     -11.073  10.425  68.621  1.00  0.00    -0.262 C  
HETATM    9  C   UNL     1     -10.864   9.738  67.282  1.00  0.00    -0.247 C  
ENDBRANCH   5   8
BRANCH   6  10
HETATM   10  C   UNL     1      -8.057   9.876  67.547  1.00  0.00    -0.110 C  
BRANCH  10  11
HETATM   11  C   UNL     1      -7.053   9.768  66.396  1.00  0.00    -0.094 C  
BRANCH  11  12
HETATM   12  N   UNL     1      -7.664   9.148  65.106  1.00  0.00    -0.101 N  
HETATM   13  C   UNL     1      -8.923   9.894  64.664  1.00  0.00    -0.222 C  
HETATM   14  C   UNL     1      -8.052   7.702  65.425  1.00  0.00    -0.128 C  
HETATM   15  C   UNL     1      -6.653   9.131  63.964  1.00  0.00    -0.089 C  
ENDBRANCH  11  12
ENDBRANCH  10  11
ENDBRANCH   6  10
ENDBRANCH   2   3
TORSDOF 5
ENDMDL
MODEL      193
REMARK 921   NORMALIZED FREE ENERGY PREDICTED BY IDOCK:    2.14 KCAL/MOL
REMARK 922        TOTAL FREE ENERGY PREDICTED BY IDOCK:    2.52 KCAL/MOL
REMARK 923 INTER-LIGAND FREE ENERGY PREDICTED BY IDOCK:   -1.49 KCAL/MOL
REMARK 924 INTRA-LIGAND FREE ENERGY PREDICTED BY IDOCK:    4.01 KCAL/MOL
REMARK 927      BINDING AFFINITY PREDICTED BY RF-SCORE:    0.00 PKD
ROOT
HETATM    1  C   UNL     1     -11.212   5.616  69.928  1.00  0.00    -0.010 C  
HETATM    2  C   UNL     1     -11.563   7.075  70.126  1.00  0.00    -0.225 C  
ENDROOT
BRANCH   2   3
HETATM    3  O   UNL     1     -10.360   7.817  70.028  1.00  0.00    -0.210 OA 
HETATM    4  P   UNL     1      -9.026   7.088  69.202  1.00  0.00    -0.131 P  
HETATM    5  O   UNL     1      -8.264   8.562  69.308  1.00  0.00    -0.111 OA 
HETATM    6  S   UNL     1      -7.391   6.195  68.190  1.00  0.00    -0.087 SA 
HETATM    7  O   UNL     1      -9.767   7.037  67.862  1.00  0.00    -0.124 OA 
BRANCH   5   8
HETATM    8  C   UNL     1      -8.665   9.589  68.404  1.00  0.00    -0.124 C  
HETATM    9  C   UNL     1      -9.110   8.954  67.097  1.00  0.00    -0.160 C  
ENDBRANCH   5   8
BRANCH   6  10
HETATM   10  C   UNL     1      -6.452   7.468  67.329  1.00  0.00    -0.061 C  
BRANCH  10  11
HETATM   11  C   UNL     1      -5.628   6.876  66.183  1.00  0.00    -0.026 C  
BRANCH  11  12
HETATM   12  N   UNL     1      -6.472   6.004  65.208  1.00  0.00    -0.041 N  
HETATM   13  C   UNL     1      -5.586   5.242  64.222  1.00  0.00    -0.017 C  
HETATM   14  C   UNL     1      -7.378   6.944  64.410  1.00  0.00    -0.088 C  
HETATM   15  C   UNL     1      -7.355   5.018  65.967  1.00  0.00    -0.078 C  
ENDBRANCH  11  12
ENDBRANCH  10  11
ENDBRANCH   6  10
ENDBRANCH   2   3
TORSDOF 5
ENDMDL
MODEL      194
REMARK 921   NORMALIZED FREE ENERGY PREDICTED BY IDOCK:   13.45 KCAL/MOL
REMARK 922        TOTAL FREE ENERGY PREDICTED BY IDOCK:   17.14 KCAL/MOL
REMARK 923 INTER-LIGAND FREE ENERGY PREDICTED BY IDOCK:   11.45 KCAL/MOL
REMARK 924 INTRA-LIGAND FREE ENERGY PREDICTED BY IDOCK:    5.69 KCAL/MOL
REMARK 927      BINDING AFFINITY PREDICTED BY RF-SCORE:    0.00 PKD
ROOT
HETATM    1  C   UNL     1     -11.833   5.414  69.671  1.00  0.00     3.113 C  
HETATM    2  C   UNL     1     -13.193   5.664  70.289  1.00  0.00     6.862 C  
ENDROOT
BRANCH   2   3
HETATM    3  O   UNL     1     -13.048   6.728  71.213  1.00  0.00    -0.273 OA 
HETATM    4  P   UNL     1     -11.476   7.016  71.876  1.00  0.00    -0.295 P  
HETATM    5  O   UNL     1     -12.099   8.412  72.530  1.00  0.00    -0.393 OA 
HETATM    6  S   UNL     1      -9.549   7.367  72.687  1.00  0.00    -0.172 SA 
HETATM    7  O   UNL     1     -10.867   7.365  70.514  1.00  0.00    -0.233 OA 
BRANCH   5   8
HETATM    8  C   UNL     1     -12.281   9.532  71.667  1.00  0.00    -0.398 C  
HETATM    9  C   UNL     1     -10.920  10.076  71.265  1.00  0.00    -0.079 C  
ENDBRANCH   5   8
BRANCH   6  10
HETATM   10  C   UNL     1      -9.325   9.134  72.953  1.00  0.00     1.511 C  
BRANCH  10  11
HETATM   11  C   UNL     1      -7.915   9.450  73.458  1.00  0.00     2.151 C  
BRANCH  11  12
HETATM   12  N   UNL     1      -6.845   8.435  72.961  1.00  0.00    -0.101 N  
HETATM   13  C   UNL     1      -5.584   8.476  73.825  1.00  0.00    -0.100 C  
HETATM   14  C   UNL     1      -6.459   8.829  71.533  1.00  0.00    -0.074 C  
HETATM   15  C   UNL     1      -7.397   7.013  72.932  1.00  0.00    -0.073 C  
ENDBRANCH  11  12
ENDBRANCH  10  11
ENDBRANCH   6  10
ENDBRANCH   2   3
TORSDOF 5
ENDMDL
MODEL      195
REMARK 921   NORMALIZED FREE ENERGY PREDICTED BY IDOCK:   17.38 KCAL/MOL
REMARK 922        TOTAL FREE ENERGY PREDICTED BY IDOCK:   22.21 KCAL/MOL
REMARK 923 INTER-LIGAND FREE ENERGY PREDICTED BY IDOCK:   22.65 KCAL/MOL
REMARK 924 INTRA-LIGAND FREE ENERGY PREDICTED BY IDOCK:   -0.44 KCAL/MOL
REMARK 927      BINDING AFFINITY PREDICTED BY RF-SCORE:    0.00 PKD
ROOT
HETATM    1  C   UNL     1     -13.667  14.795  73.789  1.00  0.00     1.948 C  
HETATM    2  C   UNL     1     -14.031  13.368  74.140  1.00  0.00     8.941 C  
ENDROOT
BRANCH   2   3
HETATM    3  O   UNL     1     -14.014  12.620  72.937  1.00  0.00    -0.146 OA 
HETATM    4  P   UNL     1     -12.538  12.570  72.036  1.00  0.00     0.635 P  
HETATM    5  O   UNL     1     -13.256  11.410  71.085  1.00  0.00    -0.204 OA 
HETATM    6  S   UNL     1     -10.729  12.509  70.932  1.00  0.00     4.760 SA 
HETATM    7  O   UNL     1     -11.774  11.855  73.155  1.00  0.00     6.227 OA 
BRANCH   5   8
HETATM    8  C   UNL     1     -13.348  10.084  71.603  1.00  0.00    -0.373 C  
HETATM    9  C   UNL     1     -14.206   9.245  70.670  1.00  0.00     0.574 C  
ENDBRANCH   5   8
BRANCH   6  10
HETATM   10  C   UNL     1     -10.564  10.900  70.141  1.00  0.00     0.240 C  
BRANCH  10  11
HETATM   11  C   UNL     1      -9.392  10.107  70.725  1.00  0.00     0.938 C  
BRANCH  11  12
HETATM   12  N   UNL     1      -9.733   8.610  70.983  1.00  0.00    -0.192 N  
HETATM   13  C   UNL     1     -10.278   8.391  72.394  1.00  0.00    -0.329 C  
HETATM   14  C   UNL     1      -8.436   7.808  70.841  1.00  0.00    -0.127 C  
HETATM   15  C   UNL     1     -10.735   8.084  69.960  1.00  0.00    -0.244 C  
ENDBRANCH  11  12
ENDBRANCH  10  11
ENDBRANCH   6  10
ENDBRANCH   2   3
TORSDOF 5
ENDMDL
