MODEL        1
REMARK 921   NORMALIZED FREE ENERGY PREDICTED BY IDOCK:   -6.73 KCAL/MOL
REMARK 922        TOTAL FREE ENERGY PREDICTED BY IDOCK:  -10.22 KCAL/MOL
REMARK 923 INTER-LIGAND FREE ENERGY PREDICTED BY IDOCK:   -9.09 KCAL/MOL
REMARK 924 INTRA-LIGAND FREE ENERGY PREDICTED BY IDOCK:   -1.13 KCAL/MOL
REMARK 927      BINDING AFFINITY PREDICTED BY RF-SCORE:    0.00 PKD
ROOT
HETATM    1 CL   UNL     1     -12.750  16.337  74.431  1.00  0.00    -0.489 Cl 
HETATM    2  C   UNL     1     -12.535  15.509  72.939  1.00  0.00    -0.424 A  
HETATM    3  C   UNL     1     -13.154  14.280  72.731  1.00  0.00    -0.589 A  
HETATM    4  C   UNL     1     -12.965  13.605  71.521  1.00  0.00    -0.443 A  
HETATM    5  C   UNL     1     -12.156  14.155  70.513  1.00  0.00    -0.420 A  
HETATM    6  C   UNL     1     -11.544  15.396  70.738  1.00  0.00    -0.381 A  
HETATM    7  C   UNL     1     -11.736  16.071  71.946  1.00  0.00    -0.594 A  
ENDROOT
BRANCH   5   8
HETATM    8  C   UNL     1     -11.903  13.392  69.234  1.00  0.00    -0.334 C  
BRANCH   8   9
HETATM    9  O   UNL     1     -10.653  13.797  68.690  1.00  0.00    -0.246 OA 
BRANCH   9  10
HETATM   10  C   UNL     1     -10.695  14.361  67.360  1.00  0.00    -0.280 C  
BRANCH  10  11
HETATM   11  C   UNL     1     -10.017  15.742  67.389  1.00  0.00    -0.237 A  
HETATM   12  C   UNL     1      -8.868  18.335  67.436  1.00  0.00    -0.253 A  
HETATM   13  C   UNL     1      -8.619  15.929  67.351  1.00  0.00    -0.172 A  
HETATM   14  C   UNL     1     -10.809  16.908  67.499  1.00  0.00    -0.207 A  
HETATM   15  C   UNL     1      -8.053  17.214  67.344  1.00  0.00    -0.193 A  
HETATM   16 CL   UNL     1      -8.167  19.906  67.461  1.00  0.00    -0.348 Cl 
HETATM   17 CL   UNL     1      -7.494  14.616  67.371  1.00  0.00    -0.221 Cl 
HETATM   18  C   UNL     1     -10.244  18.188  67.531  1.00  0.00    -0.382 A  
ENDBRANCH  10  11
BRANCH  10  19
HETATM   19  C   UNL     1     -12.143  14.335  66.806  1.00  0.00    -0.417 C  
BRANCH  19  20
HETATM   20  N   UNL     1     -12.251  13.833  65.452  1.00  0.00    -0.412 NA 
HETATM   21  C   UNL     1     -12.263  12.518  65.075  1.00  0.00    -0.456 A  
HETATM   22  N   UNL     1     -12.471  13.835  63.253  1.00  0.00    -0.762 NA 
HETATM   23  C   UNL     1     -12.350  12.547  63.703  1.00  0.00    -0.522 A  
HETATM   24  C   UNL     1     -12.434  14.585  64.330  1.00  0.00    -0.309 A  
ENDBRANCH  19  20
ENDBRANCH  10  19
ENDBRANCH   9  10
ENDBRANCH   8   9
ENDBRANCH   5   8
TORSDOF 6
ENDMDL
MODEL        2
REMARK 921   NORMALIZED FREE ENERGY PREDICTED BY IDOCK:   -6.73 KCAL/MOL
REMARK 922        TOTAL FREE ENERGY PREDICTED BY IDOCK:  -10.22 KCAL/MOL
REMARK 923 INTER-LIGAND FREE ENERGY PREDICTED BY IDOCK:   -9.13 KCAL/MOL
REMARK 924 INTRA-LIGAND FREE ENERGY PREDICTED BY IDOCK:   -1.08 KCAL/MOL
REMARK 927      BINDING AFFINITY PREDICTED BY RF-SCORE:    0.00 PKD
ROOT
HETATM    1 CL   UNL     1     -10.955   7.495  73.302  1.00  0.00    -0.424 Cl 
HETATM    2  C   UNL     1     -10.875   8.593  71.981  1.00  0.00    -0.360 A  
HETATM    3  C   UNL     1     -12.020   9.270  71.570  1.00  0.00    -0.439 A  
HETATM    4  C   UNL     1     -11.952  10.152  70.487  1.00  0.00    -0.400 A  
HETATM    5  C   UNL     1     -10.741  10.360  69.808  1.00  0.00    -0.325 A  
HETATM    6  C   UNL     1      -9.596   9.673  70.238  1.00  0.00    -0.307 A  
HETATM    7  C   UNL     1      -9.665   8.795  71.322  1.00  0.00    -0.335 A  
ENDROOT
BRANCH   5   8
HETATM    8  C   UNL     1     -10.687  11.263  68.598  1.00  0.00    -0.205 C  
BRANCH   8   9
HETATM    9  O   UNL     1     -11.797  12.150  68.629  1.00  0.00    -0.309 OA 
BRANCH   9  10
HETATM   10  C   UNL     1     -11.484  13.559  68.561  1.00  0.00    -0.310 C  
BRANCH  10  11
HETATM   11  C   UNL     1     -11.825  14.206  69.915  1.00  0.00    -0.387 A  
HETATM   12  C   UNL     1     -12.527  15.313  72.429  1.00  0.00    -0.362 A  
HETATM   13  C   UNL     1     -11.327  15.458  70.333  1.00  0.00    -0.327 A  
HETATM   14  C   UNL     1     -12.650  13.514  70.831  1.00  0.00    -0.414 A  
HETATM   15  C   UNL     1     -11.700  16.019  71.565  1.00  0.00    -0.554 A  
HETATM   16 CL   UNL     1     -12.953  15.991  73.952  1.00  0.00    -0.615 Cl 
HETATM   17 CL   UNL     1     -10.187  16.371  69.409  1.00  0.00    -0.277 Cl 
HETATM   18  C   UNL     1     -12.991  14.055  72.076  1.00  0.00    -0.450 A  
ENDBRANCH  10  11
BRANCH  10  19
HETATM   19  C   UNL     1     -12.153  14.204  67.320  1.00  0.00    -0.372 C  
BRANCH  19  20
HETATM   20  N   UNL     1     -11.695  13.670  66.054  1.00  0.00    -0.342 NA 
HETATM   21  C   UNL     1     -12.434  12.925  65.176  1.00  0.00    -0.501 A  
HETATM   22  N   UNL     1     -10.358  13.244  64.348  1.00  0.00    -0.404 NA 
HETATM   23  C   UNL     1     -11.567  12.632  64.150  1.00  0.00    -0.394 A  
HETATM   24  C   UNL     1     -10.473  13.882  65.490  1.00  0.00    -0.323 A  
ENDBRANCH  19  20
ENDBRANCH  10  19
ENDBRANCH   9  10
ENDBRANCH   8   9
ENDBRANCH   5   8
TORSDOF 6
ENDMDL
MODEL        3
REMARK 921   NORMALIZED FREE ENERGY PREDICTED BY IDOCK:   -6.57 KCAL/MOL
REMARK 922        TOTAL FREE ENERGY PREDICTED BY IDOCK:  -10.00 KCAL/MOL
REMARK 923 INTER-LIGAND FREE ENERGY PREDICTED BY IDOCK:   -8.76 KCAL/MOL
REMARK 924 INTRA-LIGAND FREE ENERGY PREDICTED BY IDOCK:   -1.24 KCAL/MOL
REMARK 927      BINDING AFFINITY PREDICTED BY RF-SCORE:    0.00 PKD
ROOT
HETATM    1 CL   UNL     1     -12.659  15.608  74.474  1.00  0.00    -0.695 Cl 
HETATM    2  C   UNL     1     -12.360  15.344  72.800  1.00  0.00    -0.407 A  
HETATM    3  C   UNL     1     -11.654  16.289  72.063  1.00  0.00    -0.427 A  
HETATM    4  C   UNL     1     -11.425  16.076  70.700  1.00  0.00    -0.427 A  
HETATM    5  C   UNL     1     -11.904  14.917  70.067  1.00  0.00    -0.353 A  
HETATM    6  C   UNL     1     -12.610  13.973  70.826  1.00  0.00    -0.431 A  
HETATM    7  C   UNL     1     -12.834  14.186  72.188  1.00  0.00    -0.417 A  
ENDROOT
BRANCH   5   8
HETATM    8  C   UNL     1     -11.712  14.722  68.582  1.00  0.00    -0.325 C  
BRANCH   8   9
HETATM    9  O   UNL     1     -11.365  15.967  67.989  1.00  0.00    -0.342 OA 
BRANCH   9  10
HETATM   10  C   UNL     1     -10.185  15.964  67.155  1.00  0.00    -0.278 C  
BRANCH  10  11
HETATM   11  C   UNL     1      -9.160  16.946  67.748  1.00  0.00    -0.229 A  
HETATM   12  C   UNL     1      -7.306  18.833  68.769  1.00  0.00    -0.312 A  
HETATM   13  C   UNL     1      -8.205  16.587  68.722  1.00  0.00    -0.248 A  
HETATM   14  C   UNL     1      -9.176  18.301  67.346  1.00  0.00    -0.250 A  
HETATM   15  C   UNL     1      -7.268  17.515  69.205  1.00  0.00    -0.161 A  
HETATM   16 CL   UNL     1      -6.177  19.974  69.389  1.00  0.00    -0.345 Cl 
HETATM   17 CL   UNL     1      -8.140  15.016  69.441  1.00  0.00    -0.184 Cl 
HETATM   18  C   UNL     1      -8.267  19.236  67.855  1.00  0.00    -0.340 A  
ENDBRANCH  10  11
BRANCH  10  19
HETATM   19  C   UNL     1     -10.569  16.207  65.673  1.00  0.00    -0.363 C  
BRANCH  19  20
HETATM   20  N   UNL     1     -10.980  15.014  64.962  1.00  0.00    -0.399 NA 
HETATM   21  C   UNL     1     -10.270  13.849  64.862  1.00  0.00    -0.351 A  
HETATM   22  N   UNL     1     -12.233  13.643  63.766  1.00  0.00    -0.654 NA 
HETATM   23  C   UNL     1     -11.047  13.032  64.074  1.00  0.00    -0.395 A  
HETATM   24  C   UNL     1     -12.175  14.825  64.336  1.00  0.00    -0.428 A  
ENDBRANCH  19  20
ENDBRANCH  10  19
ENDBRANCH   9  10
ENDBRANCH   8   9
ENDBRANCH   5   8
TORSDOF 6
ENDMDL
MODEL        4
REMARK 921   NORMALIZED FREE ENERGY PREDICTED BY IDOCK:   -6.49 KCAL/MOL
REMARK 922        TOTAL FREE ENERGY PREDICTED BY IDOCK:   -9.89 KCAL/MOL
REMARK 923 INTER-LIGAND FREE ENERGY PREDICTED BY IDOCK:   -8.91 KCAL/MOL
REMARK 924 INTRA-LIGAND FREE ENERGY PREDICTED BY IDOCK:   -0.98 KCAL/MOL
REMARK 927      BINDING AFFINITY PREDICTED BY RF-SCORE:    0.00 PKD
ROOT
HETATM    1 CL   UNL     1     -13.371   9.029  72.418  1.00  0.00    -0.497 Cl 
HETATM    2  C   UNL     1     -12.862  10.439  71.576  1.00  0.00    -0.464 A  
HETATM    3  C   UNL     1     -13.242  11.697  72.035  1.00  0.00    -0.443 A  
HETATM    4  C   UNL     1     -12.837  12.841  71.339  1.00  0.00    -0.371 A  
HETATM    5  C   UNL     1     -12.052  12.732  70.180  1.00  0.00    -0.370 A  
HETATM    6  C   UNL     1     -11.675  11.457  69.733  1.00  0.00    -0.418 A  
HETATM    7  C   UNL     1     -12.077  10.316  70.432  1.00  0.00    -0.373 A  
ENDROOT
BRANCH   5   8
HETATM    8  C   UNL     1     -11.672  13.965  69.394  1.00  0.00    -0.315 C  
BRANCH   8   9
HETATM    9  O   UNL     1     -12.278  13.905  68.110  1.00  0.00    -0.329 OA 
BRANCH   9  10
HETATM   10  C   UNL     1     -11.566  14.570  67.042  1.00  0.00    -0.386 C  
BRANCH  10  11
HETATM   11  C   UNL     1     -11.125  13.515  66.013  1.00  0.00    -0.300 A  
HETATM   12  C   UNL     1     -10.253  11.519  64.196  1.00  0.00    -0.325 A  
HETATM   13  C   UNL     1     -11.422  13.592  64.636  1.00  0.00    -0.358 A  
HETATM   14  C   UNL     1     -10.415  12.371  66.445  1.00  0.00    -0.267 A  
HETATM   15  C   UNL     1     -10.964  12.619  63.733  1.00  0.00    -0.481 A  
HETATM   16 CL   UNL     1      -9.724  10.312  63.090  1.00  0.00    -0.301 Cl 
HETATM   17 CL   UNL     1     -12.410  14.837  63.956  1.00  0.00    -0.315 Cl 
HETATM   18  C   UNL     1      -9.991  11.381  65.551  1.00  0.00    -0.282 A  
ENDBRANCH  10  11
BRANCH  10  19
HETATM   19  C   UNL     1     -10.436  15.461  67.618  1.00  0.00    -0.272 C  
BRANCH  19  20
HETATM   20  N   UNL     1     -10.465  16.832  67.151  1.00  0.00    -0.317 NA 
HETATM   21  C   UNL     1     -10.575  17.949  67.932  1.00  0.00    -0.376 A  
HETATM   22  N   UNL     1     -10.409  18.549  65.761  1.00  0.00    -0.609 NA 
HETATM   23  C   UNL     1     -10.588  18.998  67.042  1.00  0.00    -0.461 A  
HETATM   24  C   UNL     1     -10.312  17.243  65.861  1.00  0.00    -0.278 A  
ENDBRANCH  19  20
ENDBRANCH  10  19
ENDBRANCH   9  10
ENDBRANCH   8   9
ENDBRANCH   5   8
TORSDOF 6
ENDMDL
MODEL        5
REMARK 921   NORMALIZED FREE ENERGY PREDICTED BY IDOCK:   -6.40 KCAL/MOL
REMARK 922        TOTAL FREE ENERGY PREDICTED BY IDOCK:   -9.77 KCAL/MOL
REMARK 923 INTER-LIGAND FREE ENERGY PREDICTED BY IDOCK:   -8.61 KCAL/MOL
REMARK 924 INTRA-LIGAND FREE ENERGY PREDICTED BY IDOCK:   -1.16 KCAL/MOL
REMARK 927      BINDING AFFINITY PREDICTED BY RF-SCORE:    0.00 PKD
ROOT
HETATM    1 CL   UNL     1     -11.349  16.329  64.215  1.00  0.00    -0.262 Cl 
HETATM    2  C   UNL     1     -11.228  14.811  65.015  1.00  0.00    -0.395 A  
HETATM    3  C   UNL     1     -12.318  13.945  65.030  1.00  0.00    -0.452 A  
HETATM    4  C   UNL     1     -12.219  12.718  65.692  1.00  0.00    -0.503 A  
HETATM    5  C   UNL     1     -11.030  12.351  66.345  1.00  0.00    -0.315 A  
HETATM    6  C   UNL     1      -9.941  13.233  66.316  1.00  0.00    -0.291 A  
HETATM    7  C   UNL     1     -10.040  14.457  65.650  1.00  0.00    -0.377 A  
ENDROOT
BRANCH   5   8
HETATM    8  C   UNL     1     -10.950  11.054  67.115  1.00  0.00    -0.283 C  
BRANCH   8   9
HETATM    9  O   UNL     1     -12.042  10.981  68.022  1.00  0.00    -0.615 OA 
BRANCH   9  10
HETATM   10  C   UNL     1     -11.700  10.744  69.406  1.00  0.00    -0.306 C  
BRANCH  10  11
HETATM   11  C   UNL     1     -12.234  11.914  70.252  1.00  0.00    -0.353 A  
HETATM   12  C   UNL     1     -13.164  14.139  71.743  1.00  0.00    -0.373 A  
HETATM   13  C   UNL     1     -12.947  11.746  71.458  1.00  0.00    -0.341 A  
HETATM   14  C   UNL     1     -12.050  13.242  69.804  1.00  0.00    -0.355 A  
HETATM   15  C   UNL     1     -13.380  12.850  72.211  1.00  0.00    -0.597 A  
HETATM   16 CL   UNL     1     -13.727  15.487  72.652  1.00  0.00    -0.636 Cl 
HETATM   17 CL   UNL     1     -13.395  10.196  72.077  1.00  0.00    -0.533 Cl 
HETATM   18  C   UNL     1     -12.516  14.341  70.534  1.00  0.00    -0.428 A  
ENDBRANCH  10  11
BRANCH  10  19
HETATM   19  C   UNL     1     -10.185  10.449  69.547  1.00  0.00    -0.231 C  
BRANCH  19  20
HETATM   20  N   UNL     1      -9.884   9.147  70.106  1.00  0.00    -0.185 NA 
HETATM   21  C   UNL     1      -9.754   8.848  71.434  1.00  0.00    -0.300 A  
HETATM   22  N   UNL     1      -9.458   6.981  70.200  1.00  0.00    -0.162 NA 
HETATM   23  C   UNL     1      -9.441   7.510  71.463  1.00  0.00    -0.150 A  
HETATM   24  C   UNL     1      -9.753   7.985  69.406  1.00  0.00    -0.170 A  
ENDBRANCH  19  20
ENDBRANCH  10  19
ENDBRANCH   9  10
ENDBRANCH   8   9
ENDBRANCH   5   8
TORSDOF 6
ENDMDL
MODEL        6
REMARK 921   NORMALIZED FREE ENERGY PREDICTED BY IDOCK:   -6.39 KCAL/MOL
REMARK 922        TOTAL FREE ENERGY PREDICTED BY IDOCK:   -9.76 KCAL/MOL
REMARK 923 INTER-LIGAND FREE ENERGY PREDICTED BY IDOCK:   -8.81 KCAL/MOL
REMARK 924 INTRA-LIGAND FREE ENERGY PREDICTED BY IDOCK:   -0.96 KCAL/MOL
REMARK 927      BINDING AFFINITY PREDICTED BY RF-SCORE:    0.00 PKD
ROOT
HETATM    1 CL   UNL     1     -11.463   8.082  72.649  1.00  0.00    -0.464 Cl 
HETATM    2  C   UNL     1     -11.604   9.350  71.495  1.00  0.00    -0.397 A  
HETATM    3  C   UNL     1     -10.684   9.447  70.454  1.00  0.00    -0.317 A  
HETATM    4  C   UNL     1     -10.795  10.487  69.526  1.00  0.00    -0.298 A  
HETATM    5  C   UNL     1     -11.825  11.436  69.635  1.00  0.00    -0.431 A  
HETATM    6  C   UNL     1     -12.745  11.320  70.686  1.00  0.00    -0.314 A  
HETATM    7  C   UNL     1     -12.635  10.279  71.610  1.00  0.00    -0.534 A  
ENDROOT
BRANCH   5   8
HETATM    8  C   UNL     1     -11.902  12.595  68.669  1.00  0.00    -0.302 C  
BRANCH   8   9
HETATM    9  O   UNL     1     -12.069  12.092  67.349  1.00  0.00    -0.566 OA 
BRANCH   9  10
HETATM   10  C   UNL     1     -11.440  12.855  66.296  1.00  0.00    -0.348 C  
BRANCH  10  11
HETATM   11  C   UNL     1     -10.620  11.896  65.415  1.00  0.00    -0.315 A  
HETATM   12  C   UNL     1      -9.032  10.123  63.873  1.00  0.00    -0.244 A  
HETATM   13  C   UNL     1     -10.957  11.573  64.084  1.00  0.00    -0.366 A  
HETATM   14  C   UNL     1      -9.480  11.255  65.953  1.00  0.00    -0.247 A  
HETATM   15  C   UNL     1     -10.154  10.719  63.312  1.00  0.00    -0.314 A  
HETATM   16 CL   UNL     1      -8.070   9.051  62.933  1.00  0.00    -0.156 Cl 
HETATM   17 CL   UNL     1     -12.398  12.142  63.316  1.00  0.00    -0.617 Cl 
HETATM   18  C   UNL     1      -8.700  10.373  65.196  1.00  0.00    -0.194 A  
ENDBRANCH  10  11
BRANCH  10  19
HETATM   19  C   UNL     1     -10.659  14.055  66.890  1.00  0.00    -0.280 C  
BRANCH  19  20
HETATM   20  N   UNL     1     -10.752  15.270  66.107  1.00  0.00    -0.314 NA 
HETATM   21  C   UNL     1     -10.388  16.524  66.514  1.00  0.00    -0.305 A  
HETATM   22  N   UNL     1     -11.147  16.603  64.389  1.00  0.00    -1.019 NA 
HETATM   23  C   UNL     1     -10.689  17.339  65.448  1.00  0.00    -0.066 A  
HETATM   24  C   UNL     1     -11.150  15.357  64.807  1.00  0.00    -0.403 A  
ENDBRANCH  19  20
ENDBRANCH  10  19
ENDBRANCH   9  10
ENDBRANCH   8   9
ENDBRANCH   5   8
TORSDOF 6
ENDMDL
MODEL        7
REMARK 921   NORMALIZED FREE ENERGY PREDICTED BY IDOCK:   -6.37 KCAL/MOL
REMARK 922        TOTAL FREE ENERGY PREDICTED BY IDOCK:   -9.73 KCAL/MOL
REMARK 923 INTER-LIGAND FREE ENERGY PREDICTED BY IDOCK:   -8.85 KCAL/MOL
REMARK 924 INTRA-LIGAND FREE ENERGY PREDICTED BY IDOCK:   -0.88 KCAL/MOL
REMARK 927      BINDING AFFINITY PREDICTED BY RF-SCORE:    0.00 PKD
ROOT
HETATM    1 CL   UNL     1     -13.448   9.785  72.026  1.00  0.00    -0.501 Cl 
HETATM    2  C   UNL     1     -13.016  11.382  71.554  1.00  0.00    -0.399 A  
HETATM    3  C   UNL     1     -13.519  12.474  72.256  1.00  0.00    -0.490 A  
HETATM    4  C   UNL     1     -13.176  13.770  71.860  1.00  0.00    -0.486 A  
HETATM    5  C   UNL     1     -12.330  13.982  70.759  1.00  0.00    -0.443 A  
HETATM    6  C   UNL     1     -11.829  12.870  70.066  1.00  0.00    -0.356 A  
HETATM    7  C   UNL     1     -12.169  11.576  70.466  1.00  0.00    -0.469 A  
ENDROOT
BRANCH   5   8
HETATM    8  C   UNL     1     -12.015  15.384  70.295  1.00  0.00    -0.355 C  
BRANCH   8   9
HETATM    9  O   UNL     1     -12.388  15.518  68.929  1.00  0.00    -0.156 OA 
BRANCH   9  10
HETATM   10  C   UNL     1     -11.337  15.921  68.023  1.00  0.00    -0.284 C  
BRANCH  10  11
HETATM   11  C   UNL     1     -11.285  14.922  66.853  1.00  0.00    -0.343 A  
HETATM   12  C   UNL     1     -11.273  13.023  64.747  1.00  0.00    -0.317 A  
HETATM   13  C   UNL     1     -10.318  14.966  65.827  1.00  0.00    -0.332 A  
HETATM   14  C   UNL     1     -12.273  13.915  66.750  1.00  0.00    -0.438 A  
HETATM   15  C   UNL     1     -10.295  14.007  64.802  1.00  0.00    -0.407 A  
HETATM   16 CL   UNL     1     -11.261  11.871  63.469  1.00  0.00    -0.494 Cl 
HETATM   17 CL   UNL     1      -9.130  16.217  65.709  1.00  0.00    -0.253 Cl 
HETATM   18  C   UNL     1     -12.273  12.983  65.707  1.00  0.00    -0.511 A  
ENDBRANCH  10  11
BRANCH  10  19
HETATM   19  C   UNL     1     -10.006  16.124  68.792  1.00  0.00    -0.231 C  
BRANCH  19  20
HETATM   20  N   UNL     1      -9.460  17.461  68.689  1.00  0.00    -0.279 NA 
HETATM   21  C   UNL     1      -8.134  17.798  68.729  1.00  0.00    -0.226 A  
HETATM   22  N   UNL     1      -9.385  19.656  68.443  1.00  0.00    -0.356 NA 
HETATM   23  C   UNL     1      -8.118  19.169  68.624  1.00  0.00    -0.370 A  
HETATM   24  C   UNL     1     -10.169  18.602  68.461  1.00  0.00    -0.353 A  
ENDBRANCH  19  20
ENDBRANCH  10  19
ENDBRANCH   9  10
ENDBRANCH   8   9
ENDBRANCH   5   8
TORSDOF 6
ENDMDL
MODEL        8
REMARK 921   NORMALIZED FREE ENERGY PREDICTED BY IDOCK:   -6.32 KCAL/MOL
REMARK 922        TOTAL FREE ENERGY PREDICTED BY IDOCK:   -9.66 KCAL/MOL
REMARK 923 INTER-LIGAND FREE ENERGY PREDICTED BY IDOCK:   -8.67 KCAL/MOL
REMARK 924 INTRA-LIGAND FREE ENERGY PREDICTED BY IDOCK:   -0.99 KCAL/MOL
REMARK 927      BINDING AFFINITY PREDICTED BY RF-SCORE:    0.00 PKD
ROOT
HETATM    1 CL   UNL     1     -13.121   9.613  71.979  1.00  0.00    -0.514 Cl 
HETATM    2  C   UNL     1     -12.821  11.192  71.366  1.00  0.00    -0.439 A  
HETATM    3  C   UNL     1     -12.111  11.354  70.180  1.00  0.00    -0.439 A  
HETATM    4  C   UNL     1     -11.858  12.640  69.693  1.00  0.00    -0.379 A  
HETATM    5  C   UNL     1     -12.314  13.771  70.390  1.00  0.00    -0.423 A  
HETATM    6  C   UNL     1     -13.032  13.590  71.580  1.00  0.00    -0.447 A  
HETATM    7  C   UNL     1     -13.287  12.304  72.064  1.00  0.00    -0.491 A  
ENDROOT
BRANCH   5   8
HETATM    8  C   UNL     1     -11.983  15.159  69.895  1.00  0.00    -0.337 C  
BRANCH   8   9
HETATM    9  O   UNL     1     -10.737  15.125  69.210  1.00  0.00    -0.230 OA 
BRANCH   9  10
HETATM   10  C   UNL     1     -10.705  15.776  67.921  1.00  0.00    -0.302 C  
BRANCH  10  11
HETATM   11  C   UNL     1     -10.791  14.699  66.824  1.00  0.00    -0.312 A  
HETATM   12  C   UNL     1     -11.042  12.765  64.765  1.00  0.00    -0.302 A  
HETATM   13  C   UNL     1      -9.920  13.592  66.743  1.00  0.00    -0.269 A  
HETATM   14  C   UNL     1     -11.759  14.819  65.801  1.00  0.00    -0.252 A  
HETATM   15  C   UNL     1     -10.065  12.619  65.742  1.00  0.00    -0.284 A  
HETATM   16 CL   UNL     1     -11.193  11.588  63.520  1.00  0.00    -0.471 Cl 
HETATM   17 CL   UNL     1      -8.584  13.368  67.817  1.00  0.00    -0.180 Cl 
HETATM   18  C   UNL     1     -11.879  13.870  64.780  1.00  0.00    -0.414 A  
ENDBRANCH  10  11
BRANCH  10  19
HETATM   19  C   UNL     1      -9.491  16.735  67.827  1.00  0.00    -0.228 C  
BRANCH  19  20
HETATM   20  N   UNL     1      -9.826  18.074  67.389  1.00  0.00    -0.299 NA 
HETATM   21  C   UNL     1      -9.721  19.218  68.131  1.00  0.00    -0.363 A  
HETATM   22  N   UNL     1     -10.477  19.718  66.064  1.00  0.00    -0.515 NA 
HETATM   23  C   UNL     1     -10.178  20.216  67.303  1.00  0.00    -0.400 A  
HETATM   24  C   UNL     1     -10.231  18.430  66.137  1.00  0.00    -0.389 A  
ENDBRANCH  19  20
ENDBRANCH  10  19
ENDBRANCH   9  10
ENDBRANCH   8   9
ENDBRANCH   5   8
TORSDOF 6
ENDMDL
MODEL        9
REMARK 921   NORMALIZED FREE ENERGY PREDICTED BY IDOCK:   -6.30 KCAL/MOL
REMARK 922        TOTAL FREE ENERGY PREDICTED BY IDOCK:   -9.64 KCAL/MOL
REMARK 923 INTER-LIGAND FREE ENERGY PREDICTED BY IDOCK:   -8.66 KCAL/MOL
REMARK 924 INTRA-LIGAND FREE ENERGY PREDICTED BY IDOCK:   -0.98 KCAL/MOL
REMARK 927      BINDING AFFINITY PREDICTED BY RF-SCORE:    0.00 PKD
ROOT
HETATM    1 CL   UNL     1      -7.058  20.336  65.394  1.00  0.00    -0.311 Cl 
HETATM    2  C   UNL     1      -8.004  19.433  66.511  1.00  0.00    -0.298 A  
HETATM    3  C   UNL     1      -7.647  18.125  66.826  1.00  0.00    -0.248 A  
HETATM    4  C   UNL     1      -8.427  17.390  67.724  1.00  0.00    -0.223 A  
HETATM    5  C   UNL     1      -9.569  17.959  68.312  1.00  0.00    -0.312 A  
HETATM    6  C   UNL     1      -9.912  19.279  67.986  1.00  0.00    -0.473 A  
HETATM    7  C   UNL     1      -9.129  20.013  67.091  1.00  0.00    -0.468 A  
ENDROOT
BRANCH   5   8
HETATM    8  C   UNL     1     -10.445  17.141  69.231  1.00  0.00    -0.267 C  
BRANCH   8   9
HETATM    9  O   UNL     1     -10.094  15.768  69.109  1.00  0.00    -0.208 OA 
BRANCH   9  10
HETATM   10  C   UNL     1     -11.192  14.829  69.146  1.00  0.00    -0.271 C  
BRANCH  10  11
HETATM   11  C   UNL     1     -11.382  14.238  67.738  1.00  0.00    -0.329 A  
HETATM   12  C   UNL     1     -11.715  13.251  65.100  1.00  0.00    -0.330 A  
HETATM   13  C   UNL     1     -11.786  12.909  67.494  1.00  0.00    -0.351 A  
HETATM   14  C   UNL     1     -11.106  15.034  66.603  1.00  0.00    -0.326 A  
HETATM   15  C   UNL     1     -11.980  12.430  66.189  1.00  0.00    -0.397 A  
HETATM   16 CL   UNL     1     -11.920  12.649  63.502  1.00  0.00    -0.595 Cl 
HETATM   17 CL   UNL     1     -12.019  11.751  68.757  1.00  0.00    -0.358 Cl 
HETATM   18  C   UNL     1     -11.261  14.546  65.300  1.00  0.00    -0.352 A  
ENDBRANCH  10  11
BRANCH  10  19
HETATM   19  C   UNL     1     -12.447  15.487  69.774  1.00  0.00    -0.156 C  
BRANCH  19  20
HETATM   20  N   UNL     1     -12.667  15.140  71.163  1.00  0.00    -0.351 NA 
HETATM   21  C   UNL     1     -12.351  15.909  72.249  1.00  0.00    -0.483 A  
HETATM   22  N   UNL     1     -13.316  13.986  72.932  1.00  0.00    -0.648 NA 
HETATM   23  C   UNL     1     -12.718  15.150  73.335  1.00  0.00    -0.537 A  
HETATM   24  C   UNL     1     -13.293  14.019  71.619  1.00  0.00    -0.367 A  
ENDBRANCH  19  20
ENDBRANCH  10  19
ENDBRANCH   9  10
ENDBRANCH   8   9
ENDBRANCH   5   8
TORSDOF 6
ENDMDL
MODEL       10
REMARK 921   NORMALIZED FREE ENERGY PREDICTED BY IDOCK:   -6.25 KCAL/MOL
REMARK 922        TOTAL FREE ENERGY PREDICTED BY IDOCK:   -9.56 KCAL/MOL
REMARK 923 INTER-LIGAND FREE ENERGY PREDICTED BY IDOCK:   -8.80 KCAL/MOL
REMARK 924 INTRA-LIGAND FREE ENERGY PREDICTED BY IDOCK:   -0.77 KCAL/MOL
REMARK 927      BINDING AFFINITY PREDICTED BY RF-SCORE:    0.00 PKD
ROOT
HETATM    1 CL   UNL     1     -13.500   9.015  72.612  1.00  0.00    -0.477 Cl 
HETATM    2  C   UNL     1     -12.531   9.820  71.441  1.00  0.00    -0.387 A  
HETATM    3  C   UNL     1     -11.504   9.134  70.799  1.00  0.00    -0.337 A  
HETATM    4  C   UNL     1     -10.711   9.797  69.858  1.00  0.00    -0.303 A  
HETATM    5  C   UNL     1     -10.940  11.149  69.554  1.00  0.00    -0.276 A  
HETATM    6  C   UNL     1     -11.982  11.823  70.207  1.00  0.00    -0.429 A  
HETATM    7  C   UNL     1     -12.776  11.159  71.144  1.00  0.00    -0.510 A  
ENDROOT
BRANCH   5   8
HETATM    8  C   UNL     1     -10.040  11.879  68.585  1.00  0.00    -0.177 C  
BRANCH   8   9
HETATM    9  O   UNL     1     -10.375  13.261  68.587  1.00  0.00    -0.239 OA 
BRANCH   9  10
HETATM   10  C   UNL     1     -10.632  13.851  67.294  1.00  0.00    -0.276 C  
BRANCH  10  11
HETATM   11  C   UNL     1     -10.321  15.357  67.369  1.00  0.00    -0.262 A  
HETATM   12  C   UNL     1      -9.675  18.117  67.423  1.00  0.00    -0.296 A  
HETATM   13  C   UNL     1     -10.838  16.215  68.362  1.00  0.00    -0.318 A  
HETATM   14  C   UNL     1      -9.507  15.952  66.378  1.00  0.00    -0.324 A  
HETATM   15  C   UNL     1     -10.493  17.575  68.406  1.00  0.00    -0.372 A  
HETATM   16 CL   UNL     1      -9.283  19.792  67.461  1.00  0.00    -0.406 Cl 
HETATM   17 CL   UNL     1     -11.969  15.691  69.560  1.00  0.00    -0.384 Cl 
HETATM   18  C   UNL     1      -9.195  17.316  66.398  1.00  0.00    -0.278 A  
ENDBRANCH  10  11
BRANCH  10  19
HETATM   19  C   UNL     1     -12.056  13.483  66.804  1.00  0.00    -0.375 C  
BRANCH  19  20
HETATM   20  N   UNL     1     -12.163  13.305  65.371  1.00  0.00    -0.428 NA 
HETATM   21  C   UNL     1     -12.028  12.127  64.690  1.00  0.00    -0.323 A  
HETATM   22  N   UNL     1     -12.483  13.797  63.240  1.00  0.00    -0.762 NA 
HETATM   23  C   UNL     1     -12.182  12.467  63.366  1.00  0.00    -0.523 A  
HETATM   24  C   UNL     1     -12.490  14.270  64.465  1.00  0.00    -0.333 A  
ENDBRANCH  19  20
ENDBRANCH  10  19
ENDBRANCH   9  10
ENDBRANCH   8   9
ENDBRANCH   5   8
TORSDOF 6
ENDMDL
MODEL       11
REMARK 921   NORMALIZED FREE ENERGY PREDICTED BY IDOCK:   -6.22 KCAL/MOL
REMARK 922        TOTAL FREE ENERGY PREDICTED BY IDOCK:   -9.53 KCAL/MOL
REMARK 923 INTER-LIGAND FREE ENERGY PREDICTED BY IDOCK:   -8.81 KCAL/MOL
REMARK 924 INTRA-LIGAND FREE ENERGY PREDICTED BY IDOCK:   -0.71 KCAL/MOL
REMARK 927      BINDING AFFINITY PREDICTED BY RF-SCORE:    0.00 PKD
ROOT
HETATM    1 CL   UNL     1     -13.383   9.776  72.174  1.00  0.00    -0.538 Cl 
HETATM    2  C   UNL     1     -12.952  11.287  71.473  1.00  0.00    -0.415 A  
HETATM    3  C   UNL     1     -12.221  11.320  70.289  1.00  0.00    -0.428 A  
HETATM    4  C   UNL     1     -11.861  12.550  69.730  1.00  0.00    -0.380 A  
HETATM    5  C   UNL     1     -12.230  13.754  70.354  1.00  0.00    -0.433 A  
HETATM    6  C   UNL     1     -12.970  13.702  71.544  1.00  0.00    -0.443 A  
HETATM    7  C   UNL     1     -13.331  12.472  72.098  1.00  0.00    -0.540 A  
ENDROOT
BRANCH   5   8
HETATM    8  C   UNL     1     -11.783  15.079  69.782  1.00  0.00    -0.307 C  
BRANCH   8   9
HETATM    9  O   UNL     1     -11.495  14.917  68.399  1.00  0.00    -0.290 OA 
BRANCH   9  10
HETATM   10  C   UNL     1     -10.113  15.089  68.017  1.00  0.00    -0.223 C  
BRANCH  10  11
HETATM   11  C   UNL     1      -9.820  16.595  67.888  1.00  0.00    -0.248 A  
HETATM   12  C   UNL     1      -9.373  19.379  67.587  1.00  0.00    -0.309 A  
HETATM   13  C   UNL     1      -8.654  17.212  68.388  1.00  0.00    -0.246 A  
HETATM   14  C   UNL     1     -10.772  17.441  67.274  1.00  0.00    -0.219 A  
HETATM   15  C   UNL     1      -8.420  18.585  68.212  1.00  0.00    -0.341 A  
HETATM   16 CL   UNL     1      -9.097  21.067  67.404  1.00  0.00    -0.262 Cl 
HETATM   17 CL   UNL     1      -7.458  16.360  69.300  1.00  0.00    -0.233 Cl 
HETATM   18  C   UNL     1     -10.556  18.817  67.132  1.00  0.00    -0.491 A  
ENDBRANCH  10  11
BRANCH  10  19
HETATM   19  C   UNL     1      -9.786  14.232  66.767  1.00  0.00    -0.270 C  
BRANCH  19  20
HETATM   20  N   UNL     1     -10.941  13.896  65.960  1.00  0.00    -0.284 NA 
HETATM   21  C   UNL     1     -11.652  12.729  66.012  1.00  0.00    -0.383 A  
HETATM   22  N   UNL     1     -12.565  14.109  64.477  1.00  0.00    -0.675 NA 
HETATM   23  C   UNL     1     -12.623  12.867  65.049  1.00  0.00    -0.472 A  
HETATM   24  C   UNL     1     -11.558  14.716  65.064  1.00  0.00    -0.385 A  
ENDBRANCH  19  20
ENDBRANCH  10  19
ENDBRANCH   9  10
ENDBRANCH   8   9
ENDBRANCH   5   8
TORSDOF 6
ENDMDL
MODEL       12
REMARK 921   NORMALIZED FREE ENERGY PREDICTED BY IDOCK:   -6.19 KCAL/MOL
REMARK 922        TOTAL FREE ENERGY PREDICTED BY IDOCK:   -9.49 KCAL/MOL
REMARK 923 INTER-LIGAND FREE ENERGY PREDICTED BY IDOCK:   -8.78 KCAL/MOL
REMARK 924 INTRA-LIGAND FREE ENERGY PREDICTED BY IDOCK:   -0.70 KCAL/MOL
REMARK 927      BINDING AFFINITY PREDICTED BY RF-SCORE:    0.00 PKD
ROOT
HETATM    1 CL   UNL     1     -13.475   9.657  72.260  1.00  0.00    -0.518 Cl 
HETATM    2  C   UNL     1     -13.012  11.166  71.578  1.00  0.00    -0.437 A  
HETATM    3  C   UNL     1     -13.418  12.354  72.179  1.00  0.00    -0.481 A  
HETATM    4  C   UNL     1     -13.050  13.578  71.612  1.00  0.00    -0.459 A  
HETATM    5  C   UNL     1     -12.275  13.621  70.442  1.00  0.00    -0.434 A  
HETATM    6  C   UNL     1     -11.871  12.415  69.852  1.00  0.00    -0.376 A  
HETATM    7  C   UNL     1     -12.237  11.193  70.421  1.00  0.00    -0.457 A  
ENDROOT
BRANCH   5   8
HETATM    8  C   UNL     1     -11.935  14.944  69.797  1.00  0.00    -0.323 C  
BRANCH   8   9
HETATM    9  O   UNL     1     -11.617  14.728  68.428  1.00  0.00    -0.296 OA 
BRANCH   9  10
HETATM   10  C   UNL     1     -10.226  14.880  68.070  1.00  0.00    -0.228 C  
BRANCH  10  11
HETATM   11  C   UNL     1      -9.919  16.380  67.911  1.00  0.00    -0.243 A  
HETATM   12  C   UNL     1      -9.445  19.153  67.558  1.00  0.00    -0.307 A  
HETATM   13  C   UNL     1      -8.735  16.990  68.377  1.00  0.00    -0.247 A  
HETATM   14  C   UNL     1     -10.873  17.229  67.305  1.00  0.00    -0.124 A  
HETATM   15  C   UNL     1      -8.488  18.357  68.174  1.00  0.00    -0.301 A  
HETATM   16 CL   UNL     1      -9.152  20.835  67.343  1.00  0.00    -0.409 Cl 
HETATM   17 CL   UNL     1      -7.529  16.138  69.276  1.00  0.00    -0.227 Cl 
HETATM   18  C   UNL     1     -10.644  18.599  67.137  1.00  0.00    -0.468 A  
ENDBRANCH  10  11
BRANCH  10  19
HETATM   19  C   UNL     1      -9.882  13.991  66.848  1.00  0.00    -0.267 C  
BRANCH  19  20
HETATM   20  N   UNL     1     -10.988  13.780  65.937  1.00  0.00    -0.282 NA 
HETATM   21  C   UNL     1     -11.352  14.600  64.904  1.00  0.00    -0.403 A  
HETATM   22  N   UNL     1     -12.727  12.811  64.978  1.00  0.00    -0.760 NA 
HETATM   23  C   UNL     1     -12.463  14.002  64.357  1.00  0.00    -0.289 A  
HETATM   24  C   UNL     1     -11.807  12.692  65.908  1.00  0.00    -0.444 A  
ENDBRANCH  19  20
ENDBRANCH  10  19
ENDBRANCH   9  10
ENDBRANCH   8   9
ENDBRANCH   5   8
TORSDOF 6
ENDMDL
MODEL       13
REMARK 921   NORMALIZED FREE ENERGY PREDICTED BY IDOCK:   -6.17 KCAL/MOL
REMARK 922        TOTAL FREE ENERGY PREDICTED BY IDOCK:   -9.47 KCAL/MOL
REMARK 923 INTER-LIGAND FREE ENERGY PREDICTED BY IDOCK:   -8.61 KCAL/MOL
REMARK 924 INTRA-LIGAND FREE ENERGY PREDICTED BY IDOCK:   -0.85 KCAL/MOL
REMARK 927      BINDING AFFINITY PREDICTED BY RF-SCORE:    0.00 PKD
ROOT
HETATM    1 CL   UNL     1     -10.379  20.446  65.213  1.00  0.00    -0.003 Cl 
HETATM    2  C   UNL     1     -10.305  19.231  66.427  1.00  0.00    -0.471 A  
HETATM    3  C   UNL     1     -10.335  17.886  66.068  1.00  0.00    -0.318 A  
HETATM    4  C   UNL     1     -10.288  16.902  67.060  1.00  0.00    -0.307 A  
HETATM    5  C   UNL     1     -10.212  17.257  68.416  1.00  0.00    -0.358 A  
HETATM    6  C   UNL     1     -10.178  18.616  68.761  1.00  0.00    -0.316 A  
HETATM    7  C   UNL     1     -10.221  19.597  67.768  1.00  0.00    -0.565 A  
ENDROOT
BRANCH   5   8
HETATM    8  C   UNL     1     -10.227  16.192  69.488  1.00  0.00    -0.261 C  
BRANCH   8   9
HETATM    9  O   UNL     1     -11.443  15.460  69.401  1.00  0.00    -0.279 OA 
BRANCH   9  10
HETATM   10  C   UNL     1     -11.319  14.021  69.420  1.00  0.00    -0.268 C  
BRANCH  10  11
HETATM   11  C   UNL     1     -11.564  13.486  67.998  1.00  0.00    -0.372 A  
HETATM   12  C   UNL     1     -12.083  12.588  65.359  1.00  0.00    -0.435 A  
HETATM   13  C   UNL     1     -11.080  12.245  67.534  1.00  0.00    -0.275 A  
HETATM   14  C   UNL     1     -12.277  14.276  67.067  1.00  0.00    -0.338 A  
HETATM   15  C   UNL     1     -11.364  11.788  66.237  1.00  0.00    -0.350 A  
HETATM   16 CL   UNL     1     -12.399  12.037  63.760  1.00  0.00    -0.597 Cl 
HETATM   17 CL   UNL     1     -10.062  11.219  68.482  1.00  0.00    -0.199 Cl 
HETATM   18  C   UNL     1     -12.527  13.838  65.762  1.00  0.00    -0.527 A  
ENDBRANCH  10  11
BRANCH  10  19
HETATM   19  C   UNL     1     -12.215  13.415  70.530  1.00  0.00    -0.352 C  
BRANCH  19  20
HETATM   20  N   UNL     1     -12.642  14.367  71.534  1.00  0.00    -0.332 NA 
HETATM   21  C   UNL     1     -13.914  14.835  71.716  1.00  0.00    -0.477 A  
HETATM   22  N   UNL     1     -12.539  15.751  73.254  1.00  0.00    -0.452 NA 
HETATM   23  C   UNL     1     -13.814  15.728  72.756  1.00  0.00    -0.523 A  
HETATM   24  C   UNL     1     -11.861  14.903  72.515  1.00  0.00    -0.237 A  
ENDBRANCH  19  20
ENDBRANCH  10  19
ENDBRANCH   9  10
ENDBRANCH   8   9
ENDBRANCH   5   8
TORSDOF 6
ENDMDL
MODEL       14
REMARK 921   NORMALIZED FREE ENERGY PREDICTED BY IDOCK:   -6.17 KCAL/MOL
REMARK 922        TOTAL FREE ENERGY PREDICTED BY IDOCK:   -9.46 KCAL/MOL
REMARK 923 INTER-LIGAND FREE ENERGY PREDICTED BY IDOCK:   -8.65 KCAL/MOL
REMARK 924 INTRA-LIGAND FREE ENERGY PREDICTED BY IDOCK:   -0.81 KCAL/MOL
REMARK 927      BINDING AFFINITY PREDICTED BY RF-SCORE:    0.00 PKD
ROOT
HETATM    1 CL   UNL     1     -11.618   7.826  72.530  1.00  0.00    -0.410 Cl 
HETATM    2  C   UNL     1     -11.746   9.270  71.605  1.00  0.00    -0.392 A  
HETATM    3  C   UNL     1     -10.834   9.525  70.585  1.00  0.00    -0.371 A  
HETATM    4  C   UNL     1     -10.935  10.707  69.844  1.00  0.00    -0.337 A  
HETATM    5  C   UNL     1     -11.947  11.640  70.120  1.00  0.00    -0.441 A  
HETATM    6  C   UNL     1     -12.860  11.365  71.148  1.00  0.00    -0.440 A  
HETATM    7  C   UNL     1     -12.760  10.183  71.885  1.00  0.00    -0.493 A  
ENDROOT
BRANCH   5   8
HETATM    8  C   UNL     1     -12.013  12.945  69.362  1.00  0.00    -0.269 C  
BRANCH   8   9
HETATM    9  O   UNL     1     -10.722  13.253  68.852  1.00  0.00    -0.242 OA 
BRANCH   9  10
HETATM   10  C   UNL     1     -10.691  14.043  67.642  1.00  0.00    -0.257 C  
BRANCH  10  11
HETATM   11  C   UNL     1     -10.013  15.390  67.950  1.00  0.00    -0.221 A  
HETATM   12  C   UNL     1      -8.865  17.922  68.507  1.00  0.00    -0.289 A  
HETATM   13  C   UNL     1      -8.620  15.549  68.101  1.00  0.00    -0.152 A  
HETATM   14  C   UNL     1     -10.807  16.544  68.138  1.00  0.00    -0.345 A  
HETATM   15  C   UNL     1      -8.050  16.809  68.346  1.00  0.00    -0.219 A  
HETATM   16 CL   UNL     1      -8.163  19.457  68.841  1.00  0.00    -0.387 Cl 
HETATM   17 CL   UNL     1      -7.512  14.223  68.058  1.00  0.00    -0.125 Cl 
HETATM   18  C   UNL     1     -10.242  17.793  68.421  1.00  0.00    -0.384 A  
ENDBRANCH  10  11
BRANCH  10  19
HETATM   19  C   UNL     1     -12.106  14.130  67.016  1.00  0.00    -0.414 C  
BRANCH  19  20
HETATM   20  N   UNL     1     -12.179  13.663  65.647  1.00  0.00    -0.423 NA 
HETATM   21  C   UNL     1     -12.028  12.371  65.224  1.00  0.00    -0.404 A  
HETATM   22  N   UNL     1     -12.449  13.708  63.454  1.00  0.00    -0.800 NA 
HETATM   23  C   UNL     1     -12.150  12.434  63.856  1.00  0.00    -0.499 A  
HETATM   24  C   UNL     1     -12.485  14.421  64.557  1.00  0.00    -0.339 A  
ENDBRANCH  19  20
ENDBRANCH  10  19
ENDBRANCH   9  10
ENDBRANCH   8   9
ENDBRANCH   5   8
TORSDOF 6
ENDMDL
MODEL       15
REMARK 921   NORMALIZED FREE ENERGY PREDICTED BY IDOCK:   -6.16 KCAL/MOL
REMARK 922        TOTAL FREE ENERGY PREDICTED BY IDOCK:   -9.45 KCAL/MOL
REMARK 923 INTER-LIGAND FREE ENERGY PREDICTED BY IDOCK:   -8.99 KCAL/MOL
REMARK 924 INTRA-LIGAND FREE ENERGY PREDICTED BY IDOCK:   -0.46 KCAL/MOL
REMARK 927      BINDING AFFINITY PREDICTED BY RF-SCORE:    0.00 PKD
ROOT
HETATM    1 CL   UNL     1     -13.100   9.001  72.192  1.00  0.00    -0.453 Cl 
HETATM    2  C   UNL     1     -12.758  10.525  71.472  1.00  0.00    -0.452 A  
HETATM    3  C   UNL     1     -13.216  11.695  72.071  1.00  0.00    -0.443 A  
HETATM    4  C   UNL     1     -12.947  12.930  71.475  1.00  0.00    -0.388 A  
HETATM    5  C   UNL     1     -12.220  13.003  70.275  1.00  0.00    -0.368 A  
HETATM    6  C   UNL     1     -11.762  11.815  69.687  1.00  0.00    -0.413 A  
HETATM    7  C   UNL     1     -12.029  10.581  70.286  1.00  0.00    -0.411 A  
ENDROOT
BRANCH   5   8
HETATM    8  C   UNL     1     -11.988  14.334  69.600  1.00  0.00    -0.336 C  
BRANCH   8   9
HETATM    9  O   UNL     1     -10.786  14.270  68.843  1.00  0.00    -0.248 OA 
BRANCH   9  10
HETATM   10  C   UNL     1     -10.885  14.687  67.463  1.00  0.00    -0.286 C  
BRANCH  10  11
HETATM   11  C   UNL     1     -10.614  16.200  67.384  1.00  0.00    -0.311 A  
HETATM   12  C   UNL     1     -10.114  18.991  67.352  1.00  0.00    -0.370 A  
HETATM   13  C   UNL     1     -10.615  16.934  66.180  1.00  0.00    -0.194 A  
HETATM   14  C   UNL     1     -10.305  16.916  68.563  1.00  0.00    -0.336 A  
HETATM   15  C   UNL     1     -10.397  18.321  66.169  1.00  0.00    -0.414 A  
HETATM   16 CL   UNL     1      -9.814  20.685  67.328  1.00  0.00    -0.600 Cl 
HETATM   17 CL   UNL     1     -10.821  16.197  64.630  1.00  0.00    -0.315 Cl 
HETATM   18  C   UNL     1     -10.049  18.292  68.548  1.00  0.00    -0.419 A  
ENDBRANCH  10  11
BRANCH  10  19
HETATM   19  C   UNL     1     -12.226  14.211  66.848  1.00  0.00    -0.365 C  
BRANCH  19  20
HETATM   20  N   UNL     1     -12.077  13.328  65.710  1.00  0.00    -0.416 NA 
HETATM   21  C   UNL     1     -11.023  12.491  65.469  1.00  0.00    -0.287 A  
HETATM   22  N   UNL     1     -12.554  12.281  63.823  1.00  0.00    -0.709 NA 
HETATM   23  C   UNL     1     -11.320  11.890  64.268  1.00  0.00    -0.353 A  
HETATM   24  C   UNL     1     -12.997  13.128  64.725  1.00  0.00    -0.104 A  
ENDBRANCH  19  20
ENDBRANCH  10  19
ENDBRANCH   9  10
ENDBRANCH   8   9
ENDBRANCH   5   8
TORSDOF 6
ENDMDL
MODEL       16
REMARK 921   NORMALIZED FREE ENERGY PREDICTED BY IDOCK:   -6.16 KCAL/MOL
REMARK 922        TOTAL FREE ENERGY PREDICTED BY IDOCK:   -9.45 KCAL/MOL
REMARK 923 INTER-LIGAND FREE ENERGY PREDICTED BY IDOCK:   -8.49 KCAL/MOL
REMARK 924 INTRA-LIGAND FREE ENERGY PREDICTED BY IDOCK:   -0.96 KCAL/MOL
REMARK 927      BINDING AFFINITY PREDICTED BY RF-SCORE:    0.00 PKD
ROOT
HETATM    1 CL   UNL     1     -10.459   6.537  73.238  1.00  0.00    -0.253 Cl 
HETATM    2  C   UNL     1     -10.959   7.915  72.338  1.00  0.00    -0.325 A  
HETATM    3  C   UNL     1     -10.047   8.584  71.527  1.00  0.00    -0.315 A  
HETATM    4  C   UNL     1     -10.454   9.712  70.808  1.00  0.00    -0.375 A  
HETATM    5  C   UNL     1     -11.776  10.178  70.898  1.00  0.00    -0.468 A  
HETATM    6  C   UNL     1     -12.683   9.490  71.717  1.00  0.00    -0.492 A  
HETATM    7  C   UNL     1     -12.275   8.362  72.431  1.00  0.00    -0.430 A  
ENDROOT
BRANCH   5   8
HETATM    8  C   UNL     1     -12.195  11.435  70.172  1.00  0.00    -0.321 C  
BRANCH   8   9
HETATM    9  O   UNL     1     -12.162  11.196  68.771  1.00  0.00    -0.555 OA 
BRANCH   9  10
HETATM   10  C   UNL     1     -11.695  12.292  67.953  1.00  0.00    -0.347 C  
BRANCH  10  11
HETATM   11  C   UNL     1     -11.130  11.721  66.640  1.00  0.00    -0.364 A  
HETATM   12  C   UNL     1     -10.026  10.599  64.281  1.00  0.00    -0.349 A  
HETATM   13  C   UNL     1     -11.427  12.247  65.365  1.00  0.00    -0.354 A  
HETATM   14  C   UNL     1     -10.295  10.581  66.675  1.00  0.00    -0.295 A  
HETATM   15  C   UNL     1     -10.856  11.710  64.200  1.00  0.00    -0.433 A  
HETATM   16 CL   UNL     1      -9.356   9.924  62.848  1.00  0.00    -0.296 Cl 
HETATM   17 CL   UNL     1     -12.548  13.540  65.121  1.00  0.00    -0.486 Cl 
HETATM   18  C   UNL     1      -9.757  10.021  65.511  1.00  0.00    -0.355 A  
ENDBRANCH  10  11
BRANCH  10  19
HETATM   19  C   UNL     1     -10.731  13.198  68.761  1.00  0.00    -0.225 C  
BRANCH  19  20
HETATM   20  N   UNL     1     -10.659  14.563  68.283  1.00  0.00    -0.236 NA 
HETATM   21  C   UNL     1      -9.839  15.031  67.293  1.00  0.00    -0.228 A  
HETATM   22  N   UNL     1     -11.120  16.715  68.081  1.00  0.00    -0.340 NA 
HETATM   23  C   UNL     1     -10.110  16.377  67.221  1.00  0.00    -0.270 A  
HETATM   24  C   UNL     1     -11.448  15.597  68.688  1.00  0.00    -0.375 A  
ENDBRANCH  19  20
ENDBRANCH  10  19
ENDBRANCH   9  10
ENDBRANCH   8   9
ENDBRANCH   5   8
TORSDOF 6
ENDMDL
MODEL       17
REMARK 921   NORMALIZED FREE ENERGY PREDICTED BY IDOCK:   -6.16 KCAL/MOL
REMARK 922        TOTAL FREE ENERGY PREDICTED BY IDOCK:   -9.45 KCAL/MOL
REMARK 923 INTER-LIGAND FREE ENERGY PREDICTED BY IDOCK:   -8.45 KCAL/MOL
REMARK 924 INTRA-LIGAND FREE ENERGY PREDICTED BY IDOCK:   -1.00 KCAL/MOL
REMARK 927      BINDING AFFINITY PREDICTED BY RF-SCORE:    0.00 PKD
ROOT
HETATM    1 CL   UNL     1     -12.541  16.000  74.533  1.00  0.00    -0.650 Cl 
HETATM    2  C   UNL     1     -12.381  15.439  72.915  1.00  0.00    -0.411 A  
HETATM    3  C   UNL     1     -12.992  14.249  72.529  1.00  0.00    -0.506 A  
HETATM    4  C   UNL     1     -12.848  13.790  71.216  1.00  0.00    -0.434 A  
HETATM    5  C   UNL     1     -12.092  14.518  70.283  1.00  0.00    -0.386 A  
HETATM    6  C   UNL     1     -11.487  15.716  70.688  1.00  0.00    -0.400 A  
HETATM    7  C   UNL     1     -11.635  16.175  71.999  1.00  0.00    -0.477 A  
ENDROOT
BRANCH   5   8
HETATM    8  C   UNL     1     -11.885  13.986  68.884  1.00  0.00    -0.355 C  
BRANCH   8   9
HETATM    9  O   UNL     1     -12.406  12.665  68.806  1.00  0.00    -0.051 OA 
BRANCH   9  10
HETATM   10  C   UNL     1     -11.709  11.761  67.921  1.00  0.00    -0.276 C  
BRANCH  10  11
HETATM   11  C   UNL     1     -11.112  10.615  68.758  1.00  0.00    -0.316 A  
HETATM   12  C   UNL     1     -10.037   8.562  70.392  1.00  0.00    -0.189 A  
HETATM   13  C   UNL     1     -10.439   9.507  68.201  1.00  0.00    -0.223 A  
HETATM   14  C   UNL     1     -11.263  10.624  70.163  1.00  0.00    -0.378 A  
HETATM   15  C   UNL     1      -9.881   8.506  69.013  1.00  0.00    -0.184 A  
HETATM   16 CL   UNL     1      -9.382   7.316  71.381  1.00  0.00    -0.150 Cl 
HETATM   17 CL   UNL     1     -10.296   9.253  66.497  1.00  0.00    -0.308 Cl 
HETATM   18  C   UNL     1     -10.741   9.607  70.971  1.00  0.00    -0.393 A  
ENDBRANCH  10  11
BRANCH  10  19
HETATM   19  C   UNL     1     -10.704  12.539  67.033  1.00  0.00    -0.242 C  
BRANCH  19  20
HETATM   20  N   UNL     1     -11.052  12.566  65.628  1.00  0.00    -0.292 NA 
HETATM   21  C   UNL     1     -10.186  12.422  64.578  1.00  0.00    -0.299 A  
HETATM   22  N   UNL     1     -12.290  12.684  63.801  1.00  0.00    -0.624 NA 
HETATM   23  C   UNL     1     -10.972  12.549  63.457  1.00  0.00    -0.420 A  
HETATM   24  C   UNL     1     -12.310  12.665  65.115  1.00  0.00    -0.484 A  
ENDBRANCH  19  20
ENDBRANCH  10  19
ENDBRANCH   9  10
ENDBRANCH   8   9
ENDBRANCH   5   8
TORSDOF 6
ENDMDL
MODEL       18
REMARK 921   NORMALIZED FREE ENERGY PREDICTED BY IDOCK:   -6.13 KCAL/MOL
REMARK 922        TOTAL FREE ENERGY PREDICTED BY IDOCK:   -9.40 KCAL/MOL
REMARK 923 INTER-LIGAND FREE ENERGY PREDICTED BY IDOCK:   -8.61 KCAL/MOL
REMARK 924 INTRA-LIGAND FREE ENERGY PREDICTED BY IDOCK:   -0.79 KCAL/MOL
REMARK 927      BINDING AFFINITY PREDICTED BY RF-SCORE:    0.00 PKD
ROOT
HETATM    1 CL   UNL     1      -9.766  20.567  67.023  1.00  0.00    -0.579 Cl 
HETATM    2  C   UNL     1      -9.678  18.877  67.328  1.00  0.00    -0.311 A  
HETATM    3  C   UNL     1     -10.263  18.347  68.475  1.00  0.00    -0.394 A  
HETATM    4  C   UNL     1     -10.177  16.974  68.725  1.00  0.00    -0.317 A  
HETATM    5  C   UNL     1      -9.506  16.124  67.831  1.00  0.00    -0.214 A  
HETATM    6  C   UNL     1      -8.927  16.674  66.679  1.00  0.00    -0.285 A  
HETATM    7  C   UNL     1      -9.017  18.045  66.428  1.00  0.00    -0.249 A  
ENDROOT
BRANCH   5   8
HETATM    8  C   UNL     1      -9.359  14.652  68.138  1.00  0.00    -0.197 C  
BRANCH   8   9
HETATM    9  O   UNL     1     -10.438  14.239  68.967  1.00  0.00    -0.239 OA 
BRANCH   9  10
HETATM   10  C   UNL     1     -11.352  13.282  68.386  1.00  0.00    -0.291 C  
BRANCH  10  11
HETATM   11  C   UNL     1     -11.778  12.284  69.477  1.00  0.00    -0.398 A  
HETATM   12  C   UNL     1     -12.527  10.361  71.422  1.00  0.00    -0.415 A  
HETATM   13  C   UNL     1     -12.485  12.650  70.642  1.00  0.00    -0.239 A  
HETATM   14  C   UNL     1     -11.423  10.921  69.355  1.00  0.00    -0.373 A  
HETATM   15  C   UNL     1     -12.882  11.693  71.589  1.00  0.00    -0.454 A  
HETATM   16 CL   UNL     1     -12.986   9.197  72.603  1.00  0.00    -0.413 Cl 
HETATM   17 CL   UNL     1     -12.869  14.291  71.030  1.00  0.00    -0.411 Cl 
HETATM   18  C   UNL     1     -11.784   9.972  70.318  1.00  0.00    -0.327 A  
ENDBRANCH  10  11
BRANCH  10  19
HETATM   19  C   UNL     1     -10.740  12.658  67.106  1.00  0.00    -0.241 C  
BRANCH  19  20
HETATM   20  N   UNL     1     -11.420  13.028  65.882  1.00  0.00    -0.323 NA 
HETATM   21  C   UNL     1     -11.338  12.376  64.682  1.00  0.00    -0.315 A  
HETATM   22  N   UNL     1     -12.740  14.137  64.499  1.00  0.00    -0.654 NA 
HETATM   23  C   UNL     1     -12.126  13.112  63.829  1.00  0.00    -0.495 A  
HETATM   24  C   UNL     1     -12.316  14.045  65.739  1.00  0.00    -0.480 A  
ENDBRANCH  19  20
ENDBRANCH  10  19
ENDBRANCH   9  10
ENDBRANCH   8   9
ENDBRANCH   5   8
TORSDOF 6
ENDMDL
MODEL       19
REMARK 921   NORMALIZED FREE ENERGY PREDICTED BY IDOCK:   -6.12 KCAL/MOL
REMARK 922        TOTAL FREE ENERGY PREDICTED BY IDOCK:   -9.40 KCAL/MOL
REMARK 923 INTER-LIGAND FREE ENERGY PREDICTED BY IDOCK:   -8.63 KCAL/MOL
REMARK 924 INTRA-LIGAND FREE ENERGY PREDICTED BY IDOCK:   -0.77 KCAL/MOL
REMARK 927      BINDING AFFINITY PREDICTED BY RF-SCORE:    0.00 PKD
ROOT
HETATM    1 CL   UNL     1     -10.045  11.053  63.065  1.00  0.00    -0.332 Cl 
HETATM    2  C   UNL     1     -10.594  11.854  64.485  1.00  0.00    -0.311 A  
HETATM    3  C   UNL     1     -11.840  12.473  64.495  1.00  0.00    -0.448 A  
HETATM    4  C   UNL     1     -12.277  13.134  65.648  1.00  0.00    -0.521 A  
HETATM    5  C   UNL     1     -11.468  13.180  66.795  1.00  0.00    -0.386 A  
HETATM    6  C   UNL     1     -10.218  12.546  66.769  1.00  0.00    -0.243 A  
HETATM    7  C   UNL     1      -9.785  11.883  65.618  1.00  0.00    -0.248 A  
ENDROOT
BRANCH   5   8
HETATM    8  C   UNL     1     -11.915  13.950  68.016  1.00  0.00    -0.355 C  
BRANCH   8   9
HETATM    9  O   UNL     1     -11.598  15.325  67.841  1.00  0.00    -0.339 OA 
BRANCH   9  10
HETATM   10  C   UNL     1     -11.364  16.079  69.052  1.00  0.00    -0.363 C  
BRANCH  10  11
HETATM   11  C   UNL     1     -10.177  17.030  68.818  1.00  0.00    -0.317 A  
HETATM   12  C   UNL     1      -8.061  18.867  68.381  1.00  0.00    -0.341 A  
HETATM   13  C   UNL     1      -8.845  16.594  68.651  1.00  0.00    -0.249 A  
HETATM   14  C   UNL     1     -10.392  18.427  68.804  1.00  0.00    -0.230 A  
HETATM   15  C   UNL     1      -7.804  17.503  68.404  1.00  0.00    -0.263 A  
HETATM   16 CL   UNL     1      -6.776  19.978  68.113  1.00  0.00    -0.316 Cl 
HETATM   17 CL   UNL     1      -8.374  14.936  68.791  1.00  0.00    -0.163 Cl 
HETATM   18  C   UNL     1      -9.348  19.335  68.597  1.00  0.00    -0.446 A  
ENDBRANCH  10  11
BRANCH  10  19
HETATM   19  C   UNL     1     -11.232  15.125  70.266  1.00  0.00    -0.277 C  
BRANCH  19  20
HETATM   20  N   UNL     1     -12.203  15.363  71.315  1.00  0.00    -0.335 NA 
HETATM   21  C   UNL     1     -11.948  15.905  72.545  1.00  0.00    -0.517 A  
HETATM   22  N   UNL     1     -14.150  15.446  72.355  1.00  0.00    -0.555 NA 
HETATM   23  C   UNL     1     -13.163  15.900  73.188  1.00  0.00    -0.592 A  
HETATM   24  C   UNL     1     -13.546  15.154  71.226  1.00  0.00    -0.484 A  
ENDBRANCH  19  20
ENDBRANCH  10  19
ENDBRANCH   9  10
ENDBRANCH   8   9
ENDBRANCH   5   8
TORSDOF 6
ENDMDL
MODEL       20
REMARK 921   NORMALIZED FREE ENERGY PREDICTED BY IDOCK:   -6.11 KCAL/MOL
REMARK 922        TOTAL FREE ENERGY PREDICTED BY IDOCK:   -9.38 KCAL/MOL
REMARK 923 INTER-LIGAND FREE ENERGY PREDICTED BY IDOCK:   -8.42 KCAL/MOL
REMARK 924 INTRA-LIGAND FREE ENERGY PREDICTED BY IDOCK:   -0.97 KCAL/MOL
REMARK 927      BINDING AFFINITY PREDICTED BY RF-SCORE:    0.00 PKD
ROOT
HETATM    1 CL   UNL     1      -9.920  10.926  62.898  1.00  0.00    -0.305 Cl 
HETATM    2  C   UNL     1     -10.599  11.829  64.195  1.00  0.00    -0.353 A  
HETATM    3  C   UNL     1     -11.919  12.265  64.122  1.00  0.00    -0.518 A  
HETATM    4  C   UNL     1     -12.462  13.011  65.172  1.00  0.00    -0.552 A  
HETATM    5  C   UNL     1     -11.688  13.325  66.301  1.00  0.00    -0.412 A  
HETATM    6  C   UNL     1     -10.362  12.875  66.361  1.00  0.00    -0.277 A  
HETATM    7  C   UNL     1      -9.822  12.127  65.312  1.00  0.00    -0.216 A  
ENDROOT
BRANCH   5   8
HETATM    8  C   UNL     1     -12.258  14.186  67.404  1.00  0.00    -0.243 C  
BRANCH   8   9
HETATM    9  O   UNL     1     -11.524  15.402  67.474  1.00  0.00    -0.318 OA 
BRANCH   9  10
HETATM   10  C   UNL     1     -11.210  15.876  68.802  1.00  0.00    -0.359 C  
BRANCH  10  11
HETATM   11  C   UNL     1      -9.810  16.514  68.779  1.00  0.00    -0.254 A  
HETATM   12  C   UNL     1      -7.190  17.598  68.791  1.00  0.00    -0.268 A  
HETATM   13  C   UNL     1      -9.550  17.818  68.308  1.00  0.00    -0.312 A  
HETATM   14  C   UNL     1      -8.693  15.762  69.211  1.00  0.00    -0.261 A  
HETATM   15  C   UNL     1      -8.257  18.365  68.343  1.00  0.00    -0.331 A  
HETATM   16 CL   UNL     1      -5.602  18.261  68.800  1.00  0.00    -0.190 Cl 
HETATM   17 CL   UNL     1     -10.768  18.821  67.601  1.00  0.00    -0.473 Cl 
HETATM   18  C   UNL     1      -7.398  16.293  69.210  1.00  0.00    -0.221 A  
ENDBRANCH  10  11
BRANCH  10  19
HETATM   19  C   UNL     1     -11.418  14.747  69.843  1.00  0.00    -0.281 C  
BRANCH  19  20
HETATM   20  N   UNL     1     -12.119  15.165  71.040  1.00  0.00    -0.304 NA 
HETATM   21  C   UNL     1     -11.546  15.624  72.194  1.00  0.00    -0.443 A  
HETATM   22  N   UNL     1     -13.794  15.637  72.402  1.00  0.00    -0.538 NA 
HETATM   23  C   UNL     1     -12.604  15.862  73.040  1.00  0.00    -0.501 A  
HETATM   24  C   UNL     1     -13.471  15.243  71.191  1.00  0.00    -0.489 A  
ENDBRANCH  19  20
ENDBRANCH  10  19
ENDBRANCH   9  10
ENDBRANCH   8   9
ENDBRANCH   5   8
TORSDOF 6
ENDMDL
MODEL       21
REMARK 921   NORMALIZED FREE ENERGY PREDICTED BY IDOCK:   -6.11 KCAL/MOL
REMARK 922        TOTAL FREE ENERGY PREDICTED BY IDOCK:   -9.38 KCAL/MOL
REMARK 923 INTER-LIGAND FREE ENERGY PREDICTED BY IDOCK:   -8.30 KCAL/MOL
REMARK 924 INTRA-LIGAND FREE ENERGY PREDICTED BY IDOCK:   -1.08 KCAL/MOL
REMARK 927      BINDING AFFINITY PREDICTED BY RF-SCORE:    0.00 PKD
ROOT
HETATM    1 CL   UNL     1     -11.090   6.176  70.882  1.00  0.00    -0.362 Cl 
HETATM    2  C   UNL     1     -10.851   7.612  69.967  1.00  0.00    -0.243 A  
HETATM    3  C   UNL     1     -10.529   7.529  68.615  1.00  0.00    -0.207 A  
HETATM    4  C   UNL     1     -10.322   8.699  67.878  1.00  0.00    -0.286 A  
HETATM    5  C   UNL     1     -10.435   9.959  68.489  1.00  0.00    -0.232 A  
HETATM    6  C   UNL     1     -10.764  10.024  69.851  1.00  0.00    -0.328 A  
HETATM    7  C   UNL     1     -10.974   8.855  70.584  1.00  0.00    -0.287 A  
ENDROOT
BRANCH   5   8
HETATM    8  C   UNL     1     -10.146  11.218  67.706  1.00  0.00    -0.179 C  
BRANCH   8   9
HETATM    9  O   UNL     1     -10.083  12.320  68.601  1.00  0.00    -0.212 OA 
BRANCH   9  10
HETATM   10  C   UNL     1     -10.851  13.485  68.225  1.00  0.00    -0.259 C  
BRANCH  10  11
HETATM   11  C   UNL     1     -11.426  14.129  69.499  1.00  0.00    -0.334 A  
HETATM   12  C   UNL     1     -12.551  15.225  71.860  1.00  0.00    -0.353 A  
HETATM   13  C   UNL     1     -11.104  15.433  69.932  1.00  0.00    -0.293 A  
HETATM   14  C   UNL     1     -12.298  13.384  70.326  1.00  0.00    -0.354 A  
HETATM   15  C   UNL     1     -11.685  15.985  71.085  1.00  0.00    -0.487 A  
HETATM   16 CL   UNL     1     -13.235  15.895  73.289  1.00  0.00    -0.672 Cl 
HETATM   17 CL   UNL     1      -9.939  16.428  69.131  1.00  0.00    -0.264 Cl 
HETATM   18  C   UNL     1     -12.847  13.921  71.496  1.00  0.00    -0.441 A  
ENDBRANCH  10  11
BRANCH  10  19
HETATM   19  C   UNL     1     -11.885  13.122  67.130  1.00  0.00    -0.369 C  
BRANCH  19  20
HETATM   20  N   UNL     1     -11.850  13.988  65.969  1.00  0.00    -0.370 NA 
HETATM   21  C   UNL     1     -10.994  15.035  65.768  1.00  0.00    -0.350 A  
HETATM   22  N   UNL     1     -12.360  14.814  63.984  1.00  0.00    -0.755 NA 
HETATM   23  C   UNL     1     -11.363  15.561  64.553  1.00  0.00    -0.314 A  
HETATM   24  C   UNL     1     -12.615  13.858  64.849  1.00  0.00    -0.347 A  
ENDBRANCH  19  20
ENDBRANCH  10  19
ENDBRANCH   9  10
ENDBRANCH   8   9
ENDBRANCH   5   8
TORSDOF 6
ENDMDL
MODEL       22
REMARK 921   NORMALIZED FREE ENERGY PREDICTED BY IDOCK:   -6.08 KCAL/MOL
REMARK 922        TOTAL FREE ENERGY PREDICTED BY IDOCK:   -9.34 KCAL/MOL
REMARK 923 INTER-LIGAND FREE ENERGY PREDICTED BY IDOCK:   -8.60 KCAL/MOL
REMARK 924 INTRA-LIGAND FREE ENERGY PREDICTED BY IDOCK:   -0.74 KCAL/MOL
REMARK 927      BINDING AFFINITY PREDICTED BY RF-SCORE:    0.00 PKD
ROOT
HETATM    1 CL   UNL     1     -12.498  15.338  74.306  1.00  0.00    -0.731 Cl 
HETATM    2  C   UNL     1     -12.297  15.230  72.601  1.00  0.00    -0.386 A  
HETATM    3  C   UNL     1     -11.670  16.262  71.908  1.00  0.00    -0.518 A  
HETATM    4  C   UNL     1     -11.521  16.175  70.521  1.00  0.00    -0.363 A  
HETATM    5  C   UNL     1     -12.000  15.058  69.818  1.00  0.00    -0.366 A  
HETATM    6  C   UNL     1     -12.626  14.026  70.532  1.00  0.00    -0.399 A  
HETATM    7  C   UNL     1     -12.770  14.112  71.919  1.00  0.00    -0.406 A  
ENDROOT
BRANCH   5   8
HETATM    8  C   UNL     1     -11.896  14.998  68.312  1.00  0.00    -0.268 C  
BRANCH   8   9
HETATM    9  O   UNL     1     -10.687  15.624  67.903  1.00  0.00    -0.277 OA 
BRANCH   9  10
HETATM   10  C   UNL     1     -10.422  15.623  66.483  1.00  0.00    -0.302 C  
BRANCH  10  11
HETATM   11  C   UNL     1     -10.261  14.166  66.013  1.00  0.00    -0.318 A  
HETATM   12  C   UNL     1      -9.876  11.472  65.217  1.00  0.00    -0.250 A  
HETATM   13  C   UNL     1     -11.010  13.594  64.964  1.00  0.00    -0.346 A  
HETATM   14  C   UNL     1      -9.346  13.315  66.675  1.00  0.00    -0.247 A  
HETATM   15  C   UNL     1     -10.797  12.269  64.551  1.00  0.00    -0.355 A  
HETATM   16 CL   UNL     1      -9.643   9.838  64.729  1.00  0.00    -0.339 Cl 
HETATM   17 CL   UNL     1     -12.278  14.438  64.145  1.00  0.00    -0.473 Cl 
HETATM   18  C   UNL     1      -9.161  11.983  66.289  1.00  0.00    -0.208 A  
ENDBRANCH  10  11
BRANCH  10  19
HETATM   19  C   UNL     1      -9.242  16.571  66.151  1.00  0.00    -0.303 C  
BRANCH  19  20
HETATM   20  N   UNL     1      -9.481  17.958  66.494  1.00  0.00    -0.296 NA 
HETATM   21  C   UNL     1     -10.607  18.679  66.207  1.00  0.00    -0.348 A  
HETATM   22  N   UNL     1      -9.144  19.969  67.345  1.00  0.00    -0.343 NA 
HETATM   23  C   UNL     1     -10.352  19.937  66.702  1.00  0.00    -0.485 A  
HETATM   24  C   UNL     1      -8.654  18.756  67.225  1.00  0.00    -0.274 A  
ENDBRANCH  19  20
ENDBRANCH  10  19
ENDBRANCH   9  10
ENDBRANCH   8   9
ENDBRANCH   5   8
TORSDOF 6
ENDMDL
MODEL       23
REMARK 921   NORMALIZED FREE ENERGY PREDICTED BY IDOCK:   -6.07 KCAL/MOL
REMARK 922        TOTAL FREE ENERGY PREDICTED BY IDOCK:   -9.33 KCAL/MOL
REMARK 923 INTER-LIGAND FREE ENERGY PREDICTED BY IDOCK:   -9.03 KCAL/MOL
REMARK 924 INTRA-LIGAND FREE ENERGY PREDICTED BY IDOCK:   -0.30 KCAL/MOL
REMARK 927      BINDING AFFINITY PREDICTED BY RF-SCORE:    0.00 PKD
ROOT
HETATM    1 CL   UNL     1      -6.471  20.855  67.946  1.00  0.00    -0.378 Cl 
HETATM    2  C   UNL     1      -7.845  19.819  67.964  1.00  0.00    -0.307 A  
HETATM    3  C   UNL     1      -7.708  18.491  68.357  1.00  0.00    -0.319 A  
HETATM    4  C   UNL     1      -8.825  17.650  68.358  1.00  0.00    -0.281 A  
HETATM    5  C   UNL     1     -10.084  18.132  67.964  1.00  0.00    -0.376 A  
HETATM    6  C   UNL     1     -10.204  19.474  67.575  1.00  0.00    -0.546 A  
HETATM    7  C   UNL     1      -9.088  20.314  67.579  1.00  0.00    -0.462 A  
ENDROOT
BRANCH   5   8
HETATM    8  C   UNL     1     -11.274  17.204  67.903  1.00  0.00     0.062 C  
BRANCH   8   9
HETATM    9  O   UNL     1     -10.932  15.967  68.516  1.00  0.00    -0.288 OA 
BRANCH   9  10
HETATM   10  C   UNL     1     -11.413  14.777  67.852  1.00  0.00    -0.342 C  
BRANCH  10  11
HETATM   11  C   UNL     1     -11.739  13.716  68.917  1.00  0.00    -0.377 A  
HETATM   12  C   UNL     1     -12.326  11.680  70.803  1.00  0.00    -0.358 A  
HETATM   13  C   UNL     1     -12.162  14.025  70.227  1.00  0.00    -0.361 A  
HETATM   14  C   UNL     1     -11.578  12.345  68.611  1.00  0.00    -0.365 A  
HETATM   15  C   UNL     1     -12.482  13.016  71.150  1.00  0.00    -0.364 A  
HETATM   16 CL   UNL     1     -12.686  10.449  71.948  1.00  0.00    -0.504 Cl 
HETATM   17 CL   UNL     1     -12.266  15.644  70.823  1.00  0.00    -0.431 Cl 
HETATM   18  C   UNL     1     -11.859  11.340  69.543  1.00  0.00    -0.427 A  
ENDBRANCH  10  11
BRANCH  10  19
HETATM   19  C   UNL     1     -10.421  14.336  66.745  1.00  0.00    -0.273 C  
BRANCH  19  20
HETATM   20  N   UNL     1     -11.054  13.953  65.500  1.00  0.00    -0.300 NA 
HETATM   21  C   UNL     1     -10.711  12.888  64.713  1.00  0.00    -0.333 A  
HETATM   22  N   UNL     1     -12.463  13.978  63.798  1.00  0.00    -0.796 NA 
HETATM   23  C   UNL     1     -11.567  12.955  63.640  1.00  0.00    -0.485 A  
HETATM   24  C   UNL     1     -12.145  14.545  64.939  1.00  0.00    -0.416 A  
ENDBRANCH  19  20
ENDBRANCH  10  19
ENDBRANCH   9  10
ENDBRANCH   8   9
ENDBRANCH   5   8
TORSDOF 6
ENDMDL
MODEL       24
REMARK 921   NORMALIZED FREE ENERGY PREDICTED BY IDOCK:   -5.99 KCAL/MOL
REMARK 922        TOTAL FREE ENERGY PREDICTED BY IDOCK:   -9.22 KCAL/MOL
REMARK 923 INTER-LIGAND FREE ENERGY PREDICTED BY IDOCK:   -8.20 KCAL/MOL
REMARK 924 INTRA-LIGAND FREE ENERGY PREDICTED BY IDOCK:   -1.02 KCAL/MOL
REMARK 927      BINDING AFFINITY PREDICTED BY RF-SCORE:    0.00 PKD
ROOT
HETATM    1 CL   UNL     1     -14.011  15.655  72.740  1.00  0.00    -0.623 Cl 
HETATM    2  C   UNL     1     -13.244  14.496  71.727  1.00  0.00    -0.351 A  
HETATM    3  C   UNL     1     -12.575  14.910  70.579  1.00  0.00    -0.414 A  
HETATM    4  C   UNL     1     -11.964  13.962  69.752  1.00  0.00    -0.398 A  
HETATM    5  C   UNL     1     -12.020  12.595  70.068  1.00  0.00    -0.377 A  
HETATM    6  C   UNL     1     -12.694  12.195  71.231  1.00  0.00    -0.363 A  
HETATM    7  C   UNL     1     -13.300  13.144  72.058  1.00  0.00    -0.587 A  
ENDROOT
BRANCH   5   8
HETATM    8  C   UNL     1     -11.415  11.569  69.138  1.00  0.00    -0.297 C  
BRANCH   8   9
HETATM    9  O   UNL     1     -11.875  11.811  67.815  1.00  0.00    -0.541 OA 
BRANCH   9  10
HETATM   10  C   UNL     1     -10.856  11.882  66.794  1.00  0.00    -0.266 C  
BRANCH  10  11
HETATM   11  C   UNL     1     -10.358  13.335  66.695  1.00  0.00    -0.274 A  
HETATM   12  C   UNL     1      -9.347  15.982  66.567  1.00  0.00    -0.268 A  
HETATM   13  C   UNL     1     -11.135  14.397  66.185  1.00  0.00    -0.330 A  
HETATM   14  C   UNL     1      -9.038  13.650  67.091  1.00  0.00    -0.241 A  
HETATM   15  C   UNL     1     -10.645  15.712  66.151  1.00  0.00    -0.325 A  
HETATM   16 CL   UNL     1      -8.739  17.589  66.490  1.00  0.00    -0.283 Cl 
HETATM   17 CL   UNL     1     -12.712  14.169  65.514  1.00  0.00    -0.519 Cl 
HETATM   18  C   UNL     1      -8.535  14.954  67.021  1.00  0.00    -0.260 A  
ENDBRANCH  10  11
BRANCH  10  19
HETATM   19  C   UNL     1     -11.369  11.256  65.472  1.00  0.00     0.096 C  
BRANCH  19  20
HETATM   20  N   UNL     1     -10.340  11.051  64.474  1.00  0.00    -0.337 NA 
HETATM   21  C   UNL     1      -9.466  10.000  64.418  1.00  0.00    -0.286 A  
HETATM   22  N   UNL     1      -9.096  11.392  62.679  1.00  0.00    -0.306 NA 
HETATM   23  C   UNL     1      -8.674  10.261  63.325  1.00  0.00    -0.207 A  
HETATM   24  C   UNL     1     -10.117  11.831  63.379  1.00  0.00    -0.446 A  
ENDBRANCH  19  20
ENDBRANCH  10  19
ENDBRANCH   9  10
ENDBRANCH   8   9
ENDBRANCH   5   8
TORSDOF 6
ENDMDL
MODEL       25
REMARK 921   NORMALIZED FREE ENERGY PREDICTED BY IDOCK:   -5.96 KCAL/MOL
REMARK 922        TOTAL FREE ENERGY PREDICTED BY IDOCK:   -9.17 KCAL/MOL
REMARK 923 INTER-LIGAND FREE ENERGY PREDICTED BY IDOCK:   -8.08 KCAL/MOL
REMARK 924 INTRA-LIGAND FREE ENERGY PREDICTED BY IDOCK:   -1.10 KCAL/MOL
REMARK 927      BINDING AFFINITY PREDICTED BY RF-SCORE:    0.00 PKD
ROOT
HETATM    1 CL   UNL     1     -14.031  15.763  72.701  1.00  0.00    -0.632 Cl 
HETATM    2  C   UNL     1     -13.333  14.402  71.913  1.00  0.00    -0.374 A  
HETATM    3  C   UNL     1     -12.620  14.574  70.731  1.00  0.00    -0.418 A  
HETATM    4  C   UNL     1     -12.066  13.463  70.087  1.00  0.00    -0.415 A  
HETATM    5  C   UNL     1     -12.224  12.175  70.623  1.00  0.00    -0.392 A  
HETATM    6  C   UNL     1     -12.942  12.020  71.817  1.00  0.00    -0.445 A  
HETATM    7  C   UNL     1     -13.491  13.131  72.460  1.00  0.00    -0.579 A  
ENDROOT
BRANCH   5   8
HETATM    8  C   UNL     1     -11.680  10.970  69.890  1.00  0.00    -0.346 C  
BRANCH   8   9
HETATM    9  O   UNL     1     -11.944  11.112  68.500  1.00  0.00    -0.526 OA 
BRANCH   9  10
HETATM   10  C   UNL     1     -10.785  11.233  67.646  1.00  0.00    -0.226 C  
BRANCH  10  11
HETATM   11  C   UNL     1     -10.887  12.555  66.863  1.00  0.00    -0.280 A  
HETATM   12  C   UNL     1     -11.179  14.963  65.395  1.00  0.00    -0.359 A  
HETATM   13  C   UNL     1      -9.797  13.426  66.652  1.00  0.00    -0.278 A  
HETATM   14  C   UNL     1     -12.137  12.968  66.348  1.00  0.00    -0.428 A  
HETATM   15  C   UNL     1      -9.936  14.602  65.899  1.00  0.00    -0.352 A  
HETATM   16 CL   UNL     1     -11.352  16.424  64.503  1.00  0.00    -0.321 Cl 
HETATM   17 CL   UNL     1      -8.233  13.158  67.338  1.00  0.00    -0.181 Cl 
HETATM   18  C   UNL     1     -12.285  14.160  65.631  1.00  0.00    -0.449 A  
ENDBRANCH  10  11
BRANCH  10  19
HETATM   19  C   UNL     1     -10.609   9.955  66.786  1.00  0.00    -0.144 C  
BRANCH  19  20
HETATM   20  N   UNL     1      -9.519  10.024  65.836  1.00  0.00    -0.189 NA 
HETATM   21  C   UNL     1      -8.188   9.880  66.121  1.00  0.00    -0.118 A  
HETATM   22  N   UNL     1      -8.462  10.219  63.905  1.00  0.00    -0.173 NA 
HETATM   23  C   UNL     1      -7.551  10.054  64.915  1.00  0.00    -0.139 A  
HETATM   24  C   UNL     1      -9.639  10.171  64.487  1.00  0.00    -0.311 A  
ENDBRANCH  19  20
ENDBRANCH  10  19
ENDBRANCH   9  10
ENDBRANCH   8   9
ENDBRANCH   5   8
TORSDOF 6
ENDMDL
MODEL       26
REMARK 921   NORMALIZED FREE ENERGY PREDICTED BY IDOCK:   -5.94 KCAL/MOL
REMARK 922        TOTAL FREE ENERGY PREDICTED BY IDOCK:   -9.15 KCAL/MOL
REMARK 923 INTER-LIGAND FREE ENERGY PREDICTED BY IDOCK:   -8.08 KCAL/MOL
REMARK 924 INTRA-LIGAND FREE ENERGY PREDICTED BY IDOCK:   -1.07 KCAL/MOL
REMARK 927      BINDING AFFINITY PREDICTED BY RF-SCORE:    0.00 PKD
ROOT
HETATM    1 CL   UNL     1     -10.483  20.013  65.821  1.00  0.00    -0.546 Cl 
HETATM    2  C   UNL     1     -10.184  18.548  66.670  1.00  0.00    -0.399 A  
HETATM    3  C   UNL     1      -9.955  17.370  65.964  1.00  0.00    -0.230 A  
HETATM    4  C   UNL     1      -9.725  16.179  66.659  1.00  0.00    -0.260 A  
HETATM    5  C   UNL     1      -9.724  16.159  68.063  1.00  0.00    -0.229 A  
HETATM    6  C   UNL     1      -9.952  17.355  68.758  1.00  0.00    -0.329 A  
HETATM    7  C   UNL     1     -10.178  18.545  68.063  1.00  0.00    -0.415 A  
ENDROOT
BRANCH   5   8
HETATM    8  C   UNL     1      -9.541  14.858  68.810  1.00  0.00    -0.214 C  
BRANCH   8   9
HETATM    9  O   UNL     1     -10.780  14.476  69.393  1.00  0.00    -0.242 OA 
BRANCH   9  10
HETATM   10  C   UNL     1     -11.171  13.098  69.202  1.00  0.00    -0.247 C  
BRANCH  10  11
HETATM   11  C   UNL     1     -11.426  12.862  67.703  1.00  0.00    -0.383 A  
HETATM   12  C   UNL     1     -11.978  12.500  64.945  1.00  0.00    -0.412 A  
HETATM   13  C   UNL     1     -10.754  11.884  66.939  1.00  0.00    -0.246 A  
HETATM   14  C   UNL     1     -12.350  13.680  67.013  1.00  0.00    -0.277 A  
HETATM   15  C   UNL     1     -11.050  11.686  65.581  1.00  0.00    -0.308 A  
HETATM   16 CL   UNL     1     -12.313  12.275  63.272  1.00  0.00    -0.598 Cl 
HETATM   17 CL   UNL     1      -9.485  10.900  67.579  1.00  0.00    -0.164 Cl 
HETATM   18  C   UNL     1     -12.617  13.508  65.650  1.00  0.00    -0.512 A  
ENDBRANCH  10  11
BRANCH  10  19
HETATM   19  C   UNL     1     -12.343  12.732  70.148  1.00  0.00    -0.165 C  
BRANCH  19  20
HETATM   20  N   UNL     1     -12.269  11.393  70.694  1.00  0.00    -0.381 NA 
HETATM   21  C   UNL     1     -11.300  10.464  70.428  1.00  0.00    -0.337 A  
HETATM   22  N   UNL     1     -12.790   9.613  71.896  1.00  0.00    -0.403 NA 
HETATM   23  C   UNL     1     -11.674   9.353  71.147  1.00  0.00    -0.345 A  
HETATM   24  C   UNL     1     -13.111  10.857  71.622  1.00  0.00    -0.433 A  
ENDBRANCH  19  20
ENDBRANCH  10  19
ENDBRANCH   9  10
ENDBRANCH   8   9
ENDBRANCH   5   8
TORSDOF 6
ENDMDL
MODEL       27
REMARK 921   NORMALIZED FREE ENERGY PREDICTED BY IDOCK:   -5.94 KCAL/MOL
REMARK 922        TOTAL FREE ENERGY PREDICTED BY IDOCK:   -9.15 KCAL/MOL
REMARK 923 INTER-LIGAND FREE ENERGY PREDICTED BY IDOCK:   -8.04 KCAL/MOL
REMARK 924 INTRA-LIGAND FREE ENERGY PREDICTED BY IDOCK:   -1.11 KCAL/MOL
REMARK 927      BINDING AFFINITY PREDICTED BY RF-SCORE:    0.00 PKD
ROOT
HETATM    1 CL   UNL     1     -13.923  15.559  72.630  1.00  0.00    -0.635 Cl 
HETATM    2  C   UNL     1     -13.292  14.201  71.784  1.00  0.00    -0.380 A  
HETATM    3  C   UNL     1     -13.531  12.914  72.259  1.00  0.00    -0.631 A  
HETATM    4  C   UNL     1     -13.005  11.814  71.576  1.00  0.00    -0.446 A  
HETATM    5  C   UNL     1     -12.236  11.995  70.414  1.00  0.00    -0.379 A  
HETATM    6  C   UNL     1     -12.009  13.297  69.947  1.00  0.00    -0.400 A  
HETATM    7  C   UNL     1     -12.538  14.395  70.629  1.00  0.00    -0.424 A  
ENDROOT
BRANCH   5   8
HETATM    8  C   UNL     1     -11.615  10.807  69.716  1.00  0.00    -0.317 C  
BRANCH   8   9
HETATM    9  O   UNL     1     -11.920  10.870  68.329  1.00  0.00    -0.561 OA 
BRANCH   9  10
HETATM   10  C   UNL     1     -10.792  11.036  67.440  1.00  0.00    -0.274 C  
BRANCH  10  11
HETATM   11  C   UNL     1     -10.967  12.353  66.663  1.00  0.00    -0.309 A  
HETATM   12  C   UNL     1     -11.369  14.731  65.172  1.00  0.00    -0.379 A  
HETATM   13  C   UNL     1     -10.124  13.474  66.823  1.00  0.00    -0.268 A  
HETATM   14  C   UNL     1     -12.045  12.495  65.761  1.00  0.00    -0.443 A  
HETATM   15  C   UNL     1     -10.306  14.639  66.062  1.00  0.00    -0.317 A  
HETATM   16 CL   UNL     1     -11.607  16.175  64.268  1.00  0.00    -0.294 Cl 
HETATM   17 CL   UNL     1      -8.851  13.533  67.991  1.00  0.00    -0.174 Cl 
HETATM   18  C   UNL     1     -12.250  13.671  65.030  1.00  0.00    -0.450 A  
ENDBRANCH  10  11
BRANCH  10  19
HETATM   19  C   UNL     1     -10.595   9.766  66.573  1.00  0.00    -0.080 C  
BRANCH  19  20
HETATM   20  N   UNL     1      -9.949   8.670  67.265  1.00  0.00    -0.198 NA 
HETATM   21  C   UNL     1     -10.457   7.411  67.439  1.00  0.00    -0.296 A  
HETATM   22  N   UNL     1      -8.407   7.542  68.377  1.00  0.00    -0.125 NA 
HETATM   23  C   UNL     1      -9.503   6.747  68.173  1.00  0.00    -0.120 A  
HETATM   24  C   UNL     1      -8.694   8.685  67.797  1.00  0.00    -0.137 A  
ENDBRANCH  19  20
ENDBRANCH  10  19
ENDBRANCH   9  10
ENDBRANCH   8   9
ENDBRANCH   5   8
TORSDOF 6
ENDMDL
MODEL       28
REMARK 921   NORMALIZED FREE ENERGY PREDICTED BY IDOCK:   -5.89 KCAL/MOL
REMARK 922        TOTAL FREE ENERGY PREDICTED BY IDOCK:   -9.09 KCAL/MOL
REMARK 923 INTER-LIGAND FREE ENERGY PREDICTED BY IDOCK:   -8.45 KCAL/MOL
REMARK 924 INTRA-LIGAND FREE ENERGY PREDICTED BY IDOCK:   -0.64 KCAL/MOL
REMARK 927      BINDING AFFINITY PREDICTED BY RF-SCORE:    0.00 PKD
ROOT
HETATM    1 CL   UNL     1     -11.057   5.939  71.732  1.00  0.00    -0.326 Cl 
HETATM    2  C   UNL     1     -11.468   7.590  71.482  1.00  0.00    -0.265 A  
HETATM    3  C   UNL     1     -12.619   8.115  72.063  1.00  0.00    -0.366 A  
HETATM    4  C   UNL     1     -12.956   9.455  71.847  1.00  0.00    -0.502 A  
HETATM    5  C   UNL     1     -12.144  10.276  71.046  1.00  0.00    -0.487 A  
HETATM    6  C   UNL     1     -10.987   9.732  70.472  1.00  0.00    -0.384 A  
HETATM    7  C   UNL     1     -10.649   8.395  70.693  1.00  0.00    -0.234 A  
ENDROOT
BRANCH   5   8
HETATM    8  C   UNL     1     -12.547  11.704  70.762  1.00  0.00    -0.273 C  
BRANCH   8   9
HETATM    9  O   UNL     1     -11.555  12.314  69.945  1.00  0.00    -0.276 OA 
BRANCH   9  10
HETATM   10  C   UNL     1     -12.008  13.396  69.101  1.00  0.00    -0.317 C  
BRANCH  10  11
HETATM   11  C   UNL     1     -11.613  13.085  67.647  1.00  0.00    -0.403 A  
HETATM   12  C   UNL     1     -10.988  12.546  64.934  1.00  0.00    -0.300 A  
HETATM   13  C   UNL     1     -10.393  12.480  67.278  1.00  0.00    -0.220 A  
HETATM   14  C   UNL     1     -12.483  13.450  66.593  1.00  0.00    -0.212 A  
HETATM   15  C   UNL     1     -10.098  12.186  65.938  1.00  0.00    -0.270 A  
HETATM   16 CL   UNL     1     -10.606  12.213  63.290  1.00  0.00    -0.431 Cl 
HETATM   17 CL   UNL     1      -9.148  12.107  68.418  1.00  0.00    -0.180 Cl 
HETATM   18  C   UNL     1     -12.172  13.193  65.253  1.00  0.00    -0.502 A  
ENDBRANCH  10  11
BRANCH  10  19
HETATM   19  C   UNL     1     -11.515  14.757  69.656  1.00  0.00    -0.292 C  
BRANCH  19  20
HETATM   20  N   UNL     1     -12.128  15.144  70.909  1.00  0.00    -0.305 NA 
HETATM   21  C   UNL     1     -11.472  15.436  72.074  1.00  0.00    -0.434 A  
HETATM   22  N   UNL     1     -13.697  15.676  72.371  1.00  0.00    -0.528 NA 
HETATM   23  C   UNL     1     -12.470  15.714  72.978  1.00  0.00    -0.457 A  
HETATM   24  C   UNL     1     -13.458  15.355  71.120  1.00  0.00    -0.493 A  
ENDBRANCH  19  20
ENDBRANCH  10  19
ENDBRANCH   9  10
ENDBRANCH   8   9
ENDBRANCH   5   8
TORSDOF 6
ENDMDL
MODEL       29
REMARK 921   NORMALIZED FREE ENERGY PREDICTED BY IDOCK:   -5.89 KCAL/MOL
REMARK 922        TOTAL FREE ENERGY PREDICTED BY IDOCK:   -9.08 KCAL/MOL
REMARK 923 INTER-LIGAND FREE ENERGY PREDICTED BY IDOCK:   -8.18 KCAL/MOL
REMARK 924 INTRA-LIGAND FREE ENERGY PREDICTED BY IDOCK:   -0.90 KCAL/MOL
REMARK 927      BINDING AFFINITY PREDICTED BY RF-SCORE:    0.00 PKD
ROOT
HETATM    1 CL   UNL     1     -12.163   6.717  71.791  1.00  0.00    -0.388 Cl 
HETATM    2  C   UNL     1     -12.138   8.398  71.424  1.00  0.00    -0.301 A  
HETATM    3  C   UNL     1     -13.104   9.241  71.964  1.00  0.00    -0.512 A  
HETATM    4  C   UNL     1     -13.087  10.604  71.652  1.00  0.00    -0.555 A  
HETATM    5  C   UNL     1     -12.104  11.130  70.798  1.00  0.00    -0.458 A  
HETATM    6  C   UNL     1     -11.136  10.267  70.266  1.00  0.00    -0.388 A  
HETATM    7  C   UNL     1     -11.152   8.906  70.582  1.00  0.00    -0.306 A  
ENDROOT
BRANCH   5   8
HETATM    8  C   UNL     1     -12.129  12.590  70.411  1.00  0.00    -0.297 C  
BRANCH   8   9
HETATM    9  O   UNL     1     -10.928  12.910  69.719  1.00  0.00     0.076 OA 
BRANCH   9  10
HETATM   10  C   UNL     1     -11.012  14.004  68.779  1.00  0.00    -0.262 C  
BRANCH  10  11
HETATM   11  C   UNL     1     -11.386  13.440  67.397  1.00  0.00    -0.338 A  
HETATM   12  C   UNL     1     -12.160  12.471  64.847  1.00  0.00    -0.440 A  
HETATM   13  C   UNL     1     -10.741  12.334  66.802  1.00  0.00    -0.240 A  
HETATM   14  C   UNL     1     -12.400  14.065  66.638  1.00  0.00    -0.408 A  
HETATM   15  C   UNL     1     -11.146  11.837  65.554  1.00  0.00    -0.336 A  
HETATM   16 CL   UNL     1     -12.629  11.878  63.302  1.00  0.00    -0.635 Cl 
HETATM   17 CL   UNL     1      -9.380  11.543  67.518  1.00  0.00    -0.164 Cl 
HETATM   18  C   UNL     1     -12.778  13.594  65.376  1.00  0.00    -0.500 A  
ENDBRANCH  10  11
BRANCH  10  19
HETATM   19  C   UNL     1      -9.721  14.860  68.829  1.00  0.00    -0.225 C  
BRANCH  19  20
HETATM   20  N   UNL     1      -9.810  16.111  68.104  1.00  0.00    -0.225 NA 
HETATM   21  C   UNL     1      -9.112  16.443  66.976  1.00  0.00    -0.214 A  
HETATM   22  N   UNL     1     -10.480  18.143  67.553  1.00  0.00    -0.397 NA 
HETATM   23  C   UNL     1      -9.509  17.726  66.683  1.00  0.00    -0.292 A  
HETATM   24  C   UNL     1     -10.658  17.140  68.382  1.00  0.00    -0.371 A  
ENDBRANCH  19  20
ENDBRANCH  10  19
ENDBRANCH   9  10
ENDBRANCH   8   9
ENDBRANCH   5   8
TORSDOF 6
ENDMDL
MODEL       30
REMARK 921   NORMALIZED FREE ENERGY PREDICTED BY IDOCK:   -5.87 KCAL/MOL
REMARK 922        TOTAL FREE ENERGY PREDICTED BY IDOCK:   -9.05 KCAL/MOL
REMARK 923 INTER-LIGAND FREE ENERGY PREDICTED BY IDOCK:   -8.13 KCAL/MOL
REMARK 924 INTRA-LIGAND FREE ENERGY PREDICTED BY IDOCK:   -0.92 KCAL/MOL
REMARK 927      BINDING AFFINITY PREDICTED BY RF-SCORE:    0.00 PKD
ROOT
HETATM    1 CL   UNL     1      -9.514  10.172  62.662  1.00  0.00    -0.309 Cl 
HETATM    2  C   UNL     1     -10.160  10.718  64.160  1.00  0.00    -0.353 A  
HETATM    3  C   UNL     1     -10.994  11.832  64.192  1.00  0.00    -0.437 A  
HETATM    4  C   UNL     1     -11.506  12.279  65.413  1.00  0.00    -0.402 A  
HETATM    5  C   UNL     1     -11.186  11.616  66.609  1.00  0.00    -0.362 A  
HETATM    6  C   UNL     1     -10.348  10.494  66.558  1.00  0.00    -0.294 A  
HETATM    7  C   UNL     1      -9.840  10.046  65.337  1.00  0.00    -0.384 A  
ENDROOT
BRANCH   5   8
HETATM    8  C   UNL     1     -11.688  12.142  67.934  1.00  0.00    -0.336 C  
BRANCH   8   9
HETATM    9  O   UNL     1     -11.932  11.047  68.808  1.00  0.00    -0.457 OA 
BRANCH   9  10
HETATM   10  C   UNL     1     -11.846  11.335  70.221  1.00  0.00    -0.357 C  
BRANCH  10  11
HETATM   11  C   UNL     1     -11.444  10.048  70.962  1.00  0.00    -0.463 A  
HETATM   12  C   UNL     1     -10.800   7.677  72.380  1.00  0.00    -0.289 A  
HETATM   13  C   UNL     1     -10.163   9.461  70.874  1.00  0.00    -0.303 A  
HETATM   14  C   UNL     1     -12.399   9.368  71.752  1.00  0.00    -0.471 A  
HETATM   15  C   UNL     1      -9.837   8.305  71.600  1.00  0.00    -0.263 A  
HETATM   16 CL   UNL     1     -10.405   6.241  73.241  1.00  0.00    -0.225 Cl 
HETATM   17 CL   UNL     1      -8.921  10.068  69.837  1.00  0.00    -0.216 Cl 
HETATM   18  C   UNL     1     -12.086   8.193  72.446  1.00  0.00    -0.406 A  
ENDBRANCH  10  11
BRANCH  10  19
HETATM   19  C   UNL     1     -13.149  12.015  70.715  1.00  0.00     0.267 C  
BRANCH  19  20
HETATM   20  N   UNL     1     -12.940  13.289  71.371  1.00  0.00    -0.343 NA 
HETATM   21  C   UNL     1     -12.046  14.255  70.997  1.00  0.00    -0.344 A  
HETATM   22  N   UNL     1     -13.206  14.949  72.806  1.00  0.00    -0.435 NA 
HETATM   23  C   UNL     1     -12.196  15.252  71.932  1.00  0.00    -0.361 A  
HETATM   24  C   UNL     1     -13.652  13.773  72.428  1.00  0.00    -0.588 A  
ENDBRANCH  19  20
ENDBRANCH  10  19
ENDBRANCH   9  10
ENDBRANCH   8   9
ENDBRANCH   5   8
TORSDOF 6
ENDMDL
MODEL       31
REMARK 921   NORMALIZED FREE ENERGY PREDICTED BY IDOCK:   -5.85 KCAL/MOL
REMARK 922        TOTAL FREE ENERGY PREDICTED BY IDOCK:   -9.04 KCAL/MOL
REMARK 923 INTER-LIGAND FREE ENERGY PREDICTED BY IDOCK:   -7.89 KCAL/MOL
REMARK 924 INTRA-LIGAND FREE ENERGY PREDICTED BY IDOCK:   -1.14 KCAL/MOL
REMARK 927      BINDING AFFINITY PREDICTED BY RF-SCORE:    0.00 PKD
ROOT
HETATM    1 CL   UNL     1      -8.986   9.758  62.401  1.00  0.00    -0.265 Cl 
HETATM    2  C   UNL     1      -9.584  10.151  63.965  1.00  0.00    -0.257 A  
HETATM    3  C   UNL     1     -10.558  11.135  64.109  1.00  0.00    -0.436 A  
HETATM    4  C   UNL     1     -11.031  11.460  65.385  1.00  0.00    -0.249 A  
HETATM    5  C   UNL     1     -10.531  10.804  66.521  1.00  0.00    -0.299 A  
HETATM    6  C   UNL     1      -9.553   9.813  66.357  1.00  0.00    -0.256 A  
HETATM    7  C   UNL     1      -9.084   9.487  65.083  1.00  0.00    -0.281 A  
ENDROOT
BRANCH   5   8
HETATM    8  C   UNL     1     -10.997  11.204  67.902  1.00  0.00    -0.253 C  
BRANCH   8   9
HETATM    9  O   UNL     1     -12.131  12.053  67.783  1.00  0.00    -0.537 OA 
BRANCH   9  10
HETATM   10  C   UNL     1     -12.103  13.261  68.575  1.00  0.00    -0.221 C  
BRANCH  10  11
HETATM   11  C   UNL     1     -11.145  14.265  67.909  1.00  0.00    -0.293 A  
HETATM   12  C   UNL     1      -9.318  16.113  66.775  1.00  0.00    -0.234 A  
HETATM   13  C   UNL     1     -11.381  14.856  66.650  1.00  0.00    -0.326 A  
HETATM   14  C   UNL     1      -9.932  14.605  68.550  1.00  0.00    -0.235 A  
HETATM   15  C   UNL     1     -10.491  15.794  66.103  1.00  0.00    -0.326 A  
HETATM   16 CL   UNL     1      -8.214  17.238  66.084  1.00  0.00    -0.293 Cl 
HETATM   17 CL   UNL     1     -12.734  14.441  65.657  1.00  0.00    -0.378 Cl 
HETATM   18  C   UNL     1      -9.025  15.510  67.988  1.00  0.00    -0.174 A  
ENDBRANCH  10  11
BRANCH  10  19
HETATM   19  C   UNL     1     -11.802  12.929  70.059  1.00  0.00    -0.286 C  
BRANCH  19  20
HETATM   20  N   UNL     1     -12.718  13.539  71.001  1.00  0.00    -0.340 NA 
HETATM   21  C   UNL     1     -13.267  14.788  70.902  1.00  0.00    -0.356 A  
HETATM   22  N   UNL     1     -14.027  13.768  72.767  1.00  0.00    -0.660 NA 
HETATM   23  C   UNL     1     -14.035  14.924  72.034  1.00  0.00    -0.491 A  
HETATM   24  C   UNL     1     -13.246  12.943  72.107  1.00  0.00    -0.448 A  
ENDBRANCH  19  20
ENDBRANCH  10  19
ENDBRANCH   9  10
ENDBRANCH   8   9
ENDBRANCH   5   8
TORSDOF 6
ENDMDL
MODEL       32
REMARK 921   NORMALIZED FREE ENERGY PREDICTED BY IDOCK:   -5.84 KCAL/MOL
REMARK 922        TOTAL FREE ENERGY PREDICTED BY IDOCK:   -9.02 KCAL/MOL
REMARK 923 INTER-LIGAND FREE ENERGY PREDICTED BY IDOCK:   -8.06 KCAL/MOL
REMARK 924 INTRA-LIGAND FREE ENERGY PREDICTED BY IDOCK:   -0.95 KCAL/MOL
REMARK 927      BINDING AFFINITY PREDICTED BY RF-SCORE:    0.00 PKD
ROOT
HETATM    1 CL   UNL     1     -12.060  13.423  63.132  1.00  0.00    -0.390 Cl 
HETATM    2  C   UNL     1     -11.567  12.467  64.474  1.00  0.00    -0.348 A  
HETATM    3  C   UNL     1     -10.592  11.487  64.309  1.00  0.00    -0.405 A  
HETATM    4  C   UNL     1     -10.204  10.704  65.400  1.00  0.00    -0.341 A  
HETATM    5  C   UNL     1     -10.790  10.895  66.662  1.00  0.00    -0.258 A  
HETATM    6  C   UNL     1     -11.767  11.890  66.812  1.00  0.00    -0.281 A  
HETATM    7  C   UNL     1     -12.150  12.674  65.722  1.00  0.00    -0.484 A  
ENDROOT
BRANCH   5   8
HETATM    8  C   UNL     1     -10.415  10.003  67.822  1.00  0.00    -0.234 C  
BRANCH   8   9
HETATM    9  O   UNL     1     -10.413  10.771  69.019  1.00  0.00    -0.194 OA 
BRANCH   9  10
HETATM   10  C   UNL     1     -11.273  10.294  70.078  1.00  0.00    -0.311 C  
BRANCH  10  11
HETATM   11  C   UNL     1     -12.049  11.490  70.658  1.00  0.00    -0.450 A  
HETATM   12  C   UNL     1     -13.413  13.761  71.669  1.00  0.00    -0.333 A  
HETATM   13  C   UNL     1     -13.058  11.368  71.637  1.00  0.00    -0.393 A  
HETATM   14  C   UNL     1     -11.789  12.793  70.175  1.00  0.00    -0.326 A  
HETATM   15  C   UNL     1     -13.711  12.496  72.159  1.00  0.00    -0.338 A  
HETATM   16 CL   UNL     1     -14.240  15.137  72.287  1.00  0.00    -0.605 Cl 
HETATM   17 CL   UNL     1     -13.613   9.842  72.229  1.00  0.00    -0.467 Cl 
HETATM   18  C   UNL     1     -12.467  13.914  70.667  1.00  0.00    -0.436 A  
ENDBRANCH  10  11
BRANCH  10  19
HETATM   19  C   UNL     1     -10.460   9.460  71.101  1.00  0.00    -0.322 C  
BRANCH  19  20
HETATM   20  N   UNL     1     -10.478   8.034  70.852  1.00  0.00    -0.201 NA 
HETATM   21  C   UNL     1      -9.484   7.147  71.162  1.00  0.00    -0.157 A  
HETATM   22  N   UNL     1     -11.215   6.051  70.212  1.00  0.00    -0.350 NA 
HETATM   23  C   UNL     1      -9.945   5.933  70.709  1.00  0.00    -0.189 A  
HETATM   24  C   UNL     1     -11.519   7.323  70.334  1.00  0.00    -0.248 A  
ENDBRANCH  19  20
ENDBRANCH  10  19
ENDBRANCH   9  10
ENDBRANCH   8   9
ENDBRANCH   5   8
TORSDOF 6
ENDMDL
MODEL       33
REMARK 921   NORMALIZED FREE ENERGY PREDICTED BY IDOCK:   -5.83 KCAL/MOL
REMARK 922        TOTAL FREE ENERGY PREDICTED BY IDOCK:   -9.00 KCAL/MOL
REMARK 923 INTER-LIGAND FREE ENERGY PREDICTED BY IDOCK:   -7.86 KCAL/MOL
REMARK 924 INTRA-LIGAND FREE ENERGY PREDICTED BY IDOCK:   -1.14 KCAL/MOL
REMARK 927      BINDING AFFINITY PREDICTED BY RF-SCORE:    0.00 PKD
ROOT
HETATM    1 CL   UNL     1      -9.479  10.349  62.535  1.00  0.00    -0.311 Cl 
HETATM    2  C   UNL     1     -10.252  11.169  63.834  1.00  0.00    -0.362 A  
HETATM    3  C   UNL     1     -10.135  10.679  65.132  1.00  0.00    -0.374 A  
HETATM    4  C   UNL     1     -10.777  11.342  66.183  1.00  0.00    -0.307 A  
HETATM    5  C   UNL     1     -11.539  12.496  65.942  1.00  0.00    -0.454 A  
HETATM    6  C   UNL     1     -11.643  12.978  64.630  1.00  0.00    -0.389 A  
HETATM    7  C   UNL     1     -10.999  12.317  63.581  1.00  0.00    -0.532 A  
ENDROOT
BRANCH   5   8
HETATM    8  C   UNL     1     -12.284  13.170  67.071  1.00  0.00    -0.210 C  
BRANCH   8   9
HETATM    9  O   UNL     1     -11.984  14.560  67.062  1.00  0.00    -0.404 OA 
BRANCH   9  10
HETATM   10  C   UNL     1     -11.321  15.072  68.240  1.00  0.00    -0.318 C  
BRANCH  10  11
HETATM   11  C   UNL     1      -9.920  15.568  67.842  1.00  0.00    -0.218 A  
HETATM   12  C   UNL     1      -7.301  16.378  67.116  1.00  0.00    -0.195 A  
HETATM   13  C   UNL     1      -9.592  16.929  67.667  1.00  0.00    -0.248 A  
HETATM   14  C   UNL     1      -8.892  14.631  67.590  1.00  0.00    -0.184 A  
HETATM   15  C   UNL     1      -8.288  17.330  67.337  1.00  0.00    -0.211 A  
HETATM   16 CL   UNL     1      -5.713  16.874  66.679  1.00  0.00    -0.181 Cl 
HETATM   17 CL   UNL     1     -10.759  18.199  67.782  1.00  0.00    -0.409 Cl 
HETATM   18  C   UNL     1      -7.601  15.029  67.224  1.00  0.00    -0.227 A  
ENDBRANCH  10  11
BRANCH  10  19
HETATM   19  C   UNL     1     -11.363  14.024  69.383  1.00  0.00    -0.268 C  
BRANCH  19  20
HETATM   20  N   UNL     1     -12.365  14.290  70.395  1.00  0.00    -0.333 NA 
HETATM   21  C   UNL     1     -12.895  13.379  71.266  1.00  0.00    -0.323 A  
HETATM   22  N   UNL     1     -13.795  15.414  71.650  1.00  0.00    -0.498 NA 
HETATM   23  C   UNL     1     -13.815  14.090  72.000  1.00  0.00    -0.490 A  
HETATM   24  C   UNL     1     -12.894  15.509  70.699  1.00  0.00    -0.413 A  
ENDBRANCH  19  20
ENDBRANCH  10  19
ENDBRANCH   9  10
ENDBRANCH   8   9
ENDBRANCH   5   8
TORSDOF 6
ENDMDL
MODEL       34
REMARK 921   NORMALIZED FREE ENERGY PREDICTED BY IDOCK:   -5.82 KCAL/MOL
REMARK 922        TOTAL FREE ENERGY PREDICTED BY IDOCK:   -8.98 KCAL/MOL
REMARK 923 INTER-LIGAND FREE ENERGY PREDICTED BY IDOCK:   -7.74 KCAL/MOL
REMARK 924 INTRA-LIGAND FREE ENERGY PREDICTED BY IDOCK:   -1.25 KCAL/MOL
REMARK 927      BINDING AFFINITY PREDICTED BY RF-SCORE:    0.00 PKD
ROOT
HETATM    1 CL   UNL     1      -7.536   9.164  63.699  1.00  0.00    -0.103 Cl 
HETATM    2  C   UNL     1      -8.303   9.856  65.074  1.00  0.00    -0.148 A  
HETATM    3  C   UNL     1      -7.571  10.649  65.954  1.00  0.00    -0.138 A  
HETATM    4  C   UNL     1      -8.197  11.198  67.077  1.00  0.00    -0.146 A  
HETATM    5  C   UNL     1      -9.557  10.955  67.328  1.00  0.00    -0.184 A  
HETATM    6  C   UNL     1     -10.281  10.158  66.430  1.00  0.00    -0.288 A  
HETATM    7  C   UNL     1      -9.655   9.614  65.306  1.00  0.00    -0.347 A  
ENDROOT
BRANCH   5   8
HETATM    8  C   UNL     1     -10.212  11.496  68.577  1.00  0.00    -0.213 C  
BRANCH   8   9
HETATM    9  O   UNL     1     -11.409  12.175  68.220  1.00  0.00    -0.244 OA 
BRANCH   9  10
HETATM   10  C   UNL     1     -11.310  13.611  68.097  1.00  0.00    -0.288 C  
BRANCH  10  11
HETATM   11  C   UNL     1     -11.701  14.248  69.443  1.00  0.00    -0.363 A  
HETATM   12  C   UNL     1     -12.489  15.337  71.940  1.00  0.00    -0.353 A  
HETATM   13  C   UNL     1     -11.256  15.519  69.866  1.00  0.00    -0.316 A  
HETATM   14  C   UNL     1     -12.517  13.530  70.346  1.00  0.00    -0.345 A  
HETATM   15  C   UNL     1     -11.671  16.069  71.089  1.00  0.00    -0.487 A  
HETATM   16 CL   UNL     1     -12.968  16.002  73.452  1.00  0.00    -0.643 Cl 
HETATM   17 CL   UNL     1     -10.131  16.470  68.961  1.00  0.00    -0.264 Cl 
HETATM   18  C   UNL     1     -12.901  14.062  71.582  1.00  0.00    -0.433 A  
ENDBRANCH  10  11
BRANCH  10  19
HETATM   19  C   UNL     1     -12.107  14.106  66.863  1.00  0.00    -0.432 C  
BRANCH  19  20
HETATM   20  N   UNL     1     -11.666  13.539  65.606  1.00  0.00    -0.327 NA 
HETATM   21  C   UNL     1     -12.445  12.867  64.704  1.00  0.00    -0.434 A  
HETATM   22  N   UNL     1     -10.328  13.001  63.931  1.00  0.00    -0.346 NA 
HETATM   23  C   UNL     1     -11.581  12.502  63.698  1.00  0.00    -0.504 A  
HETATM   24  C   UNL     1     -10.416  13.643  65.074  1.00  0.00    -0.391 A  
ENDBRANCH  19  20
ENDBRANCH  10  19
ENDBRANCH   9  10
ENDBRANCH   8   9
ENDBRANCH   5   8
TORSDOF 6
ENDMDL
MODEL       35
REMARK 921   NORMALIZED FREE ENERGY PREDICTED BY IDOCK:   -5.81 KCAL/MOL
REMARK 922        TOTAL FREE ENERGY PREDICTED BY IDOCK:   -8.97 KCAL/MOL
REMARK 923 INTER-LIGAND FREE ENERGY PREDICTED BY IDOCK:   -8.16 KCAL/MOL
REMARK 924 INTRA-LIGAND FREE ENERGY PREDICTED BY IDOCK:   -0.81 KCAL/MOL
REMARK 927      BINDING AFFINITY PREDICTED BY RF-SCORE:    0.00 PKD
ROOT
HETATM    1 CL   UNL     1     -13.529   9.463  72.321  1.00  0.00    -0.524 Cl 
HETATM    2  C   UNL     1     -13.022  10.913  71.548  1.00  0.00    -0.451 A  
HETATM    3  C   UNL     1     -12.199  10.852  70.427  1.00  0.00    -0.453 A  
HETATM    4  C   UNL     1     -11.779  12.034  69.810  1.00  0.00    -0.390 A  
HETATM    5  C   UNL     1     -12.179  13.284  70.311  1.00  0.00    -0.391 A  
HETATM    6  C   UNL     1     -13.012  13.327  71.438  1.00  0.00    -0.398 A  
HETATM    7  C   UNL     1     -13.433  12.145  72.051  1.00  0.00    -0.388 A  
ENDROOT
BRANCH   5   8
HETATM    8  C   UNL     1     -11.670  14.559  69.681  1.00  0.00    -0.307 C  
BRANCH   8   9
HETATM    9  O   UNL     1     -12.229  14.692  68.380  1.00  0.00    -0.231 OA 
BRANCH   9  10
HETATM   10  C   UNL     1     -11.392  14.262  67.284  1.00  0.00    -0.334 C  
BRANCH  10  11
HETATM   11  C   UNL     1     -10.334  15.348  67.017  1.00  0.00    -0.280 A  
HETATM   12  C   UNL     1      -8.467  17.421  66.510  1.00  0.00    -0.264 A  
HETATM   13  C   UNL     1      -8.949  15.089  66.937  1.00  0.00    -0.251 A  
HETATM   14  C   UNL     1     -10.735  16.696  66.880  1.00  0.00    -0.153 A  
HETATM   15  C   UNL     1      -8.029  16.111  66.656  1.00  0.00    -0.305 A  
HETATM   16 CL   UNL     1      -7.331  18.676  66.199  1.00  0.00    -0.284 Cl 
HETATM   17 CL   UNL     1      -8.267  13.528  67.232  1.00  0.00    -0.181 Cl 
HETATM   18  C   UNL     1      -9.814  17.722  66.638  1.00  0.00    -0.322 A  
ENDBRANCH  10  11
BRANCH  10  19
HETATM   19  C   UNL     1     -12.260  13.857  66.066  1.00  0.00    -0.462 C  
BRANCH  19  20
HETATM   20  N   UNL     1     -11.608  12.946  65.149  1.00  0.00    -0.318 NA 
HETATM   21  C   UNL     1     -10.931  11.806  65.486  1.00  0.00    -0.290 A  
HETATM   22  N   UNL     1     -10.918  12.065  63.243  1.00  0.00    -0.369 NA 
HETATM   23  C   UNL     1     -10.471  11.306  64.290  1.00  0.00    -0.357 A  
HETATM   24  C   UNL     1     -11.621  13.031  63.789  1.00  0.00    -0.457 A  
ENDBRANCH  19  20
ENDBRANCH  10  19
ENDBRANCH   9  10
ENDBRANCH   8   9
ENDBRANCH   5   8
TORSDOF 6
ENDMDL
MODEL       36
REMARK 921   NORMALIZED FREE ENERGY PREDICTED BY IDOCK:   -5.75 KCAL/MOL
REMARK 922        TOTAL FREE ENERGY PREDICTED BY IDOCK:   -8.90 KCAL/MOL
REMARK 923 INTER-LIGAND FREE ENERGY PREDICTED BY IDOCK:   -8.14 KCAL/MOL
REMARK 924 INTRA-LIGAND FREE ENERGY PREDICTED BY IDOCK:   -0.76 KCAL/MOL
REMARK 927      BINDING AFFINITY PREDICTED BY RF-SCORE:    0.00 PKD
ROOT
HETATM    1 CL   UNL     1      -8.639   9.308  62.564  1.00  0.00    -0.210 Cl 
HETATM    2  C   UNL     1      -9.515  10.264  63.693  1.00  0.00    -0.299 A  
HETATM    3  C   UNL     1      -9.674   9.820  65.003  1.00  0.00    -0.303 A  
HETATM    4  C   UNL     1     -10.399  10.595  65.914  1.00  0.00    -0.291 A  
HETATM    5  C   UNL     1     -10.969  11.817  65.520  1.00  0.00    -0.344 A  
HETATM    6  C   UNL     1     -10.795  12.251  64.198  1.00  0.00    -0.412 A  
HETATM    7  C   UNL     1     -10.068  11.477  63.290  1.00  0.00    -0.439 A  
ENDROOT
BRANCH   5   8
HETATM    8  C   UNL     1     -11.806  12.618  66.489  1.00  0.00    -0.396 C  
BRANCH   8   9
HETATM    9  O   UNL     1     -12.068  11.829  67.642  1.00  0.00    -0.598 OA 
BRANCH   9  10
HETATM   10  C   UNL     1     -11.533  12.331  68.887  1.00  0.00    -0.304 C  
BRANCH  10  11
HETATM   11  C   UNL     1     -11.432  11.165  69.886  1.00  0.00    -0.386 A  
HETATM   12  C   UNL     1     -11.344   9.047  71.770  1.00  0.00    -0.377 A  
HETATM   13  C   UNL     1     -10.305  10.324  69.997  1.00  0.00    -0.202 A  
HETATM   14  C   UNL     1     -12.530  10.867  70.726  1.00  0.00    -0.489 A  
HETATM   15  C   UNL     1     -10.250   9.295  70.951  1.00  0.00    -0.371 A  
HETATM   16 CL   UNL     1     -11.286   7.764  72.914  1.00  0.00    -0.451 Cl 
HETATM   17 CL   UNL     1      -8.936  10.444  68.947  1.00  0.00    -0.160 Cl 
HETATM   18  C   UNL     1     -12.491   9.817  71.650  1.00  0.00    -0.500 A  
ENDBRANCH  10  11
BRANCH  10  19
HETATM   19  C   UNL     1     -12.345  13.560  69.369  1.00  0.00    -0.114 C  
BRANCH  19  20
HETATM   20  N   UNL     1     -11.628  14.816  69.284  1.00  0.00    -0.286 NA 
HETATM   21  C   UNL     1     -10.898  15.400  70.282  1.00  0.00    -0.311 A  
HETATM   22  N   UNL     1     -10.806  16.678  68.423  1.00  0.00    -0.351 NA 
HETATM   23  C   UNL     1     -10.440  16.577  69.739  1.00  0.00    -0.215 A  
HETATM   24  C   UNL     1     -11.499  15.591  68.170  1.00  0.00    -0.326 A  
ENDBRANCH  19  20
ENDBRANCH  10  19
ENDBRANCH   9  10
ENDBRANCH   8   9
ENDBRANCH   5   8
TORSDOF 6
ENDMDL
MODEL       37
REMARK 921   NORMALIZED FREE ENERGY PREDICTED BY IDOCK:   -5.71 KCAL/MOL
REMARK 922        TOTAL FREE ENERGY PREDICTED BY IDOCK:   -8.84 KCAL/MOL
REMARK 923 INTER-LIGAND FREE ENERGY PREDICTED BY IDOCK:   -7.92 KCAL/MOL
REMARK 924 INTRA-LIGAND FREE ENERGY PREDICTED BY IDOCK:   -0.93 KCAL/MOL
REMARK 927      BINDING AFFINITY PREDICTED BY RF-SCORE:    0.00 PKD
ROOT
HETATM    1 CL   UNL     1     -11.273   4.807  73.546  1.00  0.00    -0.405 Cl 
HETATM    2  C   UNL     1     -11.087   6.115  72.444  1.00  0.00    -0.275 A  
HETATM    3  C   UNL     1     -10.957   7.415  72.924  1.00  0.00    -0.408 A  
HETATM    4  C   UNL     1     -10.820   8.476  72.024  1.00  0.00    -0.405 A  
HETATM    5  C   UNL     1     -10.814   8.243  70.639  1.00  0.00    -0.254 A  
HETATM    6  C   UNL     1     -10.942   6.927  70.173  1.00  0.00    -0.322 A  
HETATM    7  C   UNL     1     -11.075   5.867  71.074  1.00  0.00    -0.315 A  
ENDROOT
BRANCH   5   8
HETATM    8  C   UNL     1     -10.732   9.398  69.669  1.00  0.00    -0.235 C  
BRANCH   8   9
HETATM    9  O   UNL     1     -11.232  10.571  70.298  1.00  0.00    -0.295 OA 
BRANCH   9  10
HETATM   10  C   UNL     1     -11.433  11.714  69.437  1.00  0.00    -0.307 C  
BRANCH  10  11
HETATM   11  C   UNL     1     -12.121  12.827  70.248  1.00  0.00    -0.373 A  
HETATM   12  C   UNL     1     -13.434  14.798  71.807  1.00  0.00    -0.380 A  
HETATM   13  C   UNL     1     -12.072  14.193  69.901  1.00  0.00    -0.347 A  
HETATM   14  C   UNL     1     -12.815  12.499  71.435  1.00  0.00    -0.359 A  
HETATM   15  C   UNL     1     -12.748  15.165  70.656  1.00  0.00    -0.451 A  
HETATM   16 CL   UNL     1     -14.232  15.997  72.748  1.00  0.00    -0.368 Cl 
HETATM   17 CL   UNL     1     -11.143  14.792  68.571  1.00  0.00    -0.261 Cl 
HETATM   18  C   UNL     1     -13.456  13.472  72.210  1.00  0.00    -0.669 A  
ENDBRANCH  10  11
BRANCH  10  19
HETATM   19  C   UNL     1     -12.155  11.289  68.133  1.00  0.00     0.064 C  
BRANCH  19  20
HETATM   20  N   UNL     1     -11.567  11.831  66.926  1.00  0.00    -0.548 NA 
HETATM   21  C   UNL     1     -12.226  12.516  65.942  1.00  0.00    -0.238 A  
HETATM   22  N   UNL     1     -10.032  12.368  65.429  1.00  0.00    -0.260 NA 
HETATM   23  C   UNL     1     -11.261  12.794  65.002  1.00  0.00    -0.298 A  
HETATM   24  C   UNL     1     -10.243  11.815  66.601  1.00  0.00    -0.210 A  
ENDBRANCH  19  20
ENDBRANCH  10  19
ENDBRANCH   9  10
ENDBRANCH   8   9
ENDBRANCH   5   8
TORSDOF 6
ENDMDL
MODEL       38
REMARK 921   NORMALIZED FREE ENERGY PREDICTED BY IDOCK:   -5.69 KCAL/MOL
REMARK 922        TOTAL FREE ENERGY PREDICTED BY IDOCK:   -8.81 KCAL/MOL
REMARK 923 INTER-LIGAND FREE ENERGY PREDICTED BY IDOCK:   -8.06 KCAL/MOL
REMARK 924 INTRA-LIGAND FREE ENERGY PREDICTED BY IDOCK:   -0.75 KCAL/MOL
REMARK 927      BINDING AFFINITY PREDICTED BY RF-SCORE:    0.00 PKD
ROOT
HETATM    1 CL   UNL     1      -6.831  21.261  67.271  1.00  0.00    -0.409 Cl 
HETATM    2  C   UNL     1      -8.047  20.082  67.573  1.00  0.00    -0.316 A  
HETATM    3  C   UNL     1      -7.741  18.940  68.306  1.00  0.00    -0.332 A  
HETATM    4  C   UNL     1      -8.730  17.978  68.537  1.00  0.00    -0.304 A  
HETATM    5  C   UNL     1     -10.029  18.154  68.035  1.00  0.00    -0.353 A  
HETATM    6  C   UNL     1     -10.322  19.313  67.303  1.00  0.00    -0.538 A  
HETATM    7  C   UNL     1      -9.334  20.274  67.076  1.00  0.00    -0.526 A  
ENDROOT
BRANCH   5   8
HETATM    8  C   UNL     1     -11.076  17.083  68.231  1.00  0.00    -0.172 C  
BRANCH   8   9
HETATM    9  O   UNL     1     -10.442  15.811  68.259  1.00  0.00    -0.246 OA 
BRANCH   9  10
HETATM   10  C   UNL     1     -10.872  14.912  69.305  1.00  0.00    -0.266 C  
BRANCH  10  11
HETATM   11  C   UNL     1     -10.752  13.466  68.793  1.00  0.00    -0.257 A  
HETATM   12  C   UNL     1     -10.638  10.784  67.878  1.00  0.00    -0.221 A  
HETATM   13  C   UNL     1      -9.545  12.892  68.342  1.00  0.00    -0.176 A  
HETATM   14  C   UNL     1     -11.906  12.652  68.719  1.00  0.00    -0.341 A  
HETATM   15  C   UNL     1      -9.483  11.555  67.918  1.00  0.00    -0.178 A  
HETATM   16 CL   UNL     1     -10.564   9.157  67.325  1.00  0.00    -0.337 Cl 
HETATM   17 CL   UNL     1      -8.069  13.785  68.218  1.00  0.00    -0.144 Cl 
HETATM   18  C   UNL     1     -11.853  11.331  68.260  1.00  0.00    -0.299 A  
ENDBRANCH  10  11
BRANCH  10  19
HETATM   19  C   UNL     1     -12.270  15.324  69.833  1.00  0.00    -0.323 C  
BRANCH  19  20
HETATM   20  N   UNL     1     -12.431  15.180  71.265  1.00  0.00    -0.314 NA 
HETATM   21  C   UNL     1     -11.789  15.909  72.228  1.00  0.00    -0.516 A  
HETATM   22  N   UNL     1     -13.192  14.431  73.200  1.00  0.00    -0.614 NA 
HETATM   23  C   UNL     1     -12.242  15.392  73.419  1.00  0.00    -0.508 A  
HETATM   24  C   UNL     1     -13.303  14.343  71.894  1.00  0.00    -0.374 A  
ENDBRANCH  19  20
ENDBRANCH  10  19
ENDBRANCH   9  10
ENDBRANCH   8   9
ENDBRANCH   5   8
TORSDOF 6
ENDMDL
MODEL       39
REMARK 921   NORMALIZED FREE ENERGY PREDICTED BY IDOCK:   -5.67 KCAL/MOL
REMARK 922        TOTAL FREE ENERGY PREDICTED BY IDOCK:   -8.79 KCAL/MOL
REMARK 923 INTER-LIGAND FREE ENERGY PREDICTED BY IDOCK:   -8.10 KCAL/MOL
REMARK 924 INTRA-LIGAND FREE ENERGY PREDICTED BY IDOCK:   -0.70 KCAL/MOL
REMARK 927      BINDING AFFINITY PREDICTED BY RF-SCORE:    0.00 PKD
ROOT
HETATM    1 CL   UNL     1     -12.189  10.355  71.110  1.00  0.00    -0.469 Cl 
HETATM    2  C   UNL     1     -12.046  11.857  70.284  1.00  0.00    -0.325 A  
HETATM    3  C   UNL     1     -11.579  11.887  68.973  1.00  0.00    -0.376 A  
HETATM    4  C   UNL     1     -11.452  13.111  68.310  1.00  0.00    -0.349 A  
HETATM    5  C   UNL     1     -11.790  14.312  68.955  1.00  0.00    -0.370 A  
HETATM    6  C   UNL     1     -12.262  14.264  70.274  1.00  0.00    -0.407 A  
HETATM    7  C   UNL     1     -12.392  13.039  70.933  1.00  0.00    -0.376 A  
ENDROOT
BRANCH   5   8
HETATM    8  C   UNL     1     -11.589  15.638  68.258  1.00  0.00    -0.319 C  
BRANCH   8   9
HETATM    9  O   UNL     1     -10.196  15.881  68.111  1.00  0.00    -0.226 OA 
BRANCH   9  10
HETATM   10  C   UNL     1      -9.722  16.044  66.756  1.00  0.00    -0.239 C  
BRANCH  10  11
HETATM   11  C   UNL     1      -8.816  17.288  66.697  1.00  0.00    -0.280 A  
HETATM   12  C   UNL     1      -7.062  19.511  66.565  1.00  0.00    -0.219 A  
HETATM   13  C   UNL     1      -9.247  18.587  67.037  1.00  0.00    -0.284 A  
HETATM   14  C   UNL     1      -7.483  17.161  66.244  1.00  0.00    -0.344 A  
HETATM   15  C   UNL     1      -8.369  19.682  67.000  1.00  0.00    -0.328 A  
HETATM   16 CL   UNL     1      -5.999  20.862  66.490  1.00  0.00    -0.276 Cl 
HETATM   17 CL   UNL     1     -10.882  18.953  67.464  1.00  0.00    -0.493 Cl 
HETATM   18  C   UNL     1      -6.618  18.258  66.170  1.00  0.00    -0.281 A  
ENDBRANCH  10  11
BRANCH  10  19
HETATM   19  C   UNL     1     -10.910  16.031  65.761  1.00  0.00    -0.230 C  
BRANCH  19  20
HETATM   20  N   UNL     1     -11.154  14.744  65.144  1.00  0.00    -0.362 NA 
HETATM   21  C   UNL     1     -12.347  14.298  64.647  1.00  0.00    -0.415 A  
HETATM   22  N   UNL     1     -10.759  12.723  64.341  1.00  0.00    -0.351 NA 
HETATM   23  C   UNL     1     -12.087  13.024  64.199  1.00  0.00    -0.427 A  
HETATM   24  C   UNL     1     -10.217  13.787  64.889  1.00  0.00    -0.348 A  
ENDBRANCH  19  20
ENDBRANCH  10  19
ENDBRANCH   9  10
ENDBRANCH   8   9
ENDBRANCH   5   8
TORSDOF 6
ENDMDL
MODEL       40
REMARK 921   NORMALIZED FREE ENERGY PREDICTED BY IDOCK:   -5.63 KCAL/MOL
REMARK 922        TOTAL FREE ENERGY PREDICTED BY IDOCK:   -8.74 KCAL/MOL
REMARK 923 INTER-LIGAND FREE ENERGY PREDICTED BY IDOCK:   -7.89 KCAL/MOL
REMARK 924 INTRA-LIGAND FREE ENERGY PREDICTED BY IDOCK:   -0.85 KCAL/MOL
REMARK 927      BINDING AFFINITY PREDICTED BY RF-SCORE:    0.00 PKD
ROOT
HETATM    1 CL   UNL     1      -8.437   9.686  62.351  1.00  0.00    -0.162 Cl 
HETATM    2  C   UNL     1      -9.080   9.774  63.944  1.00  0.00    -0.233 A  
HETATM    3  C   UNL     1      -8.711   8.827  64.895  1.00  0.00    -0.161 A  
HETATM    4  C   UNL     1      -9.247   8.896  66.185  1.00  0.00    -0.273 A  
HETATM    5  C   UNL     1     -10.154   9.910  66.530  1.00  0.00    -0.298 A  
HETATM    6  C   UNL     1     -10.512  10.858  65.561  1.00  0.00    -0.286 A  
HETATM    7  C   UNL     1      -9.973  10.791  64.274  1.00  0.00    -0.403 A  
ENDROOT
BRANCH   5   8
HETATM    8  C   UNL     1     -10.781   9.942  67.904  1.00  0.00    -0.265 C  
BRANCH   8   9
HETATM    9  O   UNL     1     -11.822  10.910  67.921  1.00  0.00    -0.590 OA 
BRANCH   9  10
HETATM   10  C   UNL     1     -12.008  11.619  69.166  1.00  0.00    -0.313 C  
BRANCH  10  11
HETATM   11  C   UNL     1     -11.745  13.116  68.924  1.00  0.00    -0.368 A  
HETATM   12  C   UNL     1     -11.205  15.847  68.386  1.00  0.00    -0.368 A  
HETATM   13  C   UNL     1     -12.101  14.131  69.838  1.00  0.00    -0.347 A  
HETATM   14  C   UNL     1     -11.152  13.534  67.711  1.00  0.00    -0.291 A  
HETATM   15  C   UNL     1     -11.805  15.479  69.584  1.00  0.00    -0.384 A  
HETATM   16 CL   UNL     1     -10.876  17.505  68.065  1.00  0.00    -0.336 Cl 
HETATM   17 CL   UNL     1     -12.970  13.817  71.299  1.00  0.00    -0.415 Cl 
HETATM   18  C   UNL     1     -10.893  14.883  67.441  1.00  0.00    -0.304 A  
ENDBRANCH  10  11
BRANCH  10  19
HETATM   19  C   UNL     1     -11.170  10.962  70.293  1.00  0.00    -0.188 C  
BRANCH  19  20
HETATM   20  N   UNL     1     -11.898   9.994  71.086  1.00  0.00    -0.369 NA 
HETATM   21  C   UNL     1     -11.594   8.667  71.222  1.00  0.00    -0.284 A  
HETATM   22  N   UNL     1     -13.415   9.162  72.460  1.00  0.00    -0.471 NA 
HETATM   23  C   UNL     1     -12.578   8.164  72.039  1.00  0.00    -0.330 A  
HETATM   24  C   UNL     1     -12.966  10.257  71.891  1.00  0.00    -0.449 A  
ENDBRANCH  19  20
ENDBRANCH  10  19
ENDBRANCH   9  10
ENDBRANCH   8   9
ENDBRANCH   5   8
TORSDOF 6
ENDMDL
MODEL       41
REMARK 921   NORMALIZED FREE ENERGY PREDICTED BY IDOCK:   -5.63 KCAL/MOL
REMARK 922        TOTAL FREE ENERGY PREDICTED BY IDOCK:   -8.74 KCAL/MOL
REMARK 923 INTER-LIGAND FREE ENERGY PREDICTED BY IDOCK:   -8.15 KCAL/MOL
REMARK 924 INTRA-LIGAND FREE ENERGY PREDICTED BY IDOCK:   -0.59 KCAL/MOL
REMARK 927      BINDING AFFINITY PREDICTED BY RF-SCORE:    0.00 PKD
ROOT
HETATM    1 CL   UNL     1     -10.580  19.744  67.529  1.00  0.00    -0.561 Cl 
HETATM    2  C   UNL     1     -10.140  18.088  67.379  1.00  0.00    -0.349 A  
HETATM    3  C   UNL     1     -10.378  17.207  68.431  1.00  0.00    -0.362 A  
HETATM    4  C   UNL     1     -10.006  15.865  68.309  1.00  0.00    -0.222 A  
HETATM    5  C   UNL     1      -9.393  15.396  67.135  1.00  0.00    -0.225 A  
HETATM    6  C   UNL     1      -9.164  16.296  66.085  1.00  0.00    -0.376 A  
HETATM    7  C   UNL     1      -9.539  17.635  66.206  1.00  0.00    -0.259 A  
ENDROOT
BRANCH   5   8
HETATM    8  C   UNL     1      -8.934  13.961  67.033  1.00  0.00    -0.240 C  
BRANCH   8   9
HETATM    9  O   UNL     1      -9.501  13.213  68.102  1.00  0.00    -0.213 OA 
BRANCH   9  10
HETATM   10  C   UNL     1     -10.539  12.276  67.737  1.00  0.00    -0.219 C  
BRANCH  10  11
HETATM   11  C   UNL     1     -10.735  11.282  68.896  1.00  0.00    -0.246 A  
HETATM   12  C   UNL     1     -11.196   9.497  71.050  1.00  0.00    -0.362 A  
HETATM   13  C   UNL     1      -9.736  10.390  69.340  1.00  0.00    -0.200 A  
HETATM   14  C   UNL     1     -11.988  11.206  69.547  1.00  0.00    -0.425 A  
HETATM   15  C   UNL     1      -9.956   9.528  70.426  1.00  0.00    -0.325 A  
HETATM   16 CL   UNL     1     -11.471   8.415  72.359  1.00  0.00    -0.453 Cl 
HETATM   17 CL   UNL     1      -8.199  10.238  68.563  1.00  0.00    -0.106 Cl 
HETATM   18  C   UNL     1     -12.220  10.319  70.605  1.00  0.00    -0.422 A  
ENDBRANCH  10  11
BRANCH  10  19
HETATM   19  C   UNL     1     -10.238  11.645  66.354  1.00  0.00    -0.221 C  
BRANCH  19  20
HETATM   20  N   UNL     1     -11.075  12.139  65.281  1.00  0.00    -0.312 NA 
HETATM   21  C   UNL     1     -10.775  12.119  63.946  1.00  0.00    -0.407 A  
HETATM   22  N   UNL     1     -12.820  13.025  64.254  1.00  0.00    -0.688 NA 
HETATM   23  C   UNL     1     -11.852  12.718  63.336  1.00  0.00    -0.518 A  
HETATM   24  C   UNL     1     -12.335  12.641  65.413  1.00  0.00    -0.436 A  
ENDBRANCH  19  20
ENDBRANCH  10  19
ENDBRANCH   9  10
ENDBRANCH   8   9
ENDBRANCH   5   8
TORSDOF 6
ENDMDL
MODEL       42
REMARK 921   NORMALIZED FREE ENERGY PREDICTED BY IDOCK:   -5.59 KCAL/MOL
REMARK 922        TOTAL FREE ENERGY PREDICTED BY IDOCK:   -8.67 KCAL/MOL
REMARK 923 INTER-LIGAND FREE ENERGY PREDICTED BY IDOCK:   -7.42 KCAL/MOL
REMARK 924 INTRA-LIGAND FREE ENERGY PREDICTED BY IDOCK:   -1.25 KCAL/MOL
REMARK 927      BINDING AFFINITY PREDICTED BY RF-SCORE:    0.00 PKD
ROOT
HETATM    1 CL   UNL     1     -12.219  11.513  63.103  1.00  0.00    -0.216 Cl 
HETATM    2  C   UNL     1     -11.842  12.780  64.204  1.00  0.00    -0.413 A  
HETATM    3  C   UNL     1     -10.533  13.240  64.312  1.00  0.00    -0.372 A  
HETATM    4  C   UNL     1     -10.230  14.261  65.218  1.00  0.00    -0.408 A  
HETATM    5  C   UNL     1     -11.234  14.826  66.021  1.00  0.00    -0.341 A  
HETATM    6  C   UNL     1     -12.548  14.354  65.896  1.00  0.00    -0.275 A  
HETATM    7  C   UNL     1     -12.850  13.337  64.988  1.00  0.00    -0.356 A  
ENDROOT
BRANCH   5   8
HETATM    8  C   UNL     1     -10.890  15.883  67.044  1.00  0.00    -0.252 C  
BRANCH   8   9
HETATM    9  O   UNL     1     -10.022  15.323  68.020  1.00  0.00    -0.222 OA 
BRANCH   9  10
HETATM   10  C   UNL     1     -10.661  14.607  69.100  1.00  0.00    -0.255 C  
BRANCH  10  11
HETATM   11  C   UNL     1     -10.613  13.100  68.790  1.00  0.00    -0.225 A  
HETATM   12  C   UNL     1     -10.632  10.317  68.246  1.00  0.00    -0.221 A  
HETATM   13  C   UNL     1      -9.429  12.406  68.462  1.00  0.00    -0.098 A  
HETATM   14  C   UNL     1     -11.810  12.349  68.785  1.00  0.00    -0.358 A  
HETATM   15  C   UNL     1      -9.436  11.022  68.223  1.00  0.00    -0.172 A  
HETATM   16 CL   UNL     1     -10.639   8.629  67.918  1.00  0.00    -0.259 Cl 
HETATM   17 CL   UNL     1      -7.901  13.191  68.271  1.00  0.00    -0.136 Cl 
HETATM   18  C   UNL     1     -11.823  10.977  68.508  1.00  0.00    -0.286 A  
ENDBRANCH  10  11
BRANCH  10  19
HETATM   19  C   UNL     1     -12.070  15.191  69.377  1.00  0.00    -0.260 C  
BRANCH  19  20
HETATM   20  N   UNL     1     -12.349  15.428  70.778  1.00  0.00    -0.364 NA 
HETATM   21  C   UNL     1     -13.586  15.462  71.362  1.00  0.00    -0.518 A  
HETATM   22  N   UNL     1     -11.995  15.806  72.927  1.00  0.00    -0.465 NA 
HETATM   23  C   UNL     1     -13.341  15.747  72.685  1.00  0.00    -0.523 A  
HETATM   24  C   UNL     1     -11.422  15.584  71.765  1.00  0.00    -0.426 A  
ENDBRANCH  19  20
ENDBRANCH  10  19
ENDBRANCH   9  10
ENDBRANCH   8   9
ENDBRANCH   5   8
TORSDOF 6
ENDMDL
MODEL       43
REMARK 921   NORMALIZED FREE ENERGY PREDICTED BY IDOCK:   -5.58 KCAL/MOL
REMARK 922        TOTAL FREE ENERGY PREDICTED BY IDOCK:   -8.66 KCAL/MOL
REMARK 923 INTER-LIGAND FREE ENERGY PREDICTED BY IDOCK:   -7.82 KCAL/MOL
REMARK 924 INTRA-LIGAND FREE ENERGY PREDICTED BY IDOCK:   -0.84 KCAL/MOL
REMARK 927      BINDING AFFINITY PREDICTED BY RF-SCORE:    0.00 PKD
ROOT
HETATM    1 CL   UNL     1     -10.556  19.758  65.831  1.00  0.00    -0.608 Cl 
HETATM    2  C   UNL     1     -10.477  18.074  66.168  1.00  0.00    -0.331 A  
HETATM    3  C   UNL     1     -10.887  17.153  65.208  1.00  0.00    -0.043 A  
HETATM    4  C   UNL     1     -10.834  15.785  65.492  1.00  0.00    -0.343 A  
HETATM    5  C   UNL     1     -10.370  15.331  66.737  1.00  0.00    -0.279 A  
HETATM    6  C   UNL     1      -9.957  16.271  67.691  1.00  0.00    -0.247 A  
HETATM    7  C   UNL     1     -10.008  17.637  67.405  1.00  0.00    -0.321 A  
ENDROOT
BRANCH   5   8
HETATM    8  C   UNL     1     -10.376  13.855  67.063  1.00  0.00    -0.267 C  
BRANCH   8   9
HETATM    9  O   UNL     1     -11.671  13.482  67.514  1.00  0.00    -0.324 OA 
BRANCH   9  10
HETATM   10  C   UNL     1     -11.714  12.615  68.669  1.00  0.00    -0.325 C  
BRANCH  10  11
HETATM   11  C   UNL     1     -12.158  13.442  69.889  1.00  0.00    -0.389 A  
HETATM   12  C   UNL     1     -12.936  15.056  72.087  1.00  0.00    -0.342 A  
HETATM   13  C   UNL     1     -12.696  12.877  71.065  1.00  0.00    -0.251 A  
HETATM   14  C   UNL     1     -12.073  14.852  69.846  1.00  0.00    -0.379 A  
HETATM   15  C   UNL     1     -13.052  13.675  72.164  1.00  0.00    -0.489 A  
HETATM   16 CL   UNL     1     -13.407  16.032  73.423  1.00  0.00    -0.661 Cl 
HETATM   17 CL   UNL     1     -13.014  11.186  71.234  1.00  0.00    -0.487 Cl 
HETATM   18  C   UNL     1     -12.465  15.651  70.926  1.00  0.00    -0.497 A  
ENDBRANCH  10  11
BRANCH  10  19
HETATM   19  C   UNL     1     -10.372  11.855  68.826  1.00  0.00    -0.165 C  
BRANCH  19  20
HETATM   20  N   UNL     1     -10.414  10.480  68.373  1.00  0.00    -0.176 NA 
HETATM   21  C   UNL     1     -10.233  10.045  67.089  1.00  0.00    -0.228 A  
HETATM   22  N   UNL     1     -10.584   8.278  68.449  1.00  0.00    -0.150 NA 
HETATM   23  C   UNL     1     -10.392   8.681  67.155  1.00  0.00    -0.299 A  
HETATM   24  C   UNL     1     -10.566   9.380  69.164  1.00  0.00    -0.218 A  
ENDBRANCH  19  20
ENDBRANCH  10  19
ENDBRANCH   9  10
ENDBRANCH   8   9
ENDBRANCH   5   8
TORSDOF 6
ENDMDL
MODEL       44
REMARK 921   NORMALIZED FREE ENERGY PREDICTED BY IDOCK:   -5.57 KCAL/MOL
REMARK 922        TOTAL FREE ENERGY PREDICTED BY IDOCK:   -8.65 KCAL/MOL
REMARK 923 INTER-LIGAND FREE ENERGY PREDICTED BY IDOCK:   -8.21 KCAL/MOL
REMARK 924 INTRA-LIGAND FREE ENERGY PREDICTED BY IDOCK:   -0.43 KCAL/MOL
REMARK 927      BINDING AFFINITY PREDICTED BY RF-SCORE:    0.00 PKD
ROOT
HETATM    1 CL   UNL     1      -8.848   9.182  63.023  1.00  0.00    -0.173 Cl 
HETATM    2  C   UNL     1      -9.608  10.285  64.103  1.00  0.00    -0.315 A  
HETATM    3  C   UNL     1      -9.604  10.032  65.471  1.00  0.00    -0.328 A  
HETATM    4  C   UNL     1     -10.234  10.925  66.343  1.00  0.00    -0.289 A  
HETATM    5  C   UNL     1     -10.873  12.074  65.851  1.00  0.00    -0.329 A  
HETATM    6  C   UNL     1     -10.864  12.316  64.470  1.00  0.00    -0.355 A  
HETATM    7  C   UNL     1     -10.230  11.425  63.601  1.00  0.00    -0.448 A  
ENDROOT
BRANCH   5   8
HETATM    8  C   UNL     1     -11.609  13.002  66.790  1.00  0.00    -0.368 C  
BRANCH   8   9
HETATM    9  O   UNL     1     -10.766  14.099  67.118  1.00  0.00    -0.277 OA 
BRANCH   9  10
HETATM   10  C   UNL     1     -11.269  15.004  68.125  1.00  0.00    -0.308 C  
BRANCH  10  11
HETATM   11  C   UNL     1     -10.732  16.416  67.830  1.00  0.00    -0.332 A  
HETATM   12  C   UNL     1      -9.736  19.036  67.397  1.00  0.00    -0.315 A  
HETATM   13  C   UNL     1     -10.640  16.965  66.533  1.00  0.00    -0.185 A  
HETATM   14  C   UNL     1     -10.259  17.220  68.893  1.00  0.00    -0.349 A  
HETATM   15  C   UNL     1     -10.175  18.273  66.324  1.00  0.00    -0.414 A  
HETATM   16 CL   UNL     1      -9.136  20.626  67.131  1.00  0.00    -0.453 Cl 
HETATM   17 CL   UNL     1     -11.028  16.070  65.106  1.00  0.00    -0.388 Cl 
HETATM   18  C   UNL     1      -9.759  18.510  68.680  1.00  0.00    -0.398 A  
ENDBRANCH  10  11
BRANCH  10  19
HETATM   19  C   UNL     1     -10.972  14.455  69.544  1.00  0.00    -0.197 C  
BRANCH  19  20
HETATM   20  N   UNL     1     -12.113  14.470  70.436  1.00  0.00    -0.301 NA 
HETATM   21  C   UNL     1     -12.908  15.548  70.714  1.00  0.00    -0.458 A  
HETATM   22  N   UNL     1     -13.654  13.739  71.841  1.00  0.00    -0.409 NA 
HETATM   23  C   UNL     1     -13.825  15.081  71.626  1.00  0.00    -0.480 A  
HETATM   24  C   UNL     1     -12.632  13.394  71.092  1.00  0.00    -0.345 A  
ENDBRANCH  19  20
ENDBRANCH  10  19
ENDBRANCH   9  10
ENDBRANCH   8   9
ENDBRANCH   5   8
TORSDOF 6
ENDMDL
MODEL       45
REMARK 921   NORMALIZED FREE ENERGY PREDICTED BY IDOCK:   -5.56 KCAL/MOL
REMARK 922        TOTAL FREE ENERGY PREDICTED BY IDOCK:   -8.64 KCAL/MOL
REMARK 923 INTER-LIGAND FREE ENERGY PREDICTED BY IDOCK:   -7.68 KCAL/MOL
REMARK 924 INTRA-LIGAND FREE ENERGY PREDICTED BY IDOCK:   -0.96 KCAL/MOL
REMARK 927      BINDING AFFINITY PREDICTED BY RF-SCORE:    0.00 PKD
ROOT
HETATM    1 CL   UNL     1      -9.975   4.980  69.222  1.00  0.00    -0.270 Cl 
HETATM    2  C   UNL     1      -9.770   6.555  68.563  1.00  0.00    -0.129 A  
HETATM    3  C   UNL     1     -10.713   7.064  67.673  1.00  0.00    -0.331 A  
HETATM    4  C   UNL     1     -10.535   8.340  67.130  1.00  0.00    -0.386 A  
HETATM    5  C   UNL     1      -9.414   9.113  67.472  1.00  0.00    -0.169 A  
HETATM    6  C   UNL     1      -8.477   8.587  68.373  1.00  0.00    -0.138 A  
HETATM    7  C   UNL     1      -8.657   7.314  68.918  1.00  0.00    -0.129 A  
ENDROOT
BRANCH   5   8
HETATM    8  C   UNL     1      -9.192  10.464  66.833  1.00  0.00    -0.150 C  
BRANCH   8   9
HETATM    9  O   UNL     1      -9.413  11.481  67.802  1.00  0.00    -0.161 OA 
BRANCH   9  10
HETATM   10  C   UNL     1     -10.469  12.421  67.503  1.00  0.00    -0.215 C  
BRANCH  10  11
HETATM   11  C   UNL     1     -11.189  12.786  68.814  1.00  0.00    -0.327 A  
HETATM   12  C   UNL     1     -12.550  13.353  71.236  1.00  0.00    -0.322 A  
HETATM   13  C   UNL     1     -11.285  14.102  69.314  1.00  0.00    -0.269 A  
HETATM   14  C   UNL     1     -11.762  11.764  69.604  1.00  0.00    -0.413 A  
HETATM   15  C   UNL     1     -11.985  14.385  70.498  1.00  0.00    -0.395 A  
HETATM   16 CL   UNL     1     -13.377  13.702  72.703  1.00  0.00    -0.631 Cl 
HETATM   17 CL   UNL     1     -10.513  15.453  68.561  1.00  0.00    -0.230 Cl 
HETATM   18  C   UNL     1     -12.427  12.041  70.804  1.00  0.00    -0.372 A  
ENDBRANCH  10  11
BRANCH  10  19
HETATM   19  C   UNL     1     -11.373  11.877  66.368  1.00  0.00    -0.339 C  
BRANCH  19  20
HETATM   20  N   UNL     1     -11.726  12.862  65.367  1.00  0.00    -0.354 NA 
HETATM   21  C   UNL     1     -11.395  14.190  65.387  1.00  0.00    -0.322 A  
HETATM   22  N   UNL     1     -12.570  13.725  63.516  1.00  0.00    -0.808 NA 
HETATM   23  C   UNL     1     -11.972  14.712  64.253  1.00  0.00    -0.386 A  
HETATM   24  C   UNL     1     -12.383  12.618  64.198  1.00  0.00    -0.436 A  
ENDBRANCH  19  20
ENDBRANCH  10  19
ENDBRANCH   9  10
ENDBRANCH   8   9
ENDBRANCH   5   8
TORSDOF 6
ENDMDL
MODEL       46
REMARK 921   NORMALIZED FREE ENERGY PREDICTED BY IDOCK:   -5.56 KCAL/MOL
REMARK 922        TOTAL FREE ENERGY PREDICTED BY IDOCK:   -8.63 KCAL/MOL
REMARK 923 INTER-LIGAND FREE ENERGY PREDICTED BY IDOCK:   -7.99 KCAL/MOL
REMARK 924 INTRA-LIGAND FREE ENERGY PREDICTED BY IDOCK:   -0.64 KCAL/MOL
REMARK 927      BINDING AFFINITY PREDICTED BY RF-SCORE:    0.00 PKD
ROOT
HETATM    1 CL   UNL     1      -6.494  21.169  67.347  1.00  0.00    -0.419 Cl 
HETATM    2  C   UNL     1      -7.745  20.007  67.554  1.00  0.00    -0.298 A  
HETATM    3  C   UNL     1      -8.953  20.158  66.879  1.00  0.00    -0.448 A  
HETATM    4  C   UNL     1      -9.971  19.218  67.061  1.00  0.00    -0.447 A  
HETATM    5  C   UNL     1      -9.787  18.121  67.919  1.00  0.00    -0.317 A  
HETATM    6  C   UNL     1      -8.563  17.982  68.588  1.00  0.00    -0.274 A  
HETATM    7  C   UNL     1      -7.545  18.920  68.402  1.00  0.00    -0.339 A  
ENDROOT
BRANCH   5   8
HETATM    8  C   UNL     1     -10.913  17.144  68.163  1.00  0.00    -0.231 C  
BRANCH   8   9
HETATM    9  O   UNL     1     -10.400  15.819  68.107  1.00  0.00    -0.234 OA 
BRANCH   9  10
HETATM   10  C   UNL     1     -11.039  14.856  68.974  1.00  0.00    -0.250 C  
BRANCH  10  11
HETATM   11  C   UNL     1     -10.925  13.462  68.331  1.00  0.00    -0.291 A  
HETATM   12  C   UNL     1     -10.650  10.863  67.232  1.00  0.00    -0.251 A  
HETATM   13  C   UNL     1     -11.460  13.137  67.067  1.00  0.00    -0.336 A  
HETATM   14  C   UNL     1     -10.290  12.416  69.039  1.00  0.00     0.023 A  
HETATM   15  C   UNL     1     -11.296  11.858  66.511  1.00  0.00    -0.403 A  
HETATM   16 CL   UNL     1     -10.483   9.288  66.560  1.00  0.00    -0.260 Cl 
HETATM   17 CL   UNL     1     -12.399  14.246  66.130  1.00  0.00    -0.445 Cl 
HETATM   18  C   UNL     1     -10.161  11.130  68.501  1.00  0.00    -0.209 A  
ENDBRANCH  10  11
BRANCH  10  19
HETATM   19  C   UNL     1     -12.475  15.316  69.331  1.00  0.00    -0.037 C  
BRANCH  19  20
HETATM   20  N   UNL     1     -12.699  15.520  70.747  1.00  0.00    -0.456 NA 
HETATM   21  C   UNL     1     -13.803  15.133  71.455  1.00  0.00    -0.508 A  
HETATM   22  N   UNL     1     -12.324  16.133  72.837  1.00  0.00    -0.491 NA 
HETATM   23  C   UNL     1     -13.567  15.569  72.738  1.00  0.00    -0.561 A  
HETATM   24  C   UNL     1     -11.814  16.067  71.628  1.00  0.00    -0.507 A  
ENDBRANCH  19  20
ENDBRANCH  10  19
ENDBRANCH   9  10
ENDBRANCH   8   9
ENDBRANCH   5   8
TORSDOF 6
ENDMDL
MODEL       47
REMARK 921   NORMALIZED FREE ENERGY PREDICTED BY IDOCK:   -5.54 KCAL/MOL
REMARK 922        TOTAL FREE ENERGY PREDICTED BY IDOCK:   -8.61 KCAL/MOL
REMARK 923 INTER-LIGAND FREE ENERGY PREDICTED BY IDOCK:   -8.18 KCAL/MOL
REMARK 924 INTRA-LIGAND FREE ENERGY PREDICTED BY IDOCK:   -0.44 KCAL/MOL
REMARK 927      BINDING AFFINITY PREDICTED BY RF-SCORE:    0.00 PKD
ROOT
HETATM    1 CL   UNL     1      -8.373   9.327  62.500  1.00  0.00    -0.168 Cl 
HETATM    2  C   UNL     1      -9.384  10.290  63.504  1.00  0.00    -0.301 A  
HETATM    3  C   UNL     1      -9.547   9.960  64.846  1.00  0.00    -0.356 A  
HETATM    4  C   UNL     1     -10.380  10.739  65.655  1.00  0.00    -0.297 A  
HETATM    5  C   UNL     1     -11.056  11.850  65.125  1.00  0.00    -0.360 A  
HETATM    6  C   UNL     1     -10.877  12.171  63.772  1.00  0.00    -0.490 A  
HETATM    7  C   UNL     1     -10.041  11.395  62.967  1.00  0.00    -0.333 A  
ENDROOT
BRANCH   5   8
HETATM    8  C   UNL     1     -12.006  12.649  65.986  1.00  0.00    -0.417 C  
BRANCH   8   9
HETATM    9  O   UNL     1     -11.327  13.791  66.495  1.00  0.00    -0.309 OA 
BRANCH   9  10
HETATM   10  C   UNL     1     -10.464  13.559  67.630  1.00  0.00    -0.238 C  
BRANCH  10  11
HETATM   11  C   UNL     1     -11.329  13.499  68.902  1.00  0.00    -0.332 A  
HETATM   12  C   UNL     1     -12.921  13.499  71.249  1.00  0.00    -0.304 A  
HETATM   13  C   UNL     1     -11.666  12.299  69.564  1.00  0.00    -0.332 A  
HETATM   14  C   UNL     1     -11.864  14.691  69.441  1.00  0.00    -0.368 A  
HETATM   15  C   UNL     1     -12.428  12.303  70.742  1.00  0.00    -0.356 A  
HETATM   16 CL   UNL     1     -13.883  13.495  72.675  1.00  0.00    -0.596 Cl 
HETATM   17 CL   UNL     1     -11.229  10.739  68.961  1.00  0.00    -0.291 Cl 
HETATM   18  C   UNL     1     -12.657  14.692  70.594  1.00  0.00    -0.419 A  
ENDBRANCH  10  11
BRANCH  10  19
HETATM   19  C   UNL     1      -9.309  14.593  67.652  1.00  0.00    -0.200 C  
BRANCH  19  20
HETATM   20  N   UNL     1      -9.669  15.895  67.130  1.00  0.00    -0.222 NA 
HETATM   21  C   UNL     1      -9.909  17.023  67.867  1.00  0.00    -0.269 A  
HETATM   22  N   UNL     1     -10.125  17.488  65.668  1.00  0.00    -0.591 NA 
HETATM   23  C   UNL     1     -10.238  17.983  66.939  1.00  0.00    -0.362 A  
HETATM   24  C   UNL     1      -9.755  16.236  65.814  1.00  0.00    -0.264 A  
ENDBRANCH  19  20
ENDBRANCH  10  19
ENDBRANCH   9  10
ENDBRANCH   8   9
ENDBRANCH   5   8
TORSDOF 6
ENDMDL
MODEL       48
REMARK 921   NORMALIZED FREE ENERGY PREDICTED BY IDOCK:   -5.51 KCAL/MOL
REMARK 922        TOTAL FREE ENERGY PREDICTED BY IDOCK:   -8.57 KCAL/MOL
REMARK 923 INTER-LIGAND FREE ENERGY PREDICTED BY IDOCK:   -7.95 KCAL/MOL
REMARK 924 INTRA-LIGAND FREE ENERGY PREDICTED BY IDOCK:   -0.62 KCAL/MOL
REMARK 927      BINDING AFFINITY PREDICTED BY RF-SCORE:    0.00 PKD
ROOT
HETATM    1 CL   UNL     1      -8.373   8.843  62.625  1.00  0.00    -0.193 Cl 
HETATM    2  C   UNL     1      -9.203   9.876  63.722  1.00  0.00    -0.243 A  
HETATM    3  C   UNL     1      -9.843  11.018  63.250  1.00  0.00    -0.406 A  
HETATM    4  C   UNL     1     -10.505  11.862  64.147  1.00  0.00    -0.393 A  
HETATM    5  C   UNL     1     -10.529  11.568  65.521  1.00  0.00    -0.327 A  
HETATM    6  C   UNL     1      -9.883  10.411  65.978  1.00  0.00    -0.289 A  
HETATM    7  C   UNL     1      -9.225   9.567  65.080  1.00  0.00    -0.297 A  
ENDROOT
BRANCH   5   8
HETATM    8  C   UNL     1     -11.189  12.516  66.494  1.00  0.00    -0.307 C  
BRANCH   8   9
HETATM    9  O   UNL     1     -10.448  12.531  67.707  1.00  0.00    -0.213 OA 
BRANCH   9  10
HETATM   10  C   UNL     1     -11.021  13.296  68.790  1.00  0.00    -0.260 C  
BRANCH  10  11
HETATM   11  C   UNL     1     -11.722  12.328  69.760  1.00  0.00    -0.368 A  
HETATM   12  C   UNL     1     -12.985  10.460  71.480  1.00  0.00    -0.458 A  
HETATM   13  C   UNL     1     -12.484  12.748  70.871  1.00  0.00    -0.283 A  
HETATM   14  C   UNL     1     -11.582  10.933  69.579  1.00  0.00    -0.384 A  
HETATM   15  C   UNL     1     -13.134  11.823  71.703  1.00  0.00    -0.443 A  
HETATM   16 CL   UNL     1     -13.755   9.331  72.524  1.00  0.00    -0.507 Cl 
HETATM   17 CL   UNL     1     -12.636  14.407  71.333  1.00  0.00    -0.404 Cl 
HETATM   18  C   UNL     1     -12.198  10.010  70.431  1.00  0.00    -0.249 A  
ENDBRANCH  10  11
BRANCH  10  19
HETATM   19  C   UNL     1     -11.899  14.446  68.235  1.00  0.00    -0.326 C  
BRANCH  19  20
HETATM   20  N   UNL     1     -11.203  15.707  68.090  1.00  0.00    -0.335 NA 
HETATM   21  C   UNL     1     -10.885  16.577  69.097  1.00  0.00    -0.334 A  
HETATM   22  N   UNL     1     -10.130  17.383  67.128  1.00  0.00    -0.298 NA 
HETATM   23  C   UNL     1     -10.264  17.630  68.468  1.00  0.00    -0.386 A  
HETATM   24  C   UNL     1     -10.681  16.206  66.934  1.00  0.00    -0.247 A  
ENDBRANCH  19  20
ENDBRANCH  10  19
ENDBRANCH   9  10
ENDBRANCH   8   9
ENDBRANCH   5   8
TORSDOF 6
ENDMDL
MODEL       49
REMARK 921   NORMALIZED FREE ENERGY PREDICTED BY IDOCK:   -5.50 KCAL/MOL
REMARK 922        TOTAL FREE ENERGY PREDICTED BY IDOCK:   -8.55 KCAL/MOL
REMARK 923 INTER-LIGAND FREE ENERGY PREDICTED BY IDOCK:   -7.60 KCAL/MOL
REMARK 924 INTRA-LIGAND FREE ENERGY PREDICTED BY IDOCK:   -0.95 KCAL/MOL
REMARK 927      BINDING AFFINITY PREDICTED BY RF-SCORE:    0.00 PKD
ROOT
HETATM    1 CL   UNL     1     -13.972  15.973  73.010  1.00  0.00    -0.505 Cl 
HETATM    2  C   UNL     1     -13.350  14.752  71.970  1.00  0.00    -0.363 A  
HETATM    3  C   UNL     1     -13.483  13.410  72.317  1.00  0.00    -0.683 A  
HETATM    4  C   UNL     1     -12.964  12.422  71.474  1.00  0.00    -0.385 A  
HETATM    5  C   UNL     1     -12.307  12.771  70.283  1.00  0.00    -0.277 A  
HETATM    6  C   UNL     1     -12.186  14.127  69.947  1.00  0.00    -0.416 A  
HETATM    7  C   UNL     1     -12.708  15.112  70.788  1.00  0.00    -0.463 A  
ENDROOT
BRANCH   5   8
HETATM    8  C   UNL     1     -11.691  11.704  69.409  1.00  0.00    -0.340 C  
BRANCH   8   9
HETATM    9  O   UNL     1     -11.953  10.427  69.977  1.00  0.00    -0.268 OA 
BRANCH   9  10
HETATM   10  C   UNL     1     -11.116   9.344  69.513  1.00  0.00    -0.112 C  
BRANCH  10  11
HETATM   11  C   UNL     1     -11.065   8.259  70.604  1.00  0.00    -0.269 A  
HETATM   12  C   UNL     1     -10.958   6.341  72.689  1.00  0.00    -0.252 A  
HETATM   13  C   UNL     1     -11.052   6.875  70.331  1.00  0.00    -0.296 A  
HETATM   14  C   UNL     1     -11.070   8.637  71.966  1.00  0.00    -0.437 A  
HETATM   15  C   UNL     1     -10.968   5.927  71.364  1.00  0.00    -0.327 A  
HETATM   16 CL   UNL     1     -10.890   5.174  73.952  1.00  0.00    -0.340 Cl 
HETATM   17 CL   UNL     1     -11.196   6.230  68.734  1.00  0.00    -0.427 Cl 
HETATM   18  C   UNL     1     -11.026   7.691  72.997  1.00  0.00    -0.457 A  
ENDBRANCH  10  11
BRANCH  10  19
HETATM   19  C   UNL     1      -9.743   9.886  69.040  1.00  0.00    -0.193 C  
BRANCH  19  20
HETATM   20  N   UNL     1      -9.252   9.275  67.822  1.00  0.00    -0.129 NA 
HETATM   21  C   UNL     1      -9.814   9.383  66.579  1.00  0.00    -0.258 A  
HETATM   22  N   UNL     1      -7.951   8.113  66.465  1.00  0.00    -0.100 NA 
HETATM   23  C   UNL     1      -9.016   8.614  65.766  1.00  0.00    -0.197 A  
HETATM   24  C   UNL     1      -8.106   8.548  67.695  1.00  0.00    -0.107 A  
ENDBRANCH  19  20
ENDBRANCH  10  19
ENDBRANCH   9  10
ENDBRANCH   8   9
ENDBRANCH   5   8
TORSDOF 6
ENDMDL
MODEL       50
REMARK 921   NORMALIZED FREE ENERGY PREDICTED BY IDOCK:   -5.49 KCAL/MOL
REMARK 922        TOTAL FREE ENERGY PREDICTED BY IDOCK:   -8.55 KCAL/MOL
REMARK 923 INTER-LIGAND FREE ENERGY PREDICTED BY IDOCK:   -8.22 KCAL/MOL
REMARK 924 INTRA-LIGAND FREE ENERGY PREDICTED BY IDOCK:   -0.33 KCAL/MOL
REMARK 927      BINDING AFFINITY PREDICTED BY RF-SCORE:    0.00 PKD
ROOT
HETATM    1 CL   UNL     1     -11.952  15.391  64.451  1.00  0.00    -0.337 Cl 
HETATM    2  C   UNL     1     -11.833  14.096  65.576  1.00  0.00    -0.364 A  
HETATM    3  C   UNL     1     -11.545  12.810  65.127  1.00  0.00    -0.373 A  
HETATM    4  C   UNL     1     -11.462  11.758  66.044  1.00  0.00    -0.281 A  
HETATM    5  C   UNL     1     -11.668  11.986  67.415  1.00  0.00    -0.352 A  
HETATM    6  C   UNL     1     -11.953  13.288  67.850  1.00  0.00    -0.349 A  
HETATM    7  C   UNL     1     -12.031  14.339  66.933  1.00  0.00    -0.467 A  
ENDROOT
BRANCH   5   8
HETATM    8  C   UNL     1     -11.643  10.836  68.394  1.00  0.00    -0.239 C  
BRANCH   8   9
HETATM    9  O   UNL     1     -12.559  11.101  69.448  1.00  0.00    -0.297 OA 
BRANCH   9  10
HETATM   10  C   UNL     1     -12.026  11.010  70.788  1.00  0.00    -0.333 C  
BRANCH  10  11
HETATM   11  C   UNL     1     -11.647   9.545  71.070  1.00  0.00    -0.419 A  
HETATM   12  C   UNL     1     -11.052   6.830  71.632  1.00  0.00    -0.246 A  
HETATM   13  C   UNL     1     -10.353   9.019  70.873  1.00  0.00    -0.256 A  
HETATM   14  C   UNL     1     -12.638   8.640  71.515  1.00  0.00    -0.360 A  
HETATM   15  C   UNL     1     -10.052   7.683  71.180  1.00  0.00    -0.196 A  
HETATM   16 CL   UNL     1     -10.686   5.185  71.975  1.00  0.00    -0.265 Cl 
HETATM   17 CL   UNL     1      -9.059   9.939  70.190  1.00  0.00    -0.232 Cl 
HETATM   18  C   UNL     1     -12.348   7.298  71.784  1.00  0.00    -0.375 A  
ENDBRANCH  10  11
BRANCH  10  19
HETATM   19  C   UNL     1     -13.000  11.660  71.804  1.00  0.00    -0.377 C  
BRANCH  19  20
HETATM   20  N   UNL     1     -13.137  13.095  71.661  1.00  0.00    -0.383 NA 
HETATM   21  C   UNL     1     -14.155  13.863  72.154  1.00  0.00    -0.536 A  
HETATM   22  N   UNL     1     -12.660  15.174  71.085  1.00  0.00    -0.334 NA 
HETATM   23  C   UNL     1     -13.861  15.141  71.741  1.00  0.00    -0.506 A  
HETATM   24  C   UNL     1     -12.235  13.931  71.074  1.00  0.00    -0.342 A  
ENDBRANCH  19  20
ENDBRANCH  10  19
ENDBRANCH   9  10
ENDBRANCH   8   9
ENDBRANCH   5   8
TORSDOF 6
ENDMDL
MODEL       51
REMARK 921   NORMALIZED FREE ENERGY PREDICTED BY IDOCK:   -5.49 KCAL/MOL
REMARK 922        TOTAL FREE ENERGY PREDICTED BY IDOCK:   -8.54 KCAL/MOL
REMARK 923 INTER-LIGAND FREE ENERGY PREDICTED BY IDOCK:   -7.86 KCAL/MOL
REMARK 924 INTRA-LIGAND FREE ENERGY PREDICTED BY IDOCK:   -0.69 KCAL/MOL
REMARK 927      BINDING AFFINITY PREDICTED BY RF-SCORE:    0.00 PKD
ROOT
HETATM    1 CL   UNL     1      -8.913   6.502  65.813  1.00  0.00    -0.109 Cl 
HETATM    2  C   UNL     1      -8.935   8.190  66.143  1.00  0.00    -0.178 A  
HETATM    3  C   UNL     1      -8.664   9.100  65.126  1.00  0.00    -0.228 A  
HETATM    4  C   UNL     1      -8.670  10.471  65.403  1.00  0.00    -0.195 A  
HETATM    5  C   UNL     1      -8.946  10.938  66.698  1.00  0.00    -0.173 A  
HETATM    6  C   UNL     1      -9.221  10.007  67.710  1.00  0.00    -0.143 A  
HETATM    7  C   UNL     1      -9.218   8.638  67.431  1.00  0.00    -0.158 A  
ENDROOT
BRANCH   5   8
HETATM    8  C   UNL     1      -8.887  12.415  67.008  1.00  0.00    -0.210 C  
BRANCH   8   9
HETATM    9  O   UNL     1      -9.745  12.696  68.106  1.00  0.00    -0.210 OA 
BRANCH   9  10
HETATM   10  C   UNL     1     -10.983  13.370  67.785  1.00  0.00    -0.262 C  
BRANCH  10  11
HETATM   11  C   UNL     1     -11.623  13.872  69.092  1.00  0.00    -0.359 A  
HETATM   12  C   UNL     1     -12.778  14.902  71.468  1.00  0.00    -0.331 A  
HETATM   13  C   UNL     1     -12.096  13.018  70.111  1.00  0.00    -0.307 A  
HETATM   14  C   UNL     1     -11.799  15.260  69.295  1.00  0.00    -0.353 A  
HETATM   15  C   UNL     1     -12.639  13.530  71.300  1.00  0.00    -0.427 A  
HETATM   16 CL   UNL     1     -13.476  15.522  72.912  1.00  0.00    -0.611 Cl 
HETATM   17 CL   UNL     1     -12.103  11.296  69.966  1.00  0.00    -0.407 Cl 
HETATM   18  C   UNL     1     -12.376  15.769  70.464  1.00  0.00    -0.388 A  
ENDBRANCH  10  11
BRANCH  10  19
HETATM   19  C   UNL     1     -11.879  12.464  66.902  1.00  0.00    -0.307 C  
BRANCH  19  20
HETATM   20  N   UNL     1     -12.069  12.952  65.552  1.00  0.00    -0.434 NA 
HETATM   21  C   UNL     1     -11.851  12.248  64.400  1.00  0.00    -0.388 A  
HETATM   22  N   UNL     1     -12.595  14.319  63.898  1.00  0.00    -0.787 NA 
HETATM   23  C   UNL     1     -12.137  13.134  63.388  1.00  0.00    -0.486 A  
HETATM   24  C   UNL     1     -12.567  14.171  65.203  1.00  0.00    -0.408 A  
ENDBRANCH  19  20
ENDBRANCH  10  19
ENDBRANCH   9  10
ENDBRANCH   8   9
ENDBRANCH   5   8
TORSDOF 6
ENDMDL
MODEL       52
REMARK 921   NORMALIZED FREE ENERGY PREDICTED BY IDOCK:   -5.47 KCAL/MOL
REMARK 922        TOTAL FREE ENERGY PREDICTED BY IDOCK:   -8.51 KCAL/MOL
REMARK 923 INTER-LIGAND FREE ENERGY PREDICTED BY IDOCK:   -7.67 KCAL/MOL
REMARK 924 INTRA-LIGAND FREE ENERGY PREDICTED BY IDOCK:   -0.85 KCAL/MOL
REMARK 927      BINDING AFFINITY PREDICTED BY RF-SCORE:    0.00 PKD
ROOT
HETATM    1 CL   UNL     1     -11.929  16.400  72.623  1.00  0.00    -0.635 Cl 
HETATM    2  C   UNL     1     -11.902  15.503  71.156  1.00  0.00    -0.387 A  
HETATM    3  C   UNL     1     -12.442  14.220  71.116  1.00  0.00    -0.433 A  
HETATM    4  C   UNL     1     -12.406  13.490  69.924  1.00  0.00    -0.287 A  
HETATM    5  C   UNL     1     -11.828  14.038  68.767  1.00  0.00    -0.396 A  
HETATM    6  C   UNL     1     -11.292  15.332  68.824  1.00  0.00    -0.318 A  
HETATM    7  C   UNL     1     -11.333  16.062  70.015  1.00  0.00    -0.353 A  
ENDROOT
BRANCH   5   8
HETATM    8  C   UNL     1     -11.731  13.221  67.500  1.00  0.00    -0.366 C  
BRANCH   8   9
HETATM    9  O   UNL     1     -12.160  11.892  67.768  1.00  0.00    -0.564 OA 
BRANCH   9  10
HETATM   10  C   UNL     1     -11.160  10.861  67.610  1.00  0.00    -0.313 C  
BRANCH  10  11
HETATM   11  C   UNL     1     -11.102  10.028  68.904  1.00  0.00    -0.219 A  
HETATM   12  C   UNL     1     -11.046   8.579  71.340  1.00  0.00    -0.265 A  
HETATM   13  C   UNL     1     -10.433   8.790  69.009  1.00  0.00    -0.203 A  
HETATM   14  C   UNL     1     -11.779  10.483  70.058  1.00  0.00    -0.394 A  
HETATM   15  C   UNL     1     -10.380   8.089  70.224  1.00  0.00    -0.212 A  
HETATM   16 CL   UNL     1     -11.006   7.698  72.818  1.00  0.00    -0.398 Cl 
HETATM   17 CL   UNL     1      -9.682   8.010  67.661  1.00  0.00    -0.184 Cl 
HETATM   18  C   UNL     1     -11.760   9.765  71.259  1.00  0.00    -0.472 A  
ENDBRANCH  10  11
BRANCH  10  19
HETATM   19  C   UNL     1      -9.815  11.477  67.146  1.00  0.00    -0.191 C  
BRANCH  19  20
HETATM   20  N   UNL     1      -9.379  11.032  65.839  1.00  0.00    -0.197 NA 
HETATM   21  C   UNL     1     -10.123  11.042  64.691  1.00  0.00    -0.311 A  
HETATM   22  N   UNL     1      -8.056  10.246  64.253  1.00  0.00    -0.159 NA 
HETATM   23  C   UNL     1      -9.297  10.504  63.733  1.00  0.00    -0.281 A  
HETATM   24  C   UNL     1      -8.128  10.598  65.516  1.00  0.00    -0.129 A  
ENDBRANCH  19  20
ENDBRANCH  10  19
ENDBRANCH   9  10
ENDBRANCH   8   9
ENDBRANCH   5   8
TORSDOF 6
ENDMDL
MODEL       53
REMARK 921   NORMALIZED FREE ENERGY PREDICTED BY IDOCK:   -5.45 KCAL/MOL
REMARK 922        TOTAL FREE ENERGY PREDICTED BY IDOCK:   -8.48 KCAL/MOL
REMARK 923 INTER-LIGAND FREE ENERGY PREDICTED BY IDOCK:   -7.70 KCAL/MOL
REMARK 924 INTRA-LIGAND FREE ENERGY PREDICTED BY IDOCK:   -0.78 KCAL/MOL
REMARK 927      BINDING AFFINITY PREDICTED BY RF-SCORE:    0.00 PKD
ROOT
HETATM    1 CL   UNL     1      -8.878   9.674  62.846  1.00  0.00    -0.235 Cl 
HETATM    2  C   UNL     1      -9.888  10.747  63.733  1.00  0.00    -0.339 A  
HETATM    3  C   UNL     1     -10.102  10.537  65.092  1.00  0.00    -0.383 A  
HETATM    4  C   UNL     1     -10.934  11.405  65.805  1.00  0.00    -0.256 A  
HETATM    5  C   UNL     1     -11.558  12.487  65.162  1.00  0.00    -0.395 A  
HETATM    6  C   UNL     1     -11.329  12.687  63.794  1.00  0.00    -0.529 A  
HETATM    7  C   UNL     1     -10.493  11.821  63.084  1.00  0.00    -0.359 A  
ENDROOT
BRANCH   5   8
HETATM    8  C   UNL     1     -12.508  13.383  65.922  1.00  0.00    -0.408 C  
BRANCH   8   9
HETATM    9  O   UNL     1     -11.797  14.516  66.402  1.00  0.00    -0.383 OA 
BRANCH   9  10
HETATM   10  C   UNL     1     -10.805  14.256  67.421  1.00  0.00    -0.285 C  
BRANCH  10  11
HETATM   11  C   UNL     1     -11.486  14.323  68.799  1.00  0.00    -0.327 A  
HETATM   12  C   UNL     1     -12.726  14.558  71.339  1.00  0.00    -0.337 A  
HETATM   13  C   UNL     1     -11.856  13.185  69.546  1.00  0.00    -0.322 A  
HETATM   14  C   UNL     1     -11.808  15.581  69.360  1.00  0.00    -0.392 A  
HETATM   15  C   UNL     1     -12.442  13.303  70.817  1.00  0.00    -0.403 A  
HETATM   16 CL   UNL     1     -13.475  14.696  72.881  1.00  0.00    -0.554 Cl 
HETATM   17 CL   UNL     1     -11.679  11.572  68.950  1.00  0.00    -0.370 Cl 
HETATM   18  C   UNL     1     -12.428  15.698  70.609  1.00  0.00    -0.463 A  
ENDBRANCH  10  11
BRANCH  10  19
HETATM   19  C   UNL     1      -9.578  15.184  67.231  1.00  0.00    -0.209 C  
BRANCH  19  20
HETATM   20  N   UNL     1      -8.387  14.742  67.927  1.00  0.00    -0.141 NA 
HETATM   21  C   UNL     1      -7.888  15.266  69.088  1.00  0.00    -0.204 A  
HETATM   22  N   UNL     1      -6.586  13.554  68.401  1.00  0.00    -0.085 NA 
HETATM   23  C   UNL     1      -6.744  14.544  69.334  1.00  0.00    -0.142 A  
HETATM   24  C   UNL     1      -7.604  13.681  67.582  1.00  0.00    -0.179 A  
ENDBRANCH  19  20
ENDBRANCH  10  19
ENDBRANCH   9  10
ENDBRANCH   8   9
ENDBRANCH   5   8
TORSDOF 6
ENDMDL
MODEL       54
REMARK 921   NORMALIZED FREE ENERGY PREDICTED BY IDOCK:   -5.43 KCAL/MOL
REMARK 922        TOTAL FREE ENERGY PREDICTED BY IDOCK:   -8.47 KCAL/MOL
REMARK 923 INTER-LIGAND FREE ENERGY PREDICTED BY IDOCK:   -7.45 KCAL/MOL
REMARK 924 INTRA-LIGAND FREE ENERGY PREDICTED BY IDOCK:   -1.02 KCAL/MOL
REMARK 927      BINDING AFFINITY PREDICTED BY RF-SCORE:    0.00 PKD
ROOT
HETATM    1 CL   UNL     1     -10.130  18.305  69.111  1.00  0.00    -0.298 Cl 
HETATM    2  C   UNL     1     -10.658  16.924  68.232  1.00  0.00    -0.363 A  
HETATM    3  C   UNL     1     -11.295  15.880  68.897  1.00  0.00    -0.377 A  
HETATM    4  C   UNL     1     -11.710  14.753  68.180  1.00  0.00    -0.353 A  
HETATM    5  C   UNL     1     -11.491  14.665  66.796  1.00  0.00    -0.371 A  
HETATM    6  C   UNL     1     -10.853  15.728  66.142  1.00  0.00    -0.240 A  
HETATM    7  C   UNL     1     -10.441  16.854  66.858  1.00  0.00    -0.271 A  
ENDROOT
BRANCH   5   8
HETATM    8  C   UNL     1     -11.883  13.419  66.037  1.00  0.00    -0.383 C  
BRANCH   8   9
HETATM    9  O   UNL     1     -12.088  12.356  66.960  1.00  0.00    -0.549 OA 
BRANCH   9  10
HETATM   10  C   UNL     1     -11.189  11.232  66.841  1.00  0.00    -0.230 C  
BRANCH  10  11
HETATM   11  C   UNL     1     -11.131  10.501  68.194  1.00  0.00    -0.346 A  
HETATM   12  C   UNL     1     -11.061   9.250  70.738  1.00  0.00    -0.285 A  
HETATM   13  C   UNL     1     -10.607   9.202  68.362  1.00  0.00    -0.172 A  
HETATM   14  C   UNL     1     -11.661  11.124  69.348  1.00  0.00    -0.388 A  
HETATM   15  C   UNL     1     -10.545   8.596  69.626  1.00  0.00    -0.219 A  
HETATM   16 CL   UNL     1     -11.013   8.488  72.279  1.00  0.00    -0.430 Cl 
HETATM   17 CL   UNL     1     -10.058   8.233  67.039  1.00  0.00    -0.324 Cl 
HETATM   18  C   UNL     1     -11.635  10.504  70.602  1.00  0.00    -0.445 A  
ENDBRANCH  10  11
BRANCH  10  19
HETATM   19  C   UNL     1      -9.824  11.688  66.264  1.00  0.00    -0.219 C  
BRANCH  19  20
HETATM   20  N   UNL     1      -9.452  11.031  65.029  1.00  0.00    -0.225 NA 
HETATM   21  C   UNL     1      -8.268  10.394  64.776  1.00  0.00    -0.141 A  
HETATM   22  N   UNL     1      -9.612  10.250  62.967  1.00  0.00    -0.304 NA 
HETATM   23  C   UNL     1      -8.373   9.962  63.475  1.00  0.00    -0.166 A  
HETATM   24  C   UNL     1     -10.248  10.871  63.934  1.00  0.00    -0.354 A  
ENDBRANCH  19  20
ENDBRANCH  10  19
ENDBRANCH   9  10
ENDBRANCH   8   9
ENDBRANCH   5   8
TORSDOF 6
ENDMDL
MODEL       55
REMARK 921   NORMALIZED FREE ENERGY PREDICTED BY IDOCK:   -5.42 KCAL/MOL
REMARK 922        TOTAL FREE ENERGY PREDICTED BY IDOCK:   -8.45 KCAL/MOL
REMARK 923 INTER-LIGAND FREE ENERGY PREDICTED BY IDOCK:   -7.60 KCAL/MOL
REMARK 924 INTRA-LIGAND FREE ENERGY PREDICTED BY IDOCK:   -0.85 KCAL/MOL
REMARK 927      BINDING AFFINITY PREDICTED BY RF-SCORE:    0.00 PKD
ROOT
HETATM    1 CL   UNL     1      -7.866   9.092  62.428  1.00  0.00    -0.118 Cl 
HETATM    2  C   UNL     1      -8.973  10.062  63.318  1.00  0.00    -0.258 A  
HETATM    3  C   UNL     1      -9.562  11.172  62.718  1.00  0.00    -0.334 A  
HETATM    4  C   UNL     1     -10.450  11.965  63.450  1.00  0.00    -0.487 A  
HETATM    5  C   UNL     1     -10.754  11.654  64.786  1.00  0.00    -0.365 A  
HETATM    6  C   UNL     1     -10.155  10.530  65.373  1.00  0.00    -0.358 A  
HETATM    7  C   UNL     1      -9.270   9.737  64.639  1.00  0.00    -0.312 A  
ENDROOT
BRANCH   5   8
HETATM    8  C   UNL     1     -11.663  12.551  65.593  1.00  0.00    -0.423 C  
BRANCH   8   9
HETATM    9  O   UNL     1     -11.003  13.787  65.836  1.00  0.00    -0.282 OA 
BRANCH   9  10
HETATM   10  C   UNL     1     -10.984  14.234  67.210  1.00  0.00    -0.297 C  
BRANCH  10  11
HETATM   11  C   UNL     1     -10.778  15.759  67.229  1.00  0.00    -0.313 A  
HETATM   12  C   UNL     1     -10.368  18.564  67.157  1.00  0.00    -0.399 A  
HETATM   13  C   UNL     1     -10.875  16.548  68.395  1.00  0.00    -0.348 A  
HETATM   14  C   UNL     1     -10.514  16.444  66.021  1.00  0.00    -0.333 A  
HETATM   15  C   UNL     1     -10.641  17.932  68.363  1.00  0.00    -0.275 A  
HETATM   16 CL   UNL     1     -10.116  20.265  67.117  1.00  0.00    -0.577 Cl 
HETATM   17 CL   UNL     1     -11.339  15.903  69.930  1.00  0.00    -0.323 Cl 
HETATM   18  C   UNL     1     -10.320  17.829  65.982  1.00  0.00    -0.304 A  
ENDBRANCH  10  11
BRANCH  10  19
HETATM   19  C   UNL     1      -9.965  13.407  68.035  1.00  0.00    -0.239 C  
BRANCH  19  20
HETATM   20  N   UNL     1     -10.558  12.341  68.815  1.00  0.00    -0.221 NA 
HETATM   21  C   UNL     1     -11.847  12.293  69.270  1.00  0.00    -0.306 A  
HETATM   22  N   UNL     1     -10.749  10.421  69.892  1.00  0.00    -0.281 NA 
HETATM   23  C   UNL     1     -11.926  11.116  69.976  1.00  0.00    -0.367 A  
HETATM   24  C   UNL     1      -9.953  11.172  69.166  1.00  0.00    -0.082 A  
ENDBRANCH  19  20
ENDBRANCH  10  19
ENDBRANCH   9  10
ENDBRANCH   8   9
ENDBRANCH   5   8
TORSDOF 6
ENDMDL
MODEL       56
REMARK 921   NORMALIZED FREE ENERGY PREDICTED BY IDOCK:   -5.41 KCAL/MOL
REMARK 922        TOTAL FREE ENERGY PREDICTED BY IDOCK:   -8.43 KCAL/MOL
REMARK 923 INTER-LIGAND FREE ENERGY PREDICTED BY IDOCK:   -7.63 KCAL/MOL
REMARK 924 INTRA-LIGAND FREE ENERGY PREDICTED BY IDOCK:   -0.81 KCAL/MOL
REMARK 927      BINDING AFFINITY PREDICTED BY RF-SCORE:    0.00 PKD
ROOT
HETATM    1 CL   UNL     1     -11.317   6.585  72.278  1.00  0.00    -0.305 Cl 
HETATM    2  C   UNL     1     -10.985   7.532  70.880  1.00  0.00    -0.253 A  
HETATM    3  C   UNL     1     -10.962   8.920  70.971  1.00  0.00    -0.341 A  
HETATM    4  C   UNL     1     -10.705   9.686  69.830  1.00  0.00    -0.269 A  
HETATM    5  C   UNL     1     -10.471   9.066  68.591  1.00  0.00    -0.229 A  
HETATM    6  C   UNL     1     -10.494   7.666  68.518  1.00  0.00    -0.206 A  
HETATM    7  C   UNL     1     -10.747   6.903  69.661  1.00  0.00    -0.276 A  
ENDROOT
BRANCH   5   8
HETATM    8  C   UNL     1     -10.259   9.898  67.348  1.00  0.00    -0.222 C  
BRANCH   8   9
HETATM    9  O   UNL     1     -10.964  11.125  67.482  1.00  0.00    -0.237 OA 
BRANCH   9  10
HETATM   10  C   UNL     1     -10.152  12.319  67.535  1.00  0.00    -0.201 C  
BRANCH  10  11
HETATM   11  C   UNL     1     -10.732  13.262  68.604  1.00  0.00    -0.281 A  
HETATM   12  C   UNL     1     -11.893  14.938  70.575  1.00  0.00    -0.303 A  
HETATM   13  C   UNL     1     -10.096  14.447  69.030  1.00  0.00    -0.155 A  
HETATM   14  C   UNL     1     -11.948  12.931  69.243  1.00  0.00    -0.313 A  
HETATM   15  C   UNL     1     -10.687  15.292  69.984  1.00  0.00    -0.297 A  
HETATM   16 CL   UNL     1     -12.595  15.959  71.768  1.00  0.00    -0.505 Cl 
HETATM   17 CL   UNL     1      -8.532  14.929  68.471  1.00  0.00    -0.156 Cl 
HETATM   18  C   UNL     1     -12.519  13.752  70.222  1.00  0.00    -0.357 A  
ENDBRANCH  10  11
BRANCH  10  19
HETATM   19  C   UNL     1      -9.990  12.927  66.118  1.00  0.00    -0.272 C  
BRANCH  19  20
HETATM   20  N   UNL     1     -11.101  12.661  65.228  1.00  0.00    -0.288 NA 
HETATM   21  C   UNL     1     -11.059  11.911  64.085  1.00  0.00    -0.375 A  
HETATM   22  N   UNL     1     -13.158  12.673  64.420  1.00  0.00    -0.747 NA 
HETATM   23  C   UNL     1     -12.335  11.976  63.577  1.00  0.00    -0.551 A  
HETATM   24  C   UNL     1     -12.392  13.052  65.418  1.00  0.00    -0.486 A  
ENDBRANCH  19  20
ENDBRANCH  10  19
ENDBRANCH   9  10
ENDBRANCH   8   9
ENDBRANCH   5   8
TORSDOF 6
ENDMDL
MODEL       57
REMARK 921   NORMALIZED FREE ENERGY PREDICTED BY IDOCK:   -5.41 KCAL/MOL
REMARK 922        TOTAL FREE ENERGY PREDICTED BY IDOCK:   -8.43 KCAL/MOL
REMARK 923 INTER-LIGAND FREE ENERGY PREDICTED BY IDOCK:   -7.84 KCAL/MOL
REMARK 924 INTRA-LIGAND FREE ENERGY PREDICTED BY IDOCK:   -0.59 KCAL/MOL
REMARK 927      BINDING AFFINITY PREDICTED BY RF-SCORE:    0.00 PKD
ROOT
HETATM    1 CL   UNL     1     -10.008   6.754  68.561  1.00  0.00    -0.145 Cl 
HETATM    2  C   UNL     1     -10.527   8.392  68.647  1.00  0.00    -0.166 A  
HETATM    3  C   UNL     1     -10.437   9.209  67.524  1.00  0.00    -0.335 A  
HETATM    4  C   UNL     1     -10.848  10.543  67.603  1.00  0.00    -0.355 A  
HETATM    5  C   UNL     1     -11.350  11.067  68.806  1.00  0.00    -0.349 A  
HETATM    6  C   UNL     1     -11.439  10.229  69.926  1.00  0.00    -0.340 A  
HETATM    7  C   UNL     1     -11.031   8.895  69.844  1.00  0.00    -0.190 A  
ENDROOT
BRANCH   5   8
HETATM    8  C   UNL     1     -11.732  12.526  68.904  1.00  0.00    -0.322 C  
BRANCH   8   9
HETATM    9  O   UNL     1     -10.632  13.325  68.488  1.00  0.00    -0.247 OA 
BRANCH   9  10
HETATM   10  C   UNL     1     -10.815  14.062  67.259  1.00  0.00    -0.284 C  
BRANCH  10  11
HETATM   11  C   UNL     1     -10.362  15.515  67.484  1.00  0.00    -0.271 A  
HETATM   12  C   UNL     1      -9.457  18.183  67.813  1.00  0.00    -0.268 A  
HETATM   13  C   UNL     1     -10.792  16.311  68.567  1.00  0.00    -0.330 A  
HETATM   14  C   UNL     1      -9.498  16.131  66.549  1.00  0.00    -0.289 A  
HETATM   15  C   UNL     1     -10.319  17.621  68.745  1.00  0.00    -0.348 A  
HETATM   16 CL   UNL     1      -8.908  19.800  68.017  1.00  0.00    -0.364 Cl 
HETATM   17 CL   UNL     1     -11.964  15.775  69.719  1.00  0.00    -0.358 Cl 
HETATM   18  C   UNL     1      -9.058  17.450  66.705  1.00  0.00    -0.276 A  
ENDBRANCH  10  11
BRANCH  10  19
HETATM   19  C   UNL     1     -12.261  13.883  66.730  1.00  0.00    -0.399 C  
BRANCH  19  20
HETATM   20  N   UNL     1     -12.339  13.490  65.338  1.00  0.00    -0.448 NA 
HETATM   21  C   UNL     1     -12.579  12.229  64.866  1.00  0.00    -0.155 A  
HETATM   22  N   UNL     1     -12.345  13.659  63.134  1.00  0.00    -0.677 NA 
HETATM   23  C   UNL     1     -12.528  12.351  63.497  1.00  0.00    -0.500 A  
HETATM   24  C   UNL     1     -12.260  14.325  64.263  1.00  0.00    -0.423 A  
ENDBRANCH  19  20
ENDBRANCH  10  19
ENDBRANCH   9  10
ENDBRANCH   8   9
ENDBRANCH   5   8
TORSDOF 6
ENDMDL
MODEL       58
REMARK 921   NORMALIZED FREE ENERGY PREDICTED BY IDOCK:   -5.40 KCAL/MOL
REMARK 922        TOTAL FREE ENERGY PREDICTED BY IDOCK:   -8.43 KCAL/MOL
REMARK 923 INTER-LIGAND FREE ENERGY PREDICTED BY IDOCK:   -8.23 KCAL/MOL
REMARK 924 INTRA-LIGAND FREE ENERGY PREDICTED BY IDOCK:   -0.20 KCAL/MOL
REMARK 927      BINDING AFFINITY PREDICTED BY RF-SCORE:    0.00 PKD
ROOT
HETATM    1 CL   UNL     1     -12.530  15.840  74.463  1.00  0.00    -0.783 Cl 
HETATM    2  C   UNL     1     -12.400  15.268  72.846  1.00  0.00    -0.408 A  
HETATM    3  C   UNL     1     -12.906  14.015  72.509  1.00  0.00    -0.408 A  
HETATM    4  C   UNL     1     -12.786  13.549  71.197  1.00  0.00    -0.425 A  
HETATM    5  C   UNL     1     -12.158  14.333  70.214  1.00  0.00    -0.403 A  
HETATM    6  C   UNL     1     -11.658  15.593  70.570  1.00  0.00    -0.383 A  
HETATM    7  C   UNL     1     -11.782  16.059  71.881  1.00  0.00    -0.594 A  
ENDROOT
BRANCH   5   8
HETATM    8  C   UNL     1     -11.972  13.798  68.813  1.00  0.00    -0.365 C  
BRANCH   8   9
HETATM    9  O   UNL     1     -10.584  13.621  68.562  1.00  0.00    -0.240 OA 
BRANCH   9  10
HETATM   10  C   UNL     1     -10.166  13.772  67.187  1.00  0.00    -0.244 C  
BRANCH  10  11
HETATM   11  C   UNL     1     -10.079  15.274  66.861  1.00  0.00    -0.257 A  
HETATM   12  C   UNL     1      -9.863  18.056  66.355  1.00  0.00    -0.340 A  
HETATM   13  C   UNL     1     -10.727  15.875  65.761  1.00  0.00    -0.316 A  
HETATM   14  C   UNL     1      -9.282  16.119  67.666  1.00  0.00    -0.205 A  
HETATM   15  C   UNL     1     -10.644  17.257  65.529  1.00  0.00    -0.136 A  
HETATM   16 CL   UNL     1      -9.738  19.743  66.046  1.00  0.00    -0.470 Cl 
HETATM   17 CL   UNL     1     -11.616  14.971  64.585  1.00  0.00    -0.410 Cl 
HETATM   18  C   UNL     1      -9.167  17.491  67.413  1.00  0.00    -0.238 A  
ENDBRANCH  10  11
BRANCH  10  19
HETATM   19  C   UNL     1     -11.070  12.932  66.250  1.00  0.00    -0.288 C  
BRANCH  19  20
HETATM   20  N   UNL     1     -10.367  11.904  65.512  1.00  0.00    -0.254 NA 
HETATM   21  C   UNL     1     -10.710  11.414  64.281  1.00  0.00    -0.356 A  
HETATM   22  N   UNL     1      -8.832  10.396  65.011  1.00  0.00    -0.182 NA 
HETATM   23  C   UNL     1      -9.770  10.446  64.015  1.00  0.00    -0.311 A  
HETATM   24  C   UNL     1      -9.203  11.302  65.886  1.00  0.00    -0.212 A  
ENDBRANCH  19  20
ENDBRANCH  10  19
ENDBRANCH   9  10
ENDBRANCH   8   9
ENDBRANCH   5   8
TORSDOF 6
ENDMDL
MODEL       59
REMARK 921   NORMALIZED FREE ENERGY PREDICTED BY IDOCK:   -5.36 KCAL/MOL
REMARK 922        TOTAL FREE ENERGY PREDICTED BY IDOCK:   -8.37 KCAL/MOL
REMARK 923 INTER-LIGAND FREE ENERGY PREDICTED BY IDOCK:   -7.68 KCAL/MOL
REMARK 924 INTRA-LIGAND FREE ENERGY PREDICTED BY IDOCK:   -0.69 KCAL/MOL
REMARK 927      BINDING AFFINITY PREDICTED BY RF-SCORE:    0.00 PKD
ROOT
HETATM    1 CL   UNL     1      -5.474  17.979  69.616  1.00  0.00    -0.200 Cl 
HETATM    2  C   UNL     1      -6.927  17.200  69.127  1.00  0.00    -0.224 A  
HETATM    3  C   UNL     1      -7.899  17.914  68.432  1.00  0.00    -0.288 A  
HETATM    4  C   UNL     1      -9.084  17.280  68.048  1.00  0.00    -0.249 A  
HETATM    5  C   UNL     1      -9.305  15.928  68.359  1.00  0.00    -0.201 A  
HETATM    6  C   UNL     1      -8.314  15.222  69.056  1.00  0.00    -0.215 A  
HETATM    7  C   UNL     1      -7.129  15.857  69.436  1.00  0.00    -0.215 A  
ENDROOT
BRANCH   5   8
HETATM    8  C   UNL     1     -10.614  15.265  68.001  1.00  0.00    -0.261 C  
BRANCH   8   9
HETATM    9  O   UNL     1     -10.805  14.128  68.834  1.00  0.00    -0.248 OA 
BRANCH   9  10
HETATM   10  C   UNL     1     -11.401  12.974  68.202  1.00  0.00    -0.294 C  
BRANCH  10  11
HETATM   11  C   UNL     1     -11.706  11.923  69.284  1.00  0.00    -0.389 A  
HETATM   12  C   UNL     1     -12.223   9.909  71.212  1.00  0.00    -0.387 A  
HETATM   13  C   UNL     1     -12.441  12.197  70.457  1.00  0.00    -0.198 A  
HETATM   14  C   UNL     1     -11.202  10.609  69.145  1.00  0.00    -0.324 A  
HETATM   15  C   UNL     1     -12.723  11.192  71.396  1.00  0.00    -0.524 A  
HETATM   16 CL   UNL     1     -12.542   8.689  72.383  1.00  0.00    -0.450 Cl 
HETATM   17 CL   UNL     1     -13.002  13.781  70.866  1.00  0.00    -0.330 Cl 
HETATM   18  C   UNL     1     -11.449   9.616  70.100  1.00  0.00    -0.238 A  
ENDBRANCH  10  11
BRANCH  10  19
HETATM   19  C   UNL     1     -10.521  12.487  67.022  1.00  0.00    -0.231 C  
BRANCH  19  20
HETATM   20  N   UNL     1     -11.204  12.458  65.745  1.00  0.00    -0.318 NA 
HETATM   21  C   UNL     1     -10.691  11.996  64.565  1.00  0.00    -0.312 A  
HETATM   22  N   UNL     1     -12.813  12.699  64.250  1.00  0.00    -0.736 NA 
HETATM   23  C   UNL     1     -11.691  12.201  63.644  1.00  0.00    -0.498 A  
HETATM   24  C   UNL     1     -12.498  12.819  65.520  1.00  0.00    -0.354 A  
ENDBRANCH  19  20
ENDBRANCH  10  19
ENDBRANCH   9  10
ENDBRANCH   8   9
ENDBRANCH   5   8
TORSDOF 6
ENDMDL
MODEL       60
REMARK 921   NORMALIZED FREE ENERGY PREDICTED BY IDOCK:   -5.36 KCAL/MOL
REMARK 922        TOTAL FREE ENERGY PREDICTED BY IDOCK:   -8.36 KCAL/MOL
REMARK 923 INTER-LIGAND FREE ENERGY PREDICTED BY IDOCK:   -7.60 KCAL/MOL
REMARK 924 INTRA-LIGAND FREE ENERGY PREDICTED BY IDOCK:   -0.76 KCAL/MOL
REMARK 927      BINDING AFFINITY PREDICTED BY RF-SCORE:    0.00 PKD
ROOT
HETATM    1 CL   UNL     1     -12.741   6.791  71.880  1.00  0.00    -0.356 Cl 
HETATM    2  C   UNL     1     -11.833   7.963  71.008  1.00  0.00    -0.268 A  
HETATM    3  C   UNL     1     -10.907   7.555  70.052  1.00  0.00    -0.260 A  
HETATM    4  C   UNL     1     -10.162   8.511  69.356  1.00  0.00    -0.211 A  
HETATM    5  C   UNL     1     -10.337   9.881  69.612  1.00  0.00    -0.265 A  
HETATM    6  C   UNL     1     -11.277  10.275  70.575  1.00  0.00    -0.408 A  
HETATM    7  C   UNL     1     -12.023   9.318  71.267  1.00  0.00    -0.414 A  
ENDROOT
BRANCH   5   8
HETATM    8  C   UNL     1      -9.484  10.907  68.905  1.00  0.00    -0.172 C  
BRANCH   8   9
HETATM    9  O   UNL     1     -10.165  12.155  68.897  1.00  0.00    -0.157 OA 
BRANCH   9  10
HETATM   10  C   UNL     1     -10.399  12.740  67.597  1.00  0.00    -0.221 C  
BRANCH  10  11
HETATM   11  C   UNL     1     -10.461  14.270  67.749  1.00  0.00    -0.245 A  
HETATM   12  C   UNL     1     -10.490  17.098  67.956  1.00  0.00    -0.369 A  
HETATM   13  C   UNL     1     -11.280  14.932  68.689  1.00  0.00    -0.275 A  
HETATM   14  C   UNL     1      -9.695  15.090  66.888  1.00  0.00    -0.247 A  
HETATM   15  C   UNL     1     -11.271  16.330  68.810  1.00  0.00    -0.343 A  
HETATM   16 CL   UNL     1     -10.509  18.814  68.087  1.00  0.00    -0.398 Cl 
HETATM   17 CL   UNL     1     -12.393  14.098  69.715  1.00  0.00    -0.384 Cl 
HETATM   18  C   UNL     1      -9.715  16.486  66.983  1.00  0.00    -0.255 A  
ENDBRANCH  10  11
BRANCH  10  19
HETATM   19  C   UNL     1     -11.628  12.082  66.920  1.00  0.00    -0.318 C  
BRANCH  19  20
HETATM   20  N   UNL     1     -11.664  12.233  65.480  1.00  0.00    -0.386 NA 
HETATM   21  C   UNL     1     -12.625  12.887  64.759  1.00  0.00    -0.425 A  
HETATM   22  N   UNL     1     -11.044  12.078  63.364  1.00  0.00    -0.413 NA 
HETATM   23  C   UNL     1     -12.243  12.734  63.447  1.00  0.00    -0.504 A  
HETATM   24  C   UNL     1     -10.708  11.811  64.606  1.00  0.00    -0.310 A  
ENDBRANCH  19  20
ENDBRANCH  10  19
ENDBRANCH   9  10
ENDBRANCH   8   9
ENDBRANCH   5   8
TORSDOF 6
ENDMDL
MODEL       61
REMARK 921   NORMALIZED FREE ENERGY PREDICTED BY IDOCK:   -5.34 KCAL/MOL
REMARK 922        TOTAL FREE ENERGY PREDICTED BY IDOCK:   -8.34 KCAL/MOL
REMARK 923 INTER-LIGAND FREE ENERGY PREDICTED BY IDOCK:   -7.46 KCAL/MOL
REMARK 924 INTRA-LIGAND FREE ENERGY PREDICTED BY IDOCK:   -0.89 KCAL/MOL
REMARK 927      BINDING AFFINITY PREDICTED BY RF-SCORE:    0.00 PKD
ROOT
HETATM    1 CL   UNL     1     -10.787   5.788  71.482  1.00  0.00    -0.318 Cl 
HETATM    2  C   UNL     1     -10.371   7.212  70.610  1.00  0.00    -0.204 A  
HETATM    3  C   UNL     1      -9.851   8.313  71.285  1.00  0.00    -0.225 A  
HETATM    4  C   UNL     1      -9.527   9.472  70.574  1.00  0.00    -0.306 A  
HETATM    5  C   UNL     1      -9.722   9.537  69.184  1.00  0.00    -0.178 A  
HETATM    6  C   UNL     1     -10.242   8.417  68.520  1.00  0.00    -0.228 A  
HETATM    7  C   UNL     1     -10.562   7.258  69.232  1.00  0.00    -0.230 A  
ENDROOT
BRANCH   5   8
HETATM    8  C   UNL     1      -9.432  10.813  68.430  1.00  0.00    -0.174 C  
BRANCH   8   9
HETATM    9  O   UNL     1      -9.878  11.922  69.200  1.00  0.00     0.055 OA 
BRANCH   9  10
HETATM   10  C   UNL     1     -10.695  12.889  68.503  1.00  0.00    -0.254 C  
BRANCH  10  11
HETATM   11  C   UNL     1     -11.580  13.617  69.530  1.00  0.00    -0.361 A  
HETATM   12  C   UNL     1     -13.169  15.057  71.385  1.00  0.00    -0.421 A  
HETATM   13  C   UNL     1     -12.364  12.955  70.498  1.00  0.00    -0.283 A  
HETATM   14  C   UNL     1     -11.666  15.028  69.503  1.00  0.00    -0.350 A  
HETATM   15  C   UNL     1     -13.127  13.670  71.436  1.00  0.00    -0.396 A  
HETATM   16 CL   UNL     1     -14.133  15.927  72.515  1.00  0.00    -0.504 Cl 
HETATM   17 CL   UNL     1     -12.501  11.234  70.579  1.00  0.00    -0.406 Cl 
HETATM   18  C   UNL     1     -12.456  15.740  70.412  1.00  0.00    -0.331 A  
ENDBRANCH  10  11
BRANCH  10  19
HETATM   19  C   UNL     1     -11.446  12.215  67.326  1.00  0.00    -0.345 C  
BRANCH  19  20
HETATM   20  N   UNL     1     -11.611  13.065  66.165  1.00  0.00    -0.347 NA 
HETATM   21  C   UNL     1     -10.626  13.772  65.533  1.00  0.00    -0.307 A  
HETATM   22  N   UNL     1     -12.593  14.093  64.473  1.00  0.00    -0.675 NA 
HETATM   23  C   UNL     1     -11.269  14.439  64.518  1.00  0.00    -0.306 A  
HETATM   24  C   UNL     1     -12.764  13.244  65.461  1.00  0.00    -0.367 A  
ENDBRANCH  19  20
ENDBRANCH  10  19
ENDBRANCH   9  10
ENDBRANCH   8   9
ENDBRANCH   5   8
TORSDOF 6
ENDMDL
MODEL       62
REMARK 921   NORMALIZED FREE ENERGY PREDICTED BY IDOCK:   -5.32 KCAL/MOL
REMARK 922        TOTAL FREE ENERGY PREDICTED BY IDOCK:   -8.32 KCAL/MOL
REMARK 923 INTER-LIGAND FREE ENERGY PREDICTED BY IDOCK:   -7.26 KCAL/MOL
REMARK 924 INTRA-LIGAND FREE ENERGY PREDICTED BY IDOCK:   -1.06 KCAL/MOL
REMARK 927      BINDING AFFINITY PREDICTED BY RF-SCORE:    0.00 PKD
ROOT
HETATM    1 CL   UNL     1      -5.142  15.073  71.665  1.00  0.00    -0.160 Cl 
HETATM    2  C   UNL     1      -6.001  14.250  70.423  1.00  0.00    -0.171 A  
HETATM    3  C   UNL     1      -6.850  14.959  69.577  1.00  0.00    -0.172 A  
HETATM    4  C   UNL     1      -7.555  14.283  68.578  1.00  0.00    -0.127 A  
HETATM    5  C   UNL     1      -7.418  12.894  68.419  1.00  0.00    -0.124 A  
HETATM    6  C   UNL     1      -6.555  12.196  69.276  1.00  0.00    -0.104 A  
HETATM    7  C   UNL     1      -5.848  12.873  70.272  1.00  0.00    -0.155 A  
ENDROOT
BRANCH   5   8
HETATM    8  C   UNL     1      -8.232  12.158  67.380  1.00  0.00    -0.175 C  
BRANCH   8   9
HETATM    9  O   UNL     1      -9.444  11.708  67.971  1.00  0.00    -0.172 OA 
BRANCH   9  10
HETATM   10  C   UNL     1     -10.637  12.432  67.598  1.00  0.00    -0.216 C  
BRANCH  10  11
HETATM   11  C   UNL     1     -11.439  12.750  68.872  1.00  0.00    -0.352 A  
HETATM   12  C   UNL     1     -12.932  13.226  71.236  1.00  0.00    -0.270 A  
HETATM   13  C   UNL     1     -11.779  14.058  69.278  1.00  0.00    -0.326 A  
HETATM   14  C   UNL     1     -11.839  11.698  69.728  1.00  0.00    -0.428 A  
HETATM   15  C   UNL     1     -12.544  14.290  70.432  1.00  0.00    -0.405 A  
HETATM   16 CL   UNL     1     -13.841  13.520  72.667  1.00  0.00    -0.596 Cl 
HETATM   17 CL   UNL     1     -11.243  15.471  68.438  1.00  0.00    -0.323 Cl 
HETATM   18  C   UNL     1     -12.569  11.932  70.899  1.00  0.00    -0.361 A  
ENDBRANCH  10  11
BRANCH  10  19
HETATM   19  C   UNL     1     -11.409  11.670  66.491  1.00  0.00    -0.263 C  
BRANCH  19  20
HETATM   20  N   UNL     1     -11.749  12.480  65.339  1.00  0.00    -0.379 NA 
HETATM   21  C   UNL     1     -11.639  12.106  64.028  1.00  0.00    -0.423 A  
HETATM   22  N   UNL     1     -12.472  14.201  64.157  1.00  0.00    -0.696 NA 
HETATM   23  C   UNL     1     -12.047  13.209  63.315  1.00  0.00    -0.386 A  
HETATM   24  C   UNL     1     -12.304  13.724  65.369  1.00  0.00    -0.475 A  
ENDBRANCH  19  20
ENDBRANCH  10  19
ENDBRANCH   9  10
ENDBRANCH   8   9
ENDBRANCH   5   8
TORSDOF 6
ENDMDL
MODEL       63
REMARK 921   NORMALIZED FREE ENERGY PREDICTED BY IDOCK:   -5.32 KCAL/MOL
REMARK 922        TOTAL FREE ENERGY PREDICTED BY IDOCK:   -8.31 KCAL/MOL
REMARK 923 INTER-LIGAND FREE ENERGY PREDICTED BY IDOCK:   -7.14 KCAL/MOL
REMARK 924 INTRA-LIGAND FREE ENERGY PREDICTED BY IDOCK:   -1.17 KCAL/MOL
REMARK 927      BINDING AFFINITY PREDICTED BY RF-SCORE:    0.00 PKD
ROOT
HETATM    1 CL   UNL     1      -8.266   6.099  65.664  1.00  0.00    -0.135 Cl 
HETATM    2  C   UNL     1      -9.108   7.488  66.230  1.00  0.00    -0.157 A  
HETATM    3  C   UNL     1     -10.171   7.342  67.117  1.00  0.00    -0.347 A  
HETATM    4  C   UNL     1     -10.861   8.474  67.563  1.00  0.00    -0.086 A  
HETATM    5  C   UNL     1     -10.493   9.756  67.124  1.00  0.00    -0.316 A  
HETATM    6  C   UNL     1      -9.418   9.885  66.234  1.00  0.00    -0.245 A  
HETATM    7  C   UNL     1      -8.727   8.754  65.792  1.00  0.00    -0.209 A  
ENDROOT
BRANCH   5   8
HETATM    8  C   UNL     1     -11.283  10.969  67.558  1.00  0.00    -0.302 C  
BRANCH   8   9
HETATM    9  O   UNL     1     -12.016  10.652  68.734  1.00  0.00    -0.366 OA 
BRANCH   9  10
HETATM   10  C   UNL     1     -11.473  11.159  69.974  1.00  0.00    -0.292 C  
BRANCH  10  11
HETATM   11  C   UNL     1     -11.208   9.972  70.917  1.00  0.00    -0.415 A  
HETATM   12  C   UNL     1     -10.822   7.798  72.697  1.00  0.00    -0.354 A  
HETATM   13  C   UNL     1      -9.958   9.329  71.034  1.00  0.00    -0.293 A  
HETATM   14  C   UNL     1     -12.266   9.447  71.695  1.00  0.00    -0.467 A  
HETATM   15  C   UNL     1      -9.760   8.272  71.938  1.00  0.00    -0.299 A  
HETATM   16 CL   UNL     1     -10.583   6.481  73.778  1.00  0.00    -0.317 Cl 
HETATM   17 CL   UNL     1      -8.596   9.736  70.050  1.00  0.00    -0.225 Cl 
HETATM   18  C   UNL     1     -12.079   8.369  72.567  1.00  0.00    -0.403 A  
ENDBRANCH  10  11
BRANCH  10  19
HETATM   19  C   UNL     1     -12.379  12.280  70.543  1.00  0.00    -0.264 C  
BRANCH  19  20
HETATM   20  N   UNL     1     -11.973  13.619  70.168  1.00  0.00    -0.335 NA 
HETATM   21  C   UNL     1     -11.727  14.063  68.897  1.00  0.00    -0.340 A  
HETATM   22  N   UNL     1     -11.436  15.753  70.366  1.00  0.00    -0.333 NA 
HETATM   23  C   UNL     1     -11.348  15.376  69.052  1.00  0.00    -0.316 A  
HETATM   24  C   UNL     1     -11.839  14.682  71.010  1.00  0.00    -0.322 A  
ENDBRANCH  19  20
ENDBRANCH  10  19
ENDBRANCH   9  10
ENDBRANCH   8   9
ENDBRANCH   5   8
TORSDOF 6
ENDMDL
MODEL       64
REMARK 921   NORMALIZED FREE ENERGY PREDICTED BY IDOCK:   -5.31 KCAL/MOL
REMARK 922        TOTAL FREE ENERGY PREDICTED BY IDOCK:   -8.30 KCAL/MOL
REMARK 923 INTER-LIGAND FREE ENERGY PREDICTED BY IDOCK:   -7.53 KCAL/MOL
REMARK 924 INTRA-LIGAND FREE ENERGY PREDICTED BY IDOCK:   -0.77 KCAL/MOL
REMARK 927      BINDING AFFINITY PREDICTED BY RF-SCORE:    0.00 PKD
ROOT
HETATM    1 CL   UNL     1     -10.474  20.174  65.706  1.00  0.00    -0.487 Cl 
HETATM    2  C   UNL     1     -10.304  18.757  66.666  1.00  0.00    -0.420 A  
HETATM    3  C   UNL     1     -10.115  17.522  66.053  1.00  0.00    -0.270 A  
HETATM    4  C   UNL     1      -9.990  16.371  66.837  1.00  0.00    -0.273 A  
HETATM    5  C   UNL     1     -10.055  16.449  68.238  1.00  0.00    -0.248 A  
HETATM    6  C   UNL     1     -10.242  17.702  68.839  1.00  0.00    -0.354 A  
HETATM    7  C   UNL     1     -10.362  18.851  68.054  1.00  0.00    -0.457 A  
ENDROOT
BRANCH   5   8
HETATM    8  C   UNL     1      -9.986  15.196  69.078  1.00  0.00    -0.239 C  
BRANCH   8   9
HETATM    9  O   UNL     1     -10.792  14.188  68.480  1.00  0.00    -0.237 OA 
BRANCH   9  10
HETATM   10  C   UNL     1     -11.310  13.179  69.374  1.00  0.00    -0.213 C  
BRANCH  10  11
HETATM   11  C   UNL     1     -11.056  11.793  68.754  1.00  0.00    -0.293 A  
HETATM   12  C   UNL     1     -10.568   9.291  67.513  1.00  0.00    -0.262 A  
HETATM   13  C   UNL     1     -11.242  10.579  69.448  1.00  0.00    -0.269 A  
HETATM   14  C   UNL     1     -10.570  11.699  67.430  1.00  0.00    -0.257 A  
HETATM   15  C   UNL     1     -11.029   9.340  68.823  1.00  0.00    -0.047 A  
HETATM   16 CL   UNL     1     -10.276   7.770  66.763  1.00  0.00    -0.356 Cl 
HETATM   17 CL   UNL     1     -11.683  10.508  71.118  1.00  0.00    -0.387 Cl 
HETATM   18  C   UNL     1     -10.320  10.465  66.819  1.00  0.00    -0.294 A  
ENDBRANCH  10  11
BRANCH  10  19
HETATM   19  C   UNL     1     -12.783  13.489  69.745  1.00  0.00     0.223 C  
BRANCH  19  20
HETATM   20  N   UNL     1     -12.944  14.194  70.999  1.00  0.00    -0.338 NA 
HETATM   21  C   UNL     1     -12.803  15.541  71.193  1.00  0.00    -0.489 A  
HETATM   22  N   UNL     1     -13.364  14.545  73.140  1.00  0.00    -0.602 NA 
HETATM   23  C   UNL     1     -13.020  15.726  72.538  1.00  0.00    -0.470 A  
HETATM   24  C   UNL     1     -13.334  13.645  72.184  1.00  0.00    -0.494 A  
ENDBRANCH  19  20
ENDBRANCH  10  19
ENDBRANCH   9  10
ENDBRANCH   8   9
ENDBRANCH   5   8
TORSDOF 6
ENDMDL
MODEL       65
REMARK 921   NORMALIZED FREE ENERGY PREDICTED BY IDOCK:   -5.31 KCAL/MOL
REMARK 922        TOTAL FREE ENERGY PREDICTED BY IDOCK:   -8.30 KCAL/MOL
REMARK 923 INTER-LIGAND FREE ENERGY PREDICTED BY IDOCK:   -7.72 KCAL/MOL
REMARK 924 INTRA-LIGAND FREE ENERGY PREDICTED BY IDOCK:   -0.58 KCAL/MOL
REMARK 927      BINDING AFFINITY PREDICTED BY RF-SCORE:    0.00 PKD
ROOT
HETATM    1 CL   UNL     1     -14.189  15.295  72.766  1.00  0.00    -0.340 Cl 
HETATM    2  C   UNL     1     -12.952  15.270  71.570  1.00  0.00    -0.412 A  
HETATM    3  C   UNL     1     -12.005  16.290  71.529  1.00  0.00    -0.378 A  
HETATM    4  C   UNL     1     -11.011  16.273  70.547  1.00  0.00    -0.233 A  
HETATM    5  C   UNL     1     -10.958  15.237  69.600  1.00  0.00    -0.291 A  
HETATM    6  C   UNL     1     -11.917  14.216  69.659  1.00  0.00    -0.389 A  
HETATM    7  C   UNL     1     -12.908  14.232  70.643  1.00  0.00    -0.378 A  
ENDROOT
BRANCH   5   8
HETATM    8  C   UNL     1      -9.922  15.257  68.501  1.00  0.00    -0.222 C  
BRANCH   8   9
HETATM    9  O   UNL     1     -10.357  16.128  67.466  1.00  0.00    -0.273 OA 
BRANCH   9  10
HETATM   10  C   UNL     1      -9.503  16.204  66.302  1.00  0.00    -0.316 C  
BRANCH  10  11
HETATM   11  C   UNL     1      -8.646  17.478  66.402  1.00  0.00    -0.273 A  
HETATM   12  C   UNL     1      -6.976  19.765  66.560  1.00  0.00    -0.220 A  
HETATM   13  C   UNL     1      -9.147  18.728  66.823  1.00  0.00    -0.312 A  
HETATM   14  C   UNL     1      -7.286  17.437  66.019  1.00  0.00    -0.269 A  
HETATM   15  C   UNL     1      -8.312  19.852  66.930  1.00  0.00    -0.366 A  
HETATM   16 CL   UNL     1      -5.966  21.153  66.661  1.00  0.00    -0.317 Cl 
HETATM   17 CL   UNL     1     -10.816  18.999  67.182  1.00  0.00    -0.526 Cl 
HETATM   18  C   UNL     1      -6.462  18.567  66.088  1.00  0.00    -0.256 A  
ENDBRANCH  10  11
BRANCH  10  19
HETATM   19  C   UNL     1     -10.341  16.057  65.006  1.00  0.00    -0.106 C  
BRANCH  19  20
HETATM   20  N   UNL     1     -10.945  14.752  64.835  1.00  0.00    -0.404 NA 
HETATM   21  C   UNL     1     -12.283  14.469  64.870  1.00  0.00    -0.402 A  
HETATM   22  N   UNL     1     -11.115  12.579  64.467  1.00  0.00    -0.300 NA 
HETATM   23  C   UNL     1     -12.358  13.108  64.689  1.00  0.00    -0.405 A  
HETATM   24  C   UNL     1     -10.287  13.597  64.535  1.00  0.00    -0.330 A  
ENDBRANCH  19  20
ENDBRANCH  10  19
ENDBRANCH   9  10
ENDBRANCH   8   9
ENDBRANCH   5   8
TORSDOF 6
ENDMDL
MODEL       66
REMARK 921   NORMALIZED FREE ENERGY PREDICTED BY IDOCK:   -5.30 KCAL/MOL
REMARK 922        TOTAL FREE ENERGY PREDICTED BY IDOCK:   -8.29 KCAL/MOL
REMARK 923 INTER-LIGAND FREE ENERGY PREDICTED BY IDOCK:   -6.91 KCAL/MOL
REMARK 924 INTRA-LIGAND FREE ENERGY PREDICTED BY IDOCK:   -1.37 KCAL/MOL
REMARK 927      BINDING AFFINITY PREDICTED BY RF-SCORE:    0.00 PKD
ROOT
HETATM    1 CL   UNL     1      -9.882   4.144  66.746  1.00  0.00    -0.237 Cl 
HETATM    2  C   UNL     1      -9.813   5.858  66.610  1.00  0.00    -0.163 A  
HETATM    3  C   UNL     1      -8.753   6.459  65.937  1.00  0.00    -0.152 A  
HETATM    4  C   UNL     1      -8.694   7.852  65.841  1.00  0.00    -0.180 A  
HETATM    5  C   UNL     1      -9.694   8.652  66.417  1.00  0.00    -0.333 A  
HETATM    6  C   UNL     1     -10.757   8.030  67.088  1.00  0.00    -0.285 A  
HETATM    7  C   UNL     1     -10.816   6.637  67.180  1.00  0.00    -0.471 A  
ENDROOT
BRANCH   5   8
HETATM    8  C   UNL     1      -9.593  10.159  66.367  1.00  0.00    -0.191 C  
BRANCH   8   9
HETATM    9  O   UNL     1     -10.609  10.722  67.187  1.00  0.00    -0.227 OA 
BRANCH   9  10
HETATM   10  C   UNL     1     -10.158  11.377  68.394  1.00  0.00    -0.201 C  
BRANCH  10  11
HETATM   11  C   UNL     1     -10.396  10.432  69.585  1.00  0.00    -0.261 A  
HETATM   12  C   UNL     1     -10.936   8.734  71.791  1.00  0.00    -0.345 A  
HETATM   13  C   UNL     1      -9.400   9.596  70.133  1.00  0.00    -0.251 A  
HETATM   14  C   UNL     1     -11.684  10.342  70.160  1.00  0.00    -0.394 A  
HETATM   15  C   UNL     1      -9.660   8.779  71.244  1.00  0.00    -0.323 A  
HETATM   16 CL   UNL     1     -11.259   7.705  73.131  1.00  0.00    -0.403 Cl 
HETATM   17 CL   UNL     1      -7.813   9.461  69.460  1.00  0.00    -0.084 Cl 
HETATM   18  C   UNL     1     -11.955   9.499  71.243  1.00  0.00    -0.445 A  
ENDBRANCH  10  11
BRANCH  10  19
HETATM   19  C   UNL     1     -10.794  12.785  68.516  1.00  0.00    -0.253 C  
BRANCH  19  20
HETATM   20  N   UNL     1     -10.816  13.535  67.277  1.00  0.00    -0.274 NA 
HETATM   21  C   UNL     1      -9.730  14.049  66.624  1.00  0.00    -0.289 A  
HETATM   22  N   UNL     1     -11.609  14.516  65.463  1.00  0.00    -0.347 NA 
HETATM   23  C   UNL     1     -10.253  14.695  65.528  1.00  0.00    -0.370 A  
HETATM   24  C   UNL     1     -11.916  13.793  66.515  1.00  0.00    -0.434 A  
ENDBRANCH  19  20
ENDBRANCH  10  19
ENDBRANCH   9  10
ENDBRANCH   8   9
ENDBRANCH   5   8
TORSDOF 6
ENDMDL
MODEL       67
REMARK 921   NORMALIZED FREE ENERGY PREDICTED BY IDOCK:   -5.29 KCAL/MOL
REMARK 922        TOTAL FREE ENERGY PREDICTED BY IDOCK:   -8.27 KCAL/MOL
REMARK 923 INTER-LIGAND FREE ENERGY PREDICTED BY IDOCK:   -7.57 KCAL/MOL
REMARK 924 INTRA-LIGAND FREE ENERGY PREDICTED BY IDOCK:   -0.70 KCAL/MOL
REMARK 927      BINDING AFFINITY PREDICTED BY RF-SCORE:    0.00 PKD
ROOT
HETATM    1 CL   UNL     1     -12.439  16.600  74.032  1.00  0.00    -0.462 Cl 
HETATM    2  C   UNL     1     -12.371  15.404  72.798  1.00  0.00    -0.407 A  
HETATM    3  C   UNL     1     -11.708  15.674  71.604  1.00  0.00    -0.521 A  
HETATM    4  C   UNL     1     -11.667  14.703  70.599  1.00  0.00    -0.339 A  
HETATM    5  C   UNL     1     -12.290  13.457  70.782  1.00  0.00    -0.433 A  
HETATM    6  C   UNL     1     -12.949  13.200  71.992  1.00  0.00    -0.401 A  
HETATM    7  C   UNL     1     -12.986  14.170  72.996  1.00  0.00    -0.432 A  
ENDROOT
BRANCH   5   8
HETATM    8  C   UNL     1     -12.299  12.436  69.668  1.00  0.00     0.021 C  
BRANCH   8   9
HETATM    9  O   UNL     1     -11.397  12.848  68.650  1.00  0.00    -0.249 OA 
BRANCH   9  10
HETATM   10  C   UNL     1     -11.930  12.881  67.307  1.00  0.00    -0.309 C  
BRANCH  10  11
HETATM   11  C   UNL     1     -11.004  12.062  66.390  1.00  0.00    -0.337 A  
HETATM   12  C   UNL     1      -9.219  10.558  64.779  1.00  0.00    -0.227 A  
HETATM   13  C   UNL     1     -11.322  11.722  65.058  1.00  0.00    -0.225 A  
HETATM   14  C   UNL     1      -9.775  11.575  66.892  1.00  0.00    -0.205 A  
HETATM   15  C   UNL     1     -10.424  11.004  64.252  1.00  0.00    -0.427 A  
HETATM   16 CL   UNL     1      -8.138   9.649  63.797  1.00  0.00    -0.137 Cl 
HETATM   17 CL   UNL     1     -12.843  12.101  64.329  1.00  0.00    -0.417 Cl 
HETATM   18  C   UNL     1      -8.897  10.825  66.101  1.00  0.00    -0.187 A  
ENDBRANCH  10  11
BRANCH  10  19
HETATM   19  C   UNL     1     -12.194  14.342  66.864  1.00  0.00    -0.267 C  
BRANCH  19  20
HETATM   20  N   UNL     1     -10.993  15.118  66.630  1.00  0.00    -0.320 NA 
HETATM   21  C   UNL     1     -10.009  15.380  67.543  1.00  0.00    -0.226 A  
HETATM   22  N   UNL     1      -9.478  16.319  65.559  1.00  0.00    -0.423 NA 
HETATM   23  C   UNL     1      -9.106  16.167  66.868  1.00  0.00    -0.218 A  
HETATM   24  C   UNL     1     -10.605  15.654  65.439  1.00  0.00    -0.415 A  
ENDBRANCH  19  20
ENDBRANCH  10  19
ENDBRANCH   9  10
ENDBRANCH   8   9
ENDBRANCH   5   8
TORSDOF 6
ENDMDL
MODEL       68
REMARK 921   NORMALIZED FREE ENERGY PREDICTED BY IDOCK:   -5.28 KCAL/MOL
REMARK 922        TOTAL FREE ENERGY PREDICTED BY IDOCK:   -8.26 KCAL/MOL
REMARK 923 INTER-LIGAND FREE ENERGY PREDICTED BY IDOCK:   -7.51 KCAL/MOL
REMARK 924 INTRA-LIGAND FREE ENERGY PREDICTED BY IDOCK:   -0.75 KCAL/MOL
REMARK 927      BINDING AFFINITY PREDICTED BY RF-SCORE:    0.00 PKD
ROOT
HETATM    1 CL   UNL     1      -7.519   6.805  64.663  1.00  0.00    -0.090 Cl 
HETATM    2  C   UNL     1      -8.611   7.854  65.478  1.00  0.00    -0.116 A  
HETATM    3  C   UNL     1      -8.684   9.197  65.120  1.00  0.00    -0.228 A  
HETATM    4  C   UNL     1      -9.565  10.048  65.794  1.00  0.00    -0.291 A  
HETATM    5  C   UNL     1     -10.376   9.560  66.832  1.00  0.00    -0.307 A  
HETATM    6  C   UNL     1     -10.293   8.204  67.177  1.00  0.00    -0.391 A  
HETATM    7  C   UNL     1      -9.416   7.354  66.500  1.00  0.00    -0.229 A  
ENDROOT
BRANCH   5   8
HETATM    8  C   UNL     1     -11.278  10.497  67.602  1.00  0.00    -0.265 C  
BRANCH   8   9
HETATM    9  O   UNL     1     -10.646  10.852  68.825  1.00  0.00    -0.179 OA 
BRANCH   9  10
HETATM   10  C   UNL     1     -11.330  10.447  70.032  1.00  0.00    -0.313 C  
BRANCH  10  11
HETATM   11  C   UNL     1     -12.038  11.674  70.633  1.00  0.00    -0.432 A  
HETATM   12  C   UNL     1     -13.281  14.001  71.672  1.00  0.00    -0.368 A  
HETATM   13  C   UNL     1     -12.934  11.607  71.720  1.00  0.00    -0.377 A  
HETATM   14  C   UNL     1     -11.830  12.950  70.061  1.00  0.00    -0.356 A  
HETATM   15  C   UNL     1     -13.525  12.763  72.253  1.00  0.00    -0.591 A  
HETATM   16 CL   UNL     1     -14.035  15.411  72.308  1.00  0.00    -0.618 Cl 
HETATM   17 CL   UNL     1     -13.423  10.115  72.444  1.00  0.00    -0.323 Cl 
HETATM   18  C   UNL     1     -12.449  14.099  70.567  1.00  0.00    -0.431 A  
ENDBRANCH  10  11
BRANCH  10  19
HETATM   19  C   UNL     1     -10.358   9.700  70.980  1.00  0.00    -0.222 C  
BRANCH  19  20
HETATM   20  N   UNL     1     -10.836   8.406  71.421  1.00  0.00    -0.232 NA 
HETATM   21  C   UNL     1     -11.595   7.533  70.691  1.00  0.00    -0.248 A  
HETATM   22  N   UNL     1     -11.152   6.646  72.720  1.00  0.00    -0.257 NA 
HETATM   23  C   UNL     1     -11.818   6.472  71.537  1.00  0.00    -0.333 A  
HETATM   24  C   UNL     1     -10.549   7.808  72.612  1.00  0.00    -0.317 A  
ENDBRANCH  19  20
ENDBRANCH  10  19
ENDBRANCH   9  10
ENDBRANCH   8   9
ENDBRANCH   5   8
TORSDOF 6
ENDMDL
MODEL       69
REMARK 921   NORMALIZED FREE ENERGY PREDICTED BY IDOCK:   -5.28 KCAL/MOL
REMARK 922        TOTAL FREE ENERGY PREDICTED BY IDOCK:   -8.26 KCAL/MOL
REMARK 923 INTER-LIGAND FREE ENERGY PREDICTED BY IDOCK:   -7.36 KCAL/MOL
REMARK 924 INTRA-LIGAND FREE ENERGY PREDICTED BY IDOCK:   -0.89 KCAL/MOL
REMARK 927      BINDING AFFINITY PREDICTED BY RF-SCORE:    0.00 PKD
ROOT
HETATM    1 CL   UNL     1      -8.470  19.158  67.736  1.00  0.00    -0.324 Cl 
HETATM    2  C   UNL     1      -9.259  17.692  68.170  1.00  0.00    -0.282 A  
HETATM    3  C   UNL     1     -10.635  17.567  67.997  1.00  0.00    -0.384 A  
HETATM    4  C   UNL     1     -11.274  16.378  68.363  1.00  0.00    -0.324 A  
HETATM    5  C   UNL     1     -10.541  15.310  68.906  1.00  0.00    -0.242 A  
HETATM    6  C   UNL     1      -9.156  15.452  69.070  1.00  0.00    -0.233 A  
HETATM    7  C   UNL     1      -8.519  16.639  68.700  1.00  0.00    -0.253 A  
ENDROOT
BRANCH   5   8
HETATM    8  C   UNL     1     -11.245  14.053  69.362  1.00  0.00    -0.237 C  
BRANCH   8   9
HETATM    9  O   UNL     1     -10.553  12.921  68.853  1.00  0.00    -0.213 OA 
BRANCH   9  10
HETATM   10  C   UNL     1     -11.363  11.759  68.567  1.00  0.00    -0.273 C  
BRANCH  10  11
HETATM   11  C   UNL     1     -11.015  10.654  69.579  1.00  0.00    -0.321 A  
HETATM   12  C   UNL     1     -10.302   8.574  71.370  1.00  0.00    -0.239 A  
HETATM   13  C   UNL     1     -11.672  10.490  70.817  1.00  0.00    -0.356 A  
HETATM   14  C   UNL     1      -9.955   9.760  69.302  1.00  0.00    -0.201 A  
HETATM   15  C   UNL     1     -11.338   9.442  71.689  1.00  0.00    -0.452 A  
HETATM   16 CL   UNL     1      -9.874   7.312  72.458  1.00  0.00    -0.183 Cl 
HETATM   17 CL   UNL     1     -12.885  11.581  71.388  1.00  0.00    -0.520 Cl 
HETATM   18  C   UNL     1      -9.596   8.739  70.188  1.00  0.00    -0.187 A  
ENDBRANCH  10  11
BRANCH  10  19
HETATM   19  C   UNL     1     -11.237  11.366  67.073  1.00  0.00    -0.283 C  
BRANCH  19  20
HETATM   20  N   UNL     1     -11.311  12.485  66.156  1.00  0.00    -0.324 NA 
HETATM   21  C   UNL     1     -12.401  13.284  65.942  1.00  0.00    -0.418 A  
HETATM   22  N   UNL     1     -10.678  13.984  64.661  1.00  0.00    -0.415 NA 
HETATM   23  C   UNL     1     -11.997  14.174  64.975  1.00  0.00    -0.408 A  
HETATM   24  C   UNL     1     -10.285  12.976  65.407  1.00  0.00    -0.288 A  
ENDBRANCH  19  20
ENDBRANCH  10  19
ENDBRANCH   9  10
ENDBRANCH   8   9
ENDBRANCH   5   8
TORSDOF 6
ENDMDL
MODEL       70
REMARK 921   NORMALIZED FREE ENERGY PREDICTED BY IDOCK:   -5.25 KCAL/MOL
REMARK 922        TOTAL FREE ENERGY PREDICTED BY IDOCK:   -8.22 KCAL/MOL
REMARK 923 INTER-LIGAND FREE ENERGY PREDICTED BY IDOCK:   -7.31 KCAL/MOL
REMARK 924 INTRA-LIGAND FREE ENERGY PREDICTED BY IDOCK:   -0.91 KCAL/MOL
REMARK 927      BINDING AFFINITY PREDICTED BY RF-SCORE:    0.00 PKD
ROOT
HETATM    1 CL   UNL     1     -11.837  15.742  69.040  1.00  0.00    -0.401 Cl 
HETATM    2  C   UNL     1     -12.132  14.235  69.816  1.00  0.00    -0.347 A  
HETATM    3  C   UNL     1     -11.764  13.048  69.190  1.00  0.00    -0.378 A  
HETATM    4  C   UNL     1     -12.018  11.825  69.819  1.00  0.00    -0.392 A  
HETATM    5  C   UNL     1     -12.641  11.783  71.077  1.00  0.00    -0.409 A  
HETATM    6  C   UNL     1     -13.000  12.989  71.695  1.00  0.00    -0.417 A  
HETATM    7  C   UNL     1     -12.743  14.210  71.067  1.00  0.00    -0.433 A  
ENDROOT
BRANCH   5   8
HETATM    8  C   UNL     1     -12.972  10.459  71.723  1.00  0.00    -0.475 C  
BRANCH   8   9
HETATM    9  O   UNL     1     -12.194   9.436  71.115  1.00  0.00    -0.306 OA 
BRANCH   9  10
HETATM   10  C   UNL     1     -11.462   8.576  72.016  1.00  0.00    -0.361 C  
BRANCH  10  11
HETATM   11  C   UNL     1      -9.957   8.744  71.744  1.00  0.00    -0.396 A  
HETATM   12  C   UNL     1      -7.208   9.097  71.142  1.00  0.00    -0.073 A  
HETATM   13  C   UNL     1      -8.947   8.255  72.599  1.00  0.00    -0.246 A  
HETATM   14  C   UNL     1      -9.529   9.457  70.601  1.00  0.00    -0.325 A  
HETATM   15  C   UNL     1      -7.587   8.404  72.285  1.00  0.00    -0.146 A  
HETATM   16 CL   UNL     1      -5.540   9.307  70.779  1.00  0.00    -0.035 Cl 
HETATM   17 CL   UNL     1      -9.285   7.495  74.115  1.00  0.00    -0.268 Cl 
HETATM   18  C   UNL     1      -8.173   9.640  70.307  1.00  0.00    -0.217 A  
ENDBRANCH  10  11
BRANCH  10  19
HETATM   19  C   UNL     1     -12.002   7.125  71.938  1.00  0.00    -0.307 C  
BRANCH  19  20
HETATM   20  N   UNL     1     -11.297   6.280  70.996  1.00  0.00    -0.318 NA 
HETATM   21  C   UNL     1     -11.293   6.415  69.635  1.00  0.00    -0.412 A  
HETATM   22  N   UNL     1      -9.994   4.667  70.232  1.00  0.00    -0.241 NA 
HETATM   23  C   UNL     1     -10.518   5.374  69.182  1.00  0.00    -0.207 A  
HETATM   24  C   UNL     1     -10.461   5.251  71.312  1.00  0.00    -0.204 A  
ENDBRANCH  19  20
ENDBRANCH  10  19
ENDBRANCH   9  10
ENDBRANCH   8   9
ENDBRANCH   5   8
TORSDOF 6
ENDMDL
MODEL       71
REMARK 921   NORMALIZED FREE ENERGY PREDICTED BY IDOCK:   -5.25 KCAL/MOL
REMARK 922        TOTAL FREE ENERGY PREDICTED BY IDOCK:   -8.22 KCAL/MOL
REMARK 923 INTER-LIGAND FREE ENERGY PREDICTED BY IDOCK:   -7.67 KCAL/MOL
REMARK 924 INTRA-LIGAND FREE ENERGY PREDICTED BY IDOCK:   -0.55 KCAL/MOL
REMARK 927      BINDING AFFINITY PREDICTED BY RF-SCORE:    0.00 PKD
ROOT
HETATM    1 CL   UNL     1     -13.732  15.965  72.938  1.00  0.00    -0.658 Cl 
HETATM    2  C   UNL     1     -13.280  14.555  72.062  1.00  0.00    -0.362 A  
HETATM    3  C   UNL     1     -13.656  13.298  72.528  1.00  0.00    -0.637 A  
HETATM    4  C   UNL     1     -13.275  12.154  71.820  1.00  0.00    -0.423 A  
HETATM    5  C   UNL     1     -12.515  12.261  70.643  1.00  0.00    -0.323 A  
HETATM    6  C   UNL     1     -12.149  13.535  70.186  1.00  0.00    -0.425 A  
HETATM    7  C   UNL     1     -12.534  14.677  70.893  1.00  0.00    -0.406 A  
ENDROOT
BRANCH   5   8
HETATM    8  C   UNL     1     -12.050  11.020  69.917  1.00  0.00    -0.361 C  
BRANCH   8   9
HETATM    9  O   UNL     1     -10.804  11.288  69.287  1.00  0.00    -0.225 OA 
BRANCH   9  10
HETATM   10  C   UNL     1     -10.048  10.132  68.864  1.00  0.00    -0.200 C  
BRANCH  10  11
HETATM   11  C   UNL     1      -9.918  10.161  67.331  1.00  0.00    -0.238 A  
HETATM   12  C   UNL     1      -9.760  10.294  64.503  1.00  0.00    -0.329 A  
HETATM   13  C   UNL     1      -9.103   9.275  66.596  1.00  0.00    -0.143 A  
HETATM   14  C   UNL     1     -10.612  11.145  66.590  1.00  0.00    -0.314 A  
HETATM   15  C   UNL     1      -9.049   9.322  65.194  1.00  0.00    -0.263 A  
HETATM   16 CL   UNL     1      -9.664  10.369  62.787  1.00  0.00    -0.307 Cl 
HETATM   17 CL   UNL     1      -8.068   8.111  67.346  1.00  0.00    -0.120 Cl 
HETATM   18  C   UNL     1     -10.529  11.218  65.195  1.00  0.00    -0.351 A  
ENDBRANCH  10  11
BRANCH  10  19
HETATM   19  C   UNL     1     -10.656   8.838  69.462  1.00  0.00    -0.219 C  
BRANCH  19  20
HETATM   20  N   UNL     1     -10.241   8.560  70.822  1.00  0.00    -0.192 NA 
HETATM   21  C   UNL     1     -10.954   7.864  71.759  1.00  0.00    -0.243 A  
HETATM   22  N   UNL     1      -8.975   8.512  72.633  1.00  0.00    -0.347 NA 
HETATM   23  C   UNL     1     -10.169   7.891  72.887  1.00  0.00    -0.330 A  
HETATM   24  C   UNL     1      -9.037   8.882  71.374  1.00  0.00    -0.248 A  
ENDBRANCH  19  20
ENDBRANCH  10  19
ENDBRANCH   9  10
ENDBRANCH   8   9
ENDBRANCH   5   8
TORSDOF 6
ENDMDL
MODEL       72
REMARK 921   NORMALIZED FREE ENERGY PREDICTED BY IDOCK:   -5.24 KCAL/MOL
REMARK 922        TOTAL FREE ENERGY PREDICTED BY IDOCK:   -8.20 KCAL/MOL
REMARK 923 INTER-LIGAND FREE ENERGY PREDICTED BY IDOCK:   -7.51 KCAL/MOL
REMARK 924 INTRA-LIGAND FREE ENERGY PREDICTED BY IDOCK:   -0.69 KCAL/MOL
REMARK 927      BINDING AFFINITY PREDICTED BY RF-SCORE:    0.00 PKD
ROOT
HETATM    1 CL   UNL     1     -13.869  15.689  72.615  1.00  0.00    -0.659 Cl 
HETATM    2  C   UNL     1     -13.349  14.250  71.829  1.00  0.00    -0.371 A  
HETATM    3  C   UNL     1     -13.649  13.008  72.384  1.00  0.00    -0.628 A  
HETATM    4  C   UNL     1     -13.213  11.842  71.748  1.00  0.00    -0.426 A  
HETATM    5  C   UNL     1     -12.473  11.911  70.556  1.00  0.00    -0.301 A  
HETATM    6  C   UNL     1     -12.184  13.169  70.009  1.00  0.00    -0.323 A  
HETATM    7  C   UNL     1     -12.624  14.333  70.643  1.00  0.00    -0.424 A  
ENDROOT
BRANCH   5   8
HETATM    8  C   UNL     1     -11.948  10.651  69.909  1.00  0.00    -0.310 C  
BRANCH   8   9
HETATM    9  O   UNL     1     -10.557  10.534  70.176  1.00  0.00    -0.246 OA 
BRANCH   9  10
HETATM   10  C   UNL     1     -10.110   9.247  70.657  1.00  0.00    -0.276 C  
BRANCH  10  11
HETATM   11  C   UNL     1     -10.221   8.227  69.510  1.00  0.00    -0.210 A  
HETATM   12  C   UNL     1     -10.479   6.279  67.466  1.00  0.00    -0.236 A  
HETATM   13  C   UNL     1      -9.608   8.395  68.250  1.00  0.00    -0.144 A  
HETATM   14  C   UNL     1     -11.007   7.064  69.682  1.00  0.00    -0.268 A  
HETATM   15  C   UNL     1      -9.712   7.416  67.250  1.00  0.00    -0.205 A  
HETATM   16 CL   UNL     1     -10.631   5.098  66.224  1.00  0.00    -0.351 Cl 
HETATM   17 CL   UNL     1      -8.740   9.824  67.811  1.00  0.00    -0.129 Cl 
HETATM   18  C   UNL     1     -11.142   6.106  68.671  1.00  0.00    -0.378 A  
ENDBRANCH  10  11
BRANCH  10  19
HETATM   19  C   UNL     1     -10.852   8.870  71.965  1.00  0.00    -0.334 C  
BRANCH  19  20
HETATM   20  N   UNL     1     -10.069   8.067  72.881  1.00  0.00    -0.303 NA 
HETATM   21  C   UNL     1     -10.509   6.976  73.579  1.00  0.00    -0.375 A  
HETATM   22  N   UNL     1      -8.330   7.346  74.038  1.00  0.00    -0.161 NA 
HETATM   23  C   UNL     1      -9.426   6.578  74.326  1.00  0.00    -0.232 A  
HETATM   24  C   UNL     1      -8.741   8.218  73.146  1.00  0.00    -0.221 A  
ENDBRANCH  19  20
ENDBRANCH  10  19
ENDBRANCH   9  10
ENDBRANCH   8   9
ENDBRANCH   5   8
TORSDOF 6
ENDMDL
MODEL       73
REMARK 921   NORMALIZED FREE ENERGY PREDICTED BY IDOCK:   -5.21 KCAL/MOL
REMARK 922        TOTAL FREE ENERGY PREDICTED BY IDOCK:   -8.16 KCAL/MOL
REMARK 923 INTER-LIGAND FREE ENERGY PREDICTED BY IDOCK:   -7.80 KCAL/MOL
REMARK 924 INTRA-LIGAND FREE ENERGY PREDICTED BY IDOCK:   -0.36 KCAL/MOL
REMARK 927      BINDING AFFINITY PREDICTED BY RF-SCORE:    0.00 PKD
ROOT
HETATM    1 CL   UNL     1     -13.970  15.179  72.629  1.00  0.00    -0.551 Cl 
HETATM    2  C   UNL     1     -13.268  13.899  71.720  1.00  0.00    -0.376 A  
HETATM    3  C   UNL     1     -12.521  14.185  70.580  1.00  0.00    -0.432 A  
HETATM    4  C   UNL     1     -11.964  13.140  69.837  1.00  0.00    -0.387 A  
HETATM    5  C   UNL     1     -12.151  11.804  70.229  1.00  0.00    -0.426 A  
HETATM    6  C   UNL     1     -12.902  11.535  71.382  1.00  0.00    -0.489 A  
HETATM    7  C   UNL     1     -13.455  12.580  72.125  1.00  0.00    -0.523 A  
ENDROOT
BRANCH   5   8
HETATM    8  C   UNL     1     -11.602  10.676  69.387  1.00  0.00    -0.280 C  
BRANCH   8   9
HETATM    9  O   UNL     1     -11.871  10.943  68.017  1.00  0.00    -0.585 OA 
BRANCH   9  10
HETATM   10  C   UNL     1     -10.720  11.007  67.146  1.00  0.00    -0.265 C  
BRANCH  10  11
HETATM   11  C   UNL     1      -9.571  10.211  67.789  1.00  0.00    -0.168 A  
HETATM   12  C   UNL     1      -7.401   8.841  68.995  1.00  0.00    -0.073 A  
HETATM   13  C   UNL     1      -9.497   8.802  67.788  1.00  0.00    -0.142 A  
HETATM   14  C   UNL     1      -8.535  10.899  68.462  1.00  0.00    -0.147 A  
HETATM   15  C   UNL     1      -8.407   8.126  68.358  1.00  0.00    -0.126 A  
HETATM   16 CL   UNL     1      -6.084   8.006  69.723  1.00  0.00    -0.029 Cl 
HETATM   17 CL   UNL     1     -10.749   7.796  67.147  1.00  0.00    -0.391 Cl 
HETATM   18  C   UNL     1      -7.468  10.224  69.065  1.00  0.00    -0.097 A  
ENDBRANCH  10  11
BRANCH  10  19
HETATM   19  C   UNL     1     -10.397  12.479  66.782  1.00  0.00    -0.226 C  
BRANCH  19  20
HETATM   20  N   UNL     1     -11.278  13.051  65.785  1.00  0.00    -0.285 NA 
HETATM   21  C   UNL     1     -11.254  14.340  65.329  1.00  0.00    -0.337 A  
HETATM   22  N   UNL     1     -12.877  13.186  64.266  1.00  0.00    -0.664 NA 
HETATM   23  C   UNL     1     -12.287  14.411  64.424  1.00  0.00    -0.403 A  
HETATM   24  C   UNL     1     -12.232  12.381  65.079  1.00  0.00    -0.399 A  
ENDBRANCH  19  20
ENDBRANCH  10  19
ENDBRANCH   9  10
ENDBRANCH   8   9
ENDBRANCH   5   8
TORSDOF 6
ENDMDL
MODEL       74
REMARK 921   NORMALIZED FREE ENERGY PREDICTED BY IDOCK:   -5.16 KCAL/MOL
REMARK 922        TOTAL FREE ENERGY PREDICTED BY IDOCK:   -8.10 KCAL/MOL
REMARK 923 INTER-LIGAND FREE ENERGY PREDICTED BY IDOCK:   -7.24 KCAL/MOL
REMARK 924 INTRA-LIGAND FREE ENERGY PREDICTED BY IDOCK:   -0.86 KCAL/MOL
REMARK 927      BINDING AFFINITY PREDICTED BY RF-SCORE:    0.00 PKD
ROOT
HETATM    1 CL   UNL     1     -12.137  14.068  63.998  1.00  0.00    -0.469 Cl 
HETATM    2  C   UNL     1     -11.974  13.437  65.590  1.00  0.00    -0.401 A  
HETATM    3  C   UNL     1     -12.218  14.255  66.690  1.00  0.00    -0.411 A  
HETATM    4  C   UNL     1     -12.071  13.741  67.982  1.00  0.00    -0.315 A  
HETATM    5  C   UNL     1     -11.678  12.407  68.181  1.00  0.00    -0.408 A  
HETATM    6  C   UNL     1     -11.440  11.596  67.062  1.00  0.00    -0.336 A  
HETATM    7  C   UNL     1     -11.591  12.110  65.772  1.00  0.00    -0.414 A  
ENDROOT
BRANCH   5   8
HETATM    8  C   UNL     1     -11.457  11.875  69.578  1.00  0.00    -0.288 C  
BRANCH   8   9
HETATM    9  O   UNL     1     -11.535  10.456  69.554  1.00  0.00    -0.246 OA 
BRANCH   9  10
HETATM   10  C   UNL     1     -10.422   9.750  70.146  1.00  0.00    -0.286 C  
BRANCH  10  11
HETATM   11  C   UNL     1      -9.916   8.698  69.143  1.00  0.00    -0.193 A  
HETATM   12  C   UNL     1      -9.079   6.772  67.237  1.00  0.00    -0.119 A  
HETATM   13  C   UNL     1      -8.738   7.944  69.326  1.00  0.00    -0.138 A  
HETATM   14  C   UNL     1     -10.629   8.478  67.942  1.00  0.00    -0.219 A  
HETATM   15  C   UNL     1      -8.341   6.970  68.396  1.00  0.00    -0.124 A  
HETATM   16 CL   UNL     1      -8.570   5.601  66.084  1.00  0.00    -0.127 Cl 
HETATM   17 CL   UNL     1      -7.663   8.189  70.658  1.00  0.00    -0.082 Cl 
HETATM   18  C   UNL     1     -10.213   7.534  66.996  1.00  0.00    -0.368 A  
ENDBRANCH  10  11
BRANCH  10  19
HETATM   19  C   UNL     1     -10.805   9.213  71.548  1.00  0.00    -0.366 C  
BRANCH  19  20
HETATM   20  N   UNL     1     -12.174   8.754  71.654  1.00  0.00    -0.319 NA 
HETATM   21  C   UNL     1     -13.237   9.481  72.116  1.00  0.00    -0.451 A  
HETATM   22  N   UNL     1     -13.932   7.424  71.496  1.00  0.00    -0.421 NA 
HETATM   23  C   UNL     1     -14.305   8.617  72.054  1.00  0.00    -0.422 A  
HETATM   24  C   UNL     1     -12.649   7.545  71.241  1.00  0.00    -0.314 A  
ENDBRANCH  19  20
ENDBRANCH  10  19
ENDBRANCH   9  10
ENDBRANCH   8   9
ENDBRANCH   5   8
TORSDOF 6
ENDMDL
MODEL       75
REMARK 921   NORMALIZED FREE ENERGY PREDICTED BY IDOCK:   -5.14 KCAL/MOL
REMARK 922        TOTAL FREE ENERGY PREDICTED BY IDOCK:   -8.07 KCAL/MOL
REMARK 923 INTER-LIGAND FREE ENERGY PREDICTED BY IDOCK:   -7.29 KCAL/MOL
REMARK 924 INTRA-LIGAND FREE ENERGY PREDICTED BY IDOCK:   -0.79 KCAL/MOL
REMARK 927      BINDING AFFINITY PREDICTED BY RF-SCORE:    0.00 PKD
ROOT
HETATM    1 CL   UNL     1      -6.906  19.794  69.405  1.00  0.00    -0.382 Cl 
HETATM    2  C   UNL     1      -7.892  18.871  68.339  1.00  0.00    -0.325 A  
HETATM    3  C   UNL     1      -7.306  18.129  67.318  1.00  0.00    -0.219 A  
HETATM    4  C   UNL     1      -8.113  17.391  66.446  1.00  0.00    -0.315 A  
HETATM    5  C   UNL     1      -9.510  17.393  66.591  1.00  0.00    -0.285 A  
HETATM    6  C   UNL     1     -10.083  18.143  67.627  1.00  0.00    -0.367 A  
HETATM    7  C   UNL     1      -9.276  18.876  68.499  1.00  0.00    -0.404 A  
ENDROOT
BRANCH   5   8
HETATM    8  C   UNL     1     -10.382  16.648  65.607  1.00  0.00    -0.290 C  
BRANCH   8   9
HETATM    9  O   UNL     1      -9.873  15.331  65.438  1.00  0.00    -0.332 OA 
BRANCH   9  10
HETATM   10  C   UNL     1     -10.223  14.380  66.468  1.00  0.00    -0.274 C  
BRANCH  10  11
HETATM   11  C   UNL     1      -9.849  12.968  65.983  1.00  0.00    -0.259 A  
HETATM   12  C   UNL     1      -9.081  10.362  65.169  1.00  0.00    -0.198 A  
HETATM   13  C   UNL     1     -10.405  12.360  64.837  1.00  0.00    -0.293 A  
HETATM   14  C   UNL     1      -8.930  12.194  66.728  1.00  0.00    -0.203 A  
HETATM   15  C   UNL     1     -10.001  11.083  64.419  1.00  0.00    -0.368 A  
HETATM   16 CL   UNL     1      -8.616   8.783  64.670  1.00  0.00    -0.170 Cl 
HETATM   17 CL   UNL     1     -11.654  13.096  63.896  1.00  0.00    -0.474 Cl 
HETATM   18  C   UNL     1      -8.556  10.905  66.332  1.00  0.00    -0.160 A  
ENDBRANCH  10  11
BRANCH  10  19
HETATM   19  C   UNL     1     -11.699  14.572  66.903  1.00  0.00    -0.382 C  
BRANCH  19  20
HETATM   20  N   UNL     1     -11.911  14.493  68.333  1.00  0.00    -0.328 NA 
HETATM   21  C   UNL     1     -11.988  15.549  69.199  1.00  0.00    -0.309 A  
HETATM   22  N   UNL     1     -12.273  13.616  70.329  1.00  0.00    -0.349 NA 
HETATM   23  C   UNL     1     -12.164  14.976  70.436  1.00  0.00    -0.341 A  
HETATM   24  C   UNL     1     -12.142  13.356  69.048  1.00  0.00    -0.259 A  
ENDBRANCH  19  20
ENDBRANCH  10  19
ENDBRANCH   9  10
ENDBRANCH   8   9
ENDBRANCH   5   8
TORSDOF 6
ENDMDL
MODEL       76
REMARK 921   NORMALIZED FREE ENERGY PREDICTED BY IDOCK:   -5.13 KCAL/MOL
REMARK 922        TOTAL FREE ENERGY PREDICTED BY IDOCK:   -8.06 KCAL/MOL
REMARK 923 INTER-LIGAND FREE ENERGY PREDICTED BY IDOCK:   -7.14 KCAL/MOL
REMARK 924 INTRA-LIGAND FREE ENERGY PREDICTED BY IDOCK:   -0.92 KCAL/MOL
REMARK 927      BINDING AFFINITY PREDICTED BY RF-SCORE:    0.00 PKD
ROOT
HETATM    1 CL   UNL     1     -10.629   8.983  67.826  1.00  0.00    -0.299 Cl 
HETATM    2  C   UNL     1     -10.897  10.569  67.217  1.00  0.00    -0.279 A  
HETATM    3  C   UNL     1     -10.367  10.938  65.984  1.00  0.00    -0.304 A  
HETATM    4  C   UNL     1     -10.576  12.233  65.499  1.00  0.00    -0.304 A  
HETATM    5  C   UNL     1     -11.315  13.166  66.245  1.00  0.00    -0.348 A  
HETATM    6  C   UNL     1     -11.845  12.776  67.483  1.00  0.00    -0.402 A  
HETATM    7  C   UNL     1     -11.639  11.481  67.964  1.00  0.00    -0.370 A  
ENDROOT
BRANCH   5   8
HETATM    8  C   UNL     1     -11.483  14.582  65.748  1.00  0.00    -0.342 C  
BRANCH   8   9
HETATM    9  O   UNL     1     -10.205  15.122  65.438  1.00  0.00    -0.335 OA 
BRANCH   9  10
HETATM   10  C   UNL     1      -9.797  16.270  66.215  1.00  0.00    -0.313 C  
BRANCH  10  11
HETATM   11  C   UNL     1     -10.123  16.003  67.696  1.00  0.00    -0.245 A  
HETATM   12  C   UNL     1     -10.818  15.573  70.411  1.00  0.00    -0.335 A  
HETATM   13  C   UNL     1      -9.251  15.339  68.583  1.00  0.00    -0.201 A  
HETATM   14  C   UNL     1     -11.376  16.399  68.217  1.00  0.00    -0.241 A  
HETATM   15  C   UNL     1      -9.583  15.153  69.934  1.00  0.00     0.009 A  
HETATM   16 CL   UNL     1     -11.234  15.313  72.060  1.00  0.00    -0.438 Cl 
HETATM   17 CL   UNL     1      -7.745  14.652  68.082  1.00  0.00    -0.116 Cl 
HETATM   18  C   UNL     1     -11.724  16.180  69.555  1.00  0.00    -0.198 A  
ENDBRANCH  10  11
BRANCH  10  19
HETATM   19  C   UNL     1     -10.396  17.569  65.619  1.00  0.00    -0.134 C  
BRANCH  19  20
HETATM   20  N   UNL     1      -9.870  18.787  66.200  1.00  0.00    -0.478 NA 
HETATM   21  C   UNL     1      -8.549  19.119  66.324  1.00  0.00    -0.296 A  
HETATM   22  N   UNL     1      -9.833  20.784  67.144  1.00  0.00    -0.392 NA 
HETATM   23  C   UNL     1      -8.552  20.339  66.957  1.00  0.00    -0.318 A  
HETATM   24  C   UNL     1     -10.605  19.840  66.655  1.00  0.00    -0.462 A  
ENDBRANCH  19  20
ENDBRANCH  10  19
ENDBRANCH   9  10
ENDBRANCH   8   9
ENDBRANCH   5   8
TORSDOF 6
ENDMDL
MODEL       77
REMARK 921   NORMALIZED FREE ENERGY PREDICTED BY IDOCK:   -5.10 KCAL/MOL
REMARK 922        TOTAL FREE ENERGY PREDICTED BY IDOCK:   -8.02 KCAL/MOL
REMARK 923 INTER-LIGAND FREE ENERGY PREDICTED BY IDOCK:   -7.11 KCAL/MOL
REMARK 924 INTRA-LIGAND FREE ENERGY PREDICTED BY IDOCK:   -0.90 KCAL/MOL
REMARK 927      BINDING AFFINITY PREDICTED BY RF-SCORE:    0.00 PKD
ROOT
HETATM    1 CL   UNL     1     -13.195  15.838  71.977  1.00  0.00    -0.523 Cl 
HETATM    2  C   UNL     1     -12.998  14.172  71.595  1.00  0.00    -0.347 A  
HETATM    3  C   UNL     1     -13.627  13.202  72.370  1.00  0.00    -0.667 A  
HETATM    4  C   UNL     1     -13.453  11.849  72.063  1.00  0.00    -0.336 A  
HETATM    5  C   UNL     1     -12.647  11.459  70.980  1.00  0.00    -0.487 A  
HETATM    6  C   UNL     1     -12.024  12.450  70.207  1.00  0.00    -0.371 A  
HETATM    7  C   UNL     1     -12.203  13.801  70.513  1.00  0.00    -0.440 A  
ENDROOT
BRANCH   5   8
HETATM    8  C   UNL     1     -12.409   9.996  70.692  1.00  0.00    -0.253 C  
BRANCH   8   9
HETATM    9  O   UNL     1     -11.014   9.773  70.530  1.00  0.00    -0.271 OA 
BRANCH   9  10
HETATM   10  C   UNL     1     -10.614   9.144  69.292  1.00  0.00    -0.216 C  
BRANCH  10  11
HETATM   11  C   UNL     1     -10.342   7.653  69.563  1.00  0.00    -0.217 A  
HETATM   12  C   UNL     1      -9.807   4.934  70.165  1.00  0.00    -0.239 A  
HETATM   13  C   UNL     1     -10.456   6.646  68.582  1.00  0.00    -0.211 A  
HETATM   14  C   UNL     1      -9.995   7.231  70.867  1.00  0.00    -0.186 A  
HETATM   15  C   UNL     1     -10.161   5.304  68.874  1.00  0.00    -0.248 A  
HETATM   16 CL   UNL     1      -9.480   3.284  70.525  1.00  0.00    -0.239 Cl 
HETATM   17 CL   UNL     1     -11.017   6.956  66.977  1.00  0.00    -0.457 Cl 
HETATM   18  C   UNL     1      -9.739   5.889  71.168  1.00  0.00    -0.209 A  
ENDBRANCH  10  11
BRANCH  10  19
HETATM   19  C   UNL     1      -9.450   9.931  68.637  1.00  0.00    -0.153 C  
BRANCH  19  20
HETATM   20  N   UNL     1      -9.620  10.169  67.218  1.00  0.00    -0.157 NA 
HETATM   21  C   UNL     1     -10.567  10.970  66.641  1.00  0.00    -0.262 A  
HETATM   22  N   UNL     1      -9.251  10.071  65.042  1.00  0.00    -0.205 NA 
HETATM   23  C   UNL     1     -10.348  10.853  65.289  1.00  0.00    -0.268 A  
HETATM   24  C   UNL     1      -8.819   9.695  66.224  1.00  0.00    -0.151 A  
ENDBRANCH  19  20
ENDBRANCH  10  19
ENDBRANCH   9  10
ENDBRANCH   8   9
ENDBRANCH   5   8
TORSDOF 6
ENDMDL
MODEL       78
REMARK 921   NORMALIZED FREE ENERGY PREDICTED BY IDOCK:   -5.06 KCAL/MOL
REMARK 922        TOTAL FREE ENERGY PREDICTED BY IDOCK:   -7.96 KCAL/MOL
REMARK 923 INTER-LIGAND FREE ENERGY PREDICTED BY IDOCK:   -6.83 KCAL/MOL
REMARK 924 INTRA-LIGAND FREE ENERGY PREDICTED BY IDOCK:   -1.13 KCAL/MOL
REMARK 927      BINDING AFFINITY PREDICTED BY RF-SCORE:    0.00 PKD
ROOT
HETATM    1 CL   UNL     1     -13.559   9.062  72.599  1.00  0.00    -0.480 Cl 
HETATM    2  C   UNL     1     -12.418   9.651  71.454  1.00  0.00    -0.373 A  
HETATM    3  C   UNL     1     -11.144   9.092  71.392  1.00  0.00    -0.415 A  
HETATM    4  C   UNL     1     -10.216   9.583  70.469  1.00  0.00    -0.349 A  
HETATM    5  C   UNL     1     -10.557  10.635  69.603  1.00  0.00    -0.260 A  
HETATM    6  C   UNL     1     -11.845  11.183  69.675  1.00  0.00    -0.419 A  
HETATM    7  C   UNL     1     -12.772  10.689  70.596  1.00  0.00    -0.445 A  
ENDROOT
BRANCH   5   8
HETATM    8  C   UNL     1      -9.530  11.206  68.652  1.00  0.00    -0.193 C  
BRANCH   8   9
HETATM    9  O   UNL     1      -8.969  10.149  67.883  1.00  0.00    -0.127 OA 
BRANCH   9  10
HETATM   10  C   UNL     1      -9.634   9.852  66.636  1.00  0.00    -0.184 C  
BRANCH  10  11
HETATM   11  C   UNL     1      -9.254   8.425  66.203  1.00  0.00    -0.263 A  
HETATM   12  C   UNL     1      -8.490   5.839  65.324  1.00  0.00    -0.148 A  
HETATM   13  C   UNL     1      -9.825   7.260  66.757  1.00  0.00    -0.212 A  
HETATM   14  C   UNL     1      -8.250   8.235  65.225  1.00  0.00    -0.149 A  
HETATM   15  C   UNL     1      -9.468   5.981  66.299  1.00  0.00    -0.153 A  
HETATM   16 CL   UNL     1      -8.031   4.269  64.792  1.00  0.00    -0.089 Cl 
HETATM   17 CL   UNL     1     -10.953   7.298  68.066  1.00  0.00    -0.140 Cl 
HETATM   18  C   UNL     1      -7.866   6.959  64.796  1.00  0.00    -0.119 A  
ENDBRANCH  10  11
BRANCH  10  19
HETATM   19  C   UNL     1      -9.357  10.966  65.595  1.00  0.00    -0.207 C  
BRANCH  19  20
HETATM   20  N   UNL     1     -10.550  11.567  65.037  1.00  0.00    -0.287 NA 
HETATM   21  C   UNL     1     -11.508  12.256  65.729  1.00  0.00    -0.367 A  
HETATM   22  N   UNL     1     -12.039  12.209  63.535  1.00  0.00    -0.535 NA 
HETATM   23  C   UNL     1     -12.445  12.601  64.783  1.00  0.00    -0.484 A  
HETATM   24  C   UNL     1     -10.883  11.612  63.716  1.00  0.00    -0.424 A  
ENDBRANCH  19  20
ENDBRANCH  10  19
ENDBRANCH   9  10
ENDBRANCH   8   9
ENDBRANCH   5   8
TORSDOF 6
ENDMDL
MODEL       79
REMARK 921   NORMALIZED FREE ENERGY PREDICTED BY IDOCK:   -5.03 KCAL/MOL
REMARK 922        TOTAL FREE ENERGY PREDICTED BY IDOCK:   -7.93 KCAL/MOL
REMARK 923 INTER-LIGAND FREE ENERGY PREDICTED BY IDOCK:   -7.08 KCAL/MOL
REMARK 924 INTRA-LIGAND FREE ENERGY PREDICTED BY IDOCK:   -0.84 KCAL/MOL
REMARK 927      BINDING AFFINITY PREDICTED BY RF-SCORE:    0.00 PKD
ROOT
HETATM    1 CL   UNL     1      -9.475   4.264  68.150  1.00  0.00    -0.207 Cl 
HETATM    2  C   UNL     1      -9.834   5.773  68.894  1.00  0.00    -0.147 A  
HETATM    3  C   UNL     1      -9.021   6.877  68.654  1.00  0.00    -0.129 A  
HETATM    4  C   UNL     1      -9.310   8.098  69.271  1.00  0.00    -0.151 A  
HETATM    5  C   UNL     1     -10.412   8.220  70.133  1.00  0.00    -0.225 A  
HETATM    6  C   UNL     1     -11.223   7.100  70.360  1.00  0.00    -0.320 A  
HETATM    7  C   UNL     1     -10.935   5.882  69.740  1.00  0.00    -0.452 A  
ENDROOT
BRANCH   5   8
HETATM    8  C   UNL     1     -10.682   9.523  70.849  1.00  0.00    -0.333 C  
BRANCH   8   9
HETATM    9  O   UNL     1     -11.780  10.178  70.227  1.00  0.00    -0.263 OA 
BRANCH   9  10
HETATM   10  C   UNL     1     -11.481  11.428  69.566  1.00  0.00    -0.312 C  
BRANCH  10  11
HETATM   11  C   UNL     1     -12.112  12.576  70.374  1.00  0.00    -0.380 A  
HETATM   12  C   UNL     1     -13.334  14.615  71.919  1.00  0.00    -0.363 A  
HETATM   13  C   UNL     1     -11.900  13.942  70.090  1.00  0.00    -0.298 A  
HETATM   14  C   UNL     1     -12.924  12.280  71.493  1.00  0.00    -0.390 A  
HETATM   15  C   UNL     1     -12.530  14.950  70.837  1.00  0.00    -0.395 A  
HETATM   16 CL   UNL     1     -14.076  15.856  72.851  1.00  0.00    -0.508 Cl 
HETATM   17 CL   UNL     1     -10.817  14.488  68.858  1.00  0.00    -0.251 Cl 
HETATM   18  C   UNL     1     -13.521  13.285  72.261  1.00  0.00    -0.679 A  
ENDBRANCH  10  11
BRANCH  10  19
HETATM   19  C   UNL     1     -11.881  11.358  68.070  1.00  0.00    -0.202 C  
BRANCH  19  20
HETATM   20  N   UNL     1     -10.768  11.482  67.152  1.00  0.00    -0.240 NA 
HETATM   21  C   UNL     1     -10.839  11.874  65.844  1.00  0.00    -0.297 A  
HETATM   22  N   UNL     1      -8.690  11.464  66.401  1.00  0.00    -0.184 NA 
HETATM   23  C   UNL     1      -9.544  11.807  65.387  1.00  0.00    -0.190 A  
HETATM   24  C   UNL     1      -9.452  11.299  67.457  1.00  0.00    -0.169 A  
ENDBRANCH  19  20
ENDBRANCH  10  19
ENDBRANCH   9  10
ENDBRANCH   8   9
ENDBRANCH   5   8
TORSDOF 6
ENDMDL
MODEL       80
REMARK 921   NORMALIZED FREE ENERGY PREDICTED BY IDOCK:   -5.03 KCAL/MOL
REMARK 922        TOTAL FREE ENERGY PREDICTED BY IDOCK:   -7.92 KCAL/MOL
REMARK 923 INTER-LIGAND FREE ENERGY PREDICTED BY IDOCK:   -6.53 KCAL/MOL
REMARK 924 INTRA-LIGAND FREE ENERGY PREDICTED BY IDOCK:   -1.39 KCAL/MOL
REMARK 927      BINDING AFFINITY PREDICTED BY RF-SCORE:    0.00 PKD
ROOT
HETATM    1 CL   UNL     1     -11.204  10.744  68.292  1.00  0.00    -0.333 Cl 
HETATM    2  C   UNL     1     -11.115  12.177  67.346  1.00  0.00    -0.276 A  
HETATM    3  C   UNL     1     -10.033  12.382  66.495  1.00  0.00    -0.242 A  
HETATM    4  C   UNL     1      -9.958  13.555  65.738  1.00  0.00    -0.266 A  
HETATM    5  C   UNL     1     -10.964  14.530  65.829  1.00  0.00    -0.319 A  
HETATM    6  C   UNL     1     -12.049  14.307  66.688  1.00  0.00    -0.448 A  
HETATM    7  C   UNL     1     -12.124  13.132  67.441  1.00  0.00    -0.316 A  
ENDROOT
BRANCH   5   8
HETATM    8  C   UNL     1     -10.846  15.825  65.059  1.00  0.00    -0.443 C  
BRANCH   8   9
HETATM    9  O   UNL     1     -10.787  16.909  65.976  1.00  0.00    -0.169 OA 
BRANCH   9  10
HETATM   10  C   UNL     1      -9.496  17.539  66.130  1.00  0.00    -0.160 C  
BRANCH  10  11
HETATM   11  C   UNL     1      -8.677  16.739  67.158  1.00  0.00    -0.218 A  
HETATM   12  C   UNL     1      -7.087  15.253  68.977  1.00  0.00    -0.141 A  
HETATM   13  C   UNL     1      -9.162  16.373  68.432  1.00  0.00    -0.217 A  
HETATM   14  C   UNL     1      -7.346  16.369  66.857  1.00  0.00    -0.269 A  
HETATM   15  C   UNL     1      -8.385  15.612  69.319  1.00  0.00    -0.256 A  
HETATM   16 CL   UNL     1      -6.128  14.349  70.082  1.00  0.00    -0.148 Cl 
HETATM   17 CL   UNL     1     -10.706  16.872  69.028  1.00  0.00    -0.328 Cl 
HETATM   18  C   UNL     1      -6.557  15.643  67.756  1.00  0.00    -0.183 A  
ENDBRANCH  10  11
BRANCH  10  19
HETATM   19  C   UNL     1      -9.663  19.050  66.432  1.00  0.00    -0.367 C  
BRANCH  19  20
HETATM   20  N   UNL     1      -8.413  19.763  66.601  1.00  0.00    -0.317 NA 
HETATM   21  C   UNL     1      -7.872  20.175  67.788  1.00  0.00    -0.274 A  
HETATM   22  N   UNL     1      -6.502  20.745  66.086  1.00  0.00    -0.242 NA 
HETATM   23  C   UNL     1      -6.712  20.825  67.437  1.00  0.00    -0.345 A  
HETATM   24  C   UNL     1      -7.530  20.078  65.613  1.00  0.00    -0.257 A  
ENDBRANCH  19  20
ENDBRANCH  10  19
ENDBRANCH   9  10
ENDBRANCH   8   9
ENDBRANCH   5   8
TORSDOF 6
ENDMDL
MODEL       81
REMARK 921   NORMALIZED FREE ENERGY PREDICTED BY IDOCK:   -5.03 KCAL/MOL
REMARK 922        TOTAL FREE ENERGY PREDICTED BY IDOCK:   -7.92 KCAL/MOL
REMARK 923 INTER-LIGAND FREE ENERGY PREDICTED BY IDOCK:   -6.96 KCAL/MOL
REMARK 924 INTRA-LIGAND FREE ENERGY PREDICTED BY IDOCK:   -0.96 KCAL/MOL
REMARK 927      BINDING AFFINITY PREDICTED BY RF-SCORE:    0.00 PKD
ROOT
HETATM    1 CL   UNL     1     -10.701   7.263  67.279  1.00  0.00    -0.389 Cl 
HETATM    2  C   UNL     1     -10.125   8.883  67.277  1.00  0.00    -0.239 A  
HETATM    3  C   UNL     1     -10.112   9.615  66.093  1.00  0.00    -0.328 A  
HETATM    4  C   UNL     1      -9.630  10.928  66.094  1.00  0.00    -0.239 A  
HETATM    5  C   UNL     1      -9.158  11.515  67.279  1.00  0.00    -0.164 A  
HETATM    6  C   UNL     1      -9.182  10.766  68.464  1.00  0.00    -0.174 A  
HETATM    7  C   UNL     1      -9.667   9.456  68.461  1.00  0.00    -0.160 A  
ENDROOT
BRANCH   5   8
HETATM    8  C   UNL     1      -8.578  12.910  67.263  1.00  0.00    -0.205 C  
BRANCH   8   9
HETATM    9  O   UNL     1      -9.489  13.801  67.893  1.00  0.00    -0.200 OA 
BRANCH   9  10
HETATM   10  C   UNL     1     -10.476  14.411  67.031  1.00  0.00    -0.268 C  
BRANCH  10  11
HETATM   11  C   UNL     1     -10.253  15.933  67.026  1.00  0.00    -0.283 A  
HETATM   12  C   UNL     1      -9.806  18.732  67.122  1.00  0.00    -0.316 A  
HETATM   13  C   UNL     1     -10.616  16.775  65.953  1.00  0.00    -0.248 A  
HETATM   14  C   UNL     1      -9.613  16.550  68.125  1.00  0.00    -0.226 A  
HETATM   15  C   UNL     1     -10.423  18.164  66.015  1.00  0.00    -0.346 A  
HETATM   16 CL   UNL     1      -9.540  20.431  67.178  1.00  0.00    -0.575 Cl 
HETATM   17 CL   UNL     1     -11.267  16.176  64.468  1.00  0.00    -0.409 Cl 
HETATM   18  C   UNL     1      -9.384  17.930  68.171  1.00  0.00    -0.286 A  
ENDBRANCH  10  11
BRANCH  10  19
HETATM   19  C   UNL     1     -11.901  13.942  67.423  1.00  0.00    -0.402 C  
BRANCH  19  20
HETATM   20  N   UNL     1     -12.082  13.718  68.842  1.00  0.00    -0.350 NA 
HETATM   21  C   UNL     1     -12.330  14.676  69.786  1.00  0.00    -0.262 A  
HETATM   22  N   UNL     1     -12.271  12.640  70.762  1.00  0.00    -0.331 NA 
HETATM   23  C   UNL     1     -12.394  13.987  70.975  1.00  0.00    -0.369 A  
HETATM   24  C   UNL     1     -12.110  12.506  69.465  1.00  0.00    -0.187 A  
ENDBRANCH  19  20
ENDBRANCH  10  19
ENDBRANCH   9  10
ENDBRANCH   8   9
ENDBRANCH   5   8
TORSDOF 6
ENDMDL
MODEL       82
REMARK 921   NORMALIZED FREE ENERGY PREDICTED BY IDOCK:   -5.02 KCAL/MOL
REMARK 922        TOTAL FREE ENERGY PREDICTED BY IDOCK:   -7.91 KCAL/MOL
REMARK 923 INTER-LIGAND FREE ENERGY PREDICTED BY IDOCK:   -6.78 KCAL/MOL
REMARK 924 INTRA-LIGAND FREE ENERGY PREDICTED BY IDOCK:   -1.14 KCAL/MOL
REMARK 927      BINDING AFFINITY PREDICTED BY RF-SCORE:    0.00 PKD
ROOT
HETATM    1 CL   UNL     1      -9.225   3.876  68.027  1.00  0.00    -0.191 Cl 
HETATM    2  C   UNL     1      -9.453   5.505  67.525  1.00  0.00    -0.117 A  
HETATM    3  C   UNL     1     -10.718   6.083  67.594  1.00  0.00    -0.377 A  
HETATM    4  C   UNL     1     -10.901   7.403  67.172  1.00  0.00    -0.340 A  
HETATM    5  C   UNL     1      -9.820   8.153  66.679  1.00  0.00    -0.331 A  
HETATM    6  C   UNL     1      -8.552   7.557  66.621  1.00  0.00    -0.131 A  
HETATM    7  C   UNL     1      -8.371   6.239  67.046  1.00  0.00    -0.109 A  
ENDROOT
BRANCH   5   8
HETATM    8  C   UNL     1     -10.035   9.556  66.163  1.00  0.00    -0.272 C  
BRANCH   8   9
HETATM    9  O   UNL     1     -10.661  10.334  67.176  1.00  0.00    -0.257 OA 
BRANCH   9  10
HETATM   10  C   UNL     1      -9.780  10.922  68.158  1.00  0.00    -0.166 C  
BRANCH  10  11
HETATM   11  C   UNL     1      -9.909  10.131  69.472  1.00  0.00    -0.255 A  
HETATM   12  C   UNL     1     -10.043   8.633  71.876  1.00  0.00    -0.328 A  
HETATM   13  C   UNL     1     -11.094  10.067  70.235  1.00  0.00    -0.318 A  
HETATM   14  C   UNL     1      -8.783   9.451  69.992  1.00  0.00    -0.227 A  
HETATM   15  C   UNL     1     -11.168   9.301  71.409  1.00  0.00    -0.433 A  
HETATM   16 CL   UNL     1     -10.130   7.723  73.333  1.00  0.00    -0.372 Cl 
HETATM   17 CL   UNL     1     -12.519  10.960  69.833  1.00  0.00    -0.349 Cl 
HETATM   18  C   UNL     1      -8.846   8.718  71.182  1.00  0.00    -0.275 A  
ENDBRANCH  10  11
BRANCH  10  19
HETATM   19  C   UNL     1     -10.029  12.448  68.265  1.00  0.00    -0.224 C  
BRANCH  19  20
HETATM   20  N   UNL     1     -10.683  13.025  67.109  1.00  0.00    -0.253 NA 
HETATM   21  C   UNL     1     -10.088  13.348  65.921  1.00  0.00    -0.293 A  
HETATM   22  N   UNL     1     -12.294  13.821  65.822  1.00  0.00    -0.463 NA 
HETATM   23  C   UNL     1     -11.098  13.885  65.158  1.00  0.00    -0.334 A  
HETATM   24  C   UNL     1     -12.017  13.275  66.985  1.00  0.00    -0.365 A  
ENDBRANCH  19  20
ENDBRANCH  10  19
ENDBRANCH   9  10
ENDBRANCH   8   9
ENDBRANCH   5   8
TORSDOF 6
ENDMDL
MODEL       83
REMARK 921   NORMALIZED FREE ENERGY PREDICTED BY IDOCK:   -5.01 KCAL/MOL
REMARK 922        TOTAL FREE ENERGY PREDICTED BY IDOCK:   -7.90 KCAL/MOL
REMARK 923 INTER-LIGAND FREE ENERGY PREDICTED BY IDOCK:   -6.53 KCAL/MOL
REMARK 924 INTRA-LIGAND FREE ENERGY PREDICTED BY IDOCK:   -1.37 KCAL/MOL
REMARK 927      BINDING AFFINITY PREDICTED BY RF-SCORE:    0.00 PKD
ROOT
HETATM    1 CL   UNL     1     -10.016   8.012  66.761  1.00  0.00    -0.326 Cl 
HETATM    2  C   UNL     1      -9.535   9.614  67.160  1.00  0.00    -0.148 A  
HETATM    3  C   UNL     1      -8.442  10.191  66.519  1.00  0.00    -0.128 A  
HETATM    4  C   UNL     1      -8.047  11.489  66.856  1.00  0.00    -0.164 A  
HETATM    5  C   UNL     1      -8.740  12.216  67.836  1.00  0.00    -0.176 A  
HETATM    6  C   UNL     1      -9.841  11.622  68.469  1.00  0.00    -0.196 A  
HETATM    7  C   UNL     1     -10.237  10.326  68.129  1.00  0.00    -0.192 A  
ENDROOT
BRANCH   5   8
HETATM    8  C   UNL     1      -8.270  13.593  68.244  1.00  0.00    -0.156 C  
BRANCH   8   9
HETATM    9  O   UNL     1      -8.259  14.439  67.101  1.00  0.00    -0.204 OA 
BRANCH   9  10
HETATM   10  C   UNL     1      -9.464  15.202  66.867  1.00  0.00    -0.238 C  
BRANCH  10  11
HETATM   11  C   UNL     1     -10.442  14.340  66.050  1.00  0.00    -0.306 A  
HETATM   12  C   UNL     1     -12.175  12.760  64.457  1.00  0.00    -0.433 A  
HETATM   13  C   UNL     1     -11.711  13.937  66.519  1.00  0.00    -0.393 A  
HETATM   14  C   UNL     1     -10.063  13.876  64.770  1.00  0.00    -0.247 A  
HETATM   15  C   UNL     1     -12.580  13.180  65.717  1.00  0.00    -0.351 A  
HETATM   16 CL   UNL     1     -13.231  11.803  63.492  1.00  0.00    -0.177 Cl 
HETATM   17 CL   UNL     1     -12.275  14.282  68.116  1.00  0.00    -0.260 Cl 
HETATM   18  C   UNL     1     -10.914  13.089  63.985  1.00  0.00    -0.422 A  
ENDBRANCH  10  11
BRANCH  10  19
HETATM   19  C   UNL     1      -9.119  16.586  66.261  1.00  0.00    -0.313 C  
BRANCH  19  20
HETATM   20  N   UNL     1      -9.318  17.698  67.167  1.00  0.00    -0.241 NA 
HETATM   21  C   UNL     1      -8.414  18.170  68.079  1.00  0.00    -0.262 A  
HETATM   22  N   UNL     1     -10.297  19.412  68.160  1.00  0.00    -0.422 NA 
HETATM   23  C   UNL     1      -9.064  19.201  68.716  1.00  0.00    -0.353 A  
HETATM   24  C   UNL     1     -10.412  18.509  67.213  1.00  0.00    -0.419 A  
ENDBRANCH  19  20
ENDBRANCH  10  19
ENDBRANCH   9  10
ENDBRANCH   8   9
ENDBRANCH   5   8
TORSDOF 6
ENDMDL
MODEL       84
REMARK 921   NORMALIZED FREE ENERGY PREDICTED BY IDOCK:   -4.98 KCAL/MOL
REMARK 922        TOTAL FREE ENERGY PREDICTED BY IDOCK:   -7.86 KCAL/MOL
REMARK 923 INTER-LIGAND FREE ENERGY PREDICTED BY IDOCK:   -7.19 KCAL/MOL
REMARK 924 INTRA-LIGAND FREE ENERGY PREDICTED BY IDOCK:   -0.67 KCAL/MOL
REMARK 927      BINDING AFFINITY PREDICTED BY RF-SCORE:    0.00 PKD
ROOT
HETATM    1 CL   UNL     1     -10.797   7.266  72.013  1.00  0.00    -0.251 Cl 
HETATM    2  C   UNL     1     -11.134   8.647  71.045  1.00  0.00    -0.264 A  
HETATM    3  C   UNL     1     -10.466   8.829  69.837  1.00  0.00    -0.227 A  
HETATM    4  C   UNL     1     -10.734   9.960  69.060  1.00  0.00    -0.244 A  
HETATM    5  C   UNL     1     -11.671  10.915  69.487  1.00  0.00    -0.400 A  
HETATM    6  C   UNL     1     -12.338  10.714  70.703  1.00  0.00    -0.462 A  
HETATM    7  C   UNL     1     -12.072   9.582  71.476  1.00  0.00    -0.468 A  
ENDROOT
BRANCH   5   8
HETATM    8  C   UNL     1     -11.910  12.167  68.676  1.00  0.00    -0.306 C  
BRANCH   8   9
HETATM    9  O   UNL     1     -10.668  12.825  68.457  1.00  0.00    -0.241 OA 
BRANCH   9  10
HETATM   10  C   UNL     1     -10.316  13.070  67.078  1.00  0.00    -0.247 C  
BRANCH  10  11
HETATM   11  C   UNL     1     -10.204  14.589  66.860  1.00  0.00    -0.264 A  
HETATM   12  C   UNL     1     -10.056  17.378  66.365  1.00  0.00    -0.327 A  
HETATM   13  C   UNL     1      -9.430  15.442  67.675  1.00  0.00    -0.205 A  
HETATM   14  C   UNL     1     -10.937  15.202  65.818  1.00  0.00    -0.350 A  
HETATM   15  C   UNL     1      -9.334  16.818  67.410  1.00  0.00    -0.233 A  
HETATM   16 CL   UNL     1      -9.962  19.069  66.066  1.00  0.00    -0.384 Cl 
HETATM   17 CL   UNL     1      -8.593  14.891  69.084  1.00  0.00    -0.176 Cl 
HETATM   18  C   UNL     1     -10.872  16.579  65.578  1.00  0.00    -0.196 A  
ENDBRANCH  10  11
BRANCH  10  19
HETATM   19  C   UNL     1     -11.291  12.326  66.130  1.00  0.00    -0.353 C  
BRANCH  19  20
HETATM   20  N   UNL     1     -10.637  11.573  65.079  1.00  0.00    -0.287 NA 
HETATM   21  C   UNL     1      -9.839  10.475  65.247  1.00  0.00    -0.284 A  
HETATM   22  N   UNL     1     -10.030  10.949  63.048  1.00  0.00    -0.316 NA 
HETATM   23  C   UNL     1      -9.436  10.137  63.976  1.00  0.00    -0.282 A  
HETATM   24  C   UNL     1     -10.768  11.788  63.739  1.00  0.00    -0.419 A  
ENDBRANCH  19  20
ENDBRANCH  10  19
ENDBRANCH   9  10
ENDBRANCH   8   9
ENDBRANCH   5   8
TORSDOF 6
ENDMDL
MODEL       85
REMARK 921   NORMALIZED FREE ENERGY PREDICTED BY IDOCK:   -4.97 KCAL/MOL
REMARK 922        TOTAL FREE ENERGY PREDICTED BY IDOCK:   -7.84 KCAL/MOL
REMARK 923 INTER-LIGAND FREE ENERGY PREDICTED BY IDOCK:   -6.54 KCAL/MOL
REMARK 924 INTRA-LIGAND FREE ENERGY PREDICTED BY IDOCK:   -1.30 KCAL/MOL
REMARK 927      BINDING AFFINITY PREDICTED BY RF-SCORE:    0.00 PKD
ROOT
HETATM    1 CL   UNL     1     -11.020  15.798  64.857  1.00  0.00    -0.463 Cl 
HETATM    2  C   UNL     1     -11.363  14.642  66.084  1.00  0.00    -0.350 A  
HETATM    3  C   UNL     1     -11.446  15.044  67.414  1.00  0.00    -0.326 A  
HETATM    4  C   UNL     1     -11.712  14.098  68.409  1.00  0.00    -0.380 A  
HETATM    5  C   UNL     1     -11.894  12.745  68.079  1.00  0.00    -0.386 A  
HETATM    6  C   UNL     1     -11.811  12.358  66.734  1.00  0.00    -0.385 A  
HETATM    7  C   UNL     1     -11.550  13.305  65.741  1.00  0.00    -0.368 A  
ENDROOT
BRANCH   5   8
HETATM    8  C   UNL     1     -12.116  11.716  69.163  1.00  0.00    -0.251 C  
BRANCH   8   9
HETATM    9  O   UNL     1     -10.920  11.567  69.916  1.00  0.00    -0.093 OA 
BRANCH   9  10
HETATM   10  C   UNL     1     -10.341  10.243  69.930  1.00  0.00    -0.233 C  
BRANCH  10  11
HETATM   11  C   UNL     1      -9.864   9.899  68.508  1.00  0.00    -0.168 A  
HETATM   12  C   UNL     1      -9.045   9.172  65.892  1.00  0.00    -0.205 A  
HETATM   13  C   UNL     1      -8.898  10.648  67.803  1.00  0.00    -0.133 A  
HETATM   14  C   UNL     1     -10.434   8.800  67.826  1.00  0.00    -0.292 A  
HETATM   15  C   UNL     1      -8.471  10.269  66.520  1.00  0.00    -0.126 A  
HETATM   16 CL   UNL     1      -8.543   8.732  64.307  1.00  0.00    -0.140 Cl 
HETATM   17 CL   UNL     1      -8.208  12.109  68.420  1.00  0.00    -0.157 Cl 
HETATM   18  C   UNL     1     -10.037   8.445  66.532  1.00  0.00    -0.317 A  
ENDBRANCH  10  11
BRANCH  10  19
HETATM   19  C   UNL     1     -11.322   9.230  70.573  1.00  0.00    -0.258 C  
BRANCH  19  20
HETATM   20  N   UNL     1     -10.788   8.537  71.726  1.00  0.00    -0.279 NA 
HETATM   21  C   UNL     1     -11.499   7.775  72.613  1.00  0.00    -0.375 A  
HETATM   22  N   UNL     1      -9.316   7.779  73.190  1.00  0.00    -0.227 NA 
HETATM   23  C   UNL     1     -10.572   7.358  73.538  1.00  0.00    -0.338 A  
HETATM   24  C   UNL     1      -9.474   8.465  72.081  1.00  0.00    -0.290 A  
ENDBRANCH  19  20
ENDBRANCH  10  19
ENDBRANCH   9  10
ENDBRANCH   8   9
ENDBRANCH   5   8
TORSDOF 6
ENDMDL
MODEL       86
REMARK 921   NORMALIZED FREE ENERGY PREDICTED BY IDOCK:   -4.96 KCAL/MOL
REMARK 922        TOTAL FREE ENERGY PREDICTED BY IDOCK:   -7.82 KCAL/MOL
REMARK 923 INTER-LIGAND FREE ENERGY PREDICTED BY IDOCK:   -6.69 KCAL/MOL
REMARK 924 INTRA-LIGAND FREE ENERGY PREDICTED BY IDOCK:   -1.13 KCAL/MOL
REMARK 927      BINDING AFFINITY PREDICTED BY RF-SCORE:    0.00 PKD
ROOT
HETATM    1 CL   UNL     1     -12.279  14.272  64.196  1.00  0.00    -0.475 Cl 
HETATM    2  C   UNL     1     -12.040  13.570  65.748  1.00  0.00    -0.433 A  
HETATM    3  C   UNL     1     -11.692  12.226  65.856  1.00  0.00    -0.451 A  
HETATM    4  C   UNL     1     -11.511  11.657  67.120  1.00  0.00    -0.344 A  
HETATM    5  C   UNL     1     -11.679  12.427  68.282  1.00  0.00    -0.398 A  
HETATM    6  C   UNL     1     -12.025  13.779  68.155  1.00  0.00    -0.394 A  
HETATM    7  C   UNL     1     -12.201  14.348  66.891  1.00  0.00    -0.300 A  
ENDROOT
BRANCH   5   8
HETATM    8  C   UNL     1     -11.547  11.791  69.646  1.00  0.00    -0.323 C  
BRANCH   8   9
HETATM    9  O   UNL     1     -11.866  10.409  69.550  1.00  0.00    -0.225 OA 
BRANCH   9  10
HETATM   10  C   UNL     1     -10.877   9.494  70.071  1.00  0.00    -0.252 C  
BRANCH  10  11
HETATM   11  C   UNL     1     -10.035   8.958  68.899  1.00  0.00    -0.199 A  
HETATM   12  C   UNL     1      -8.572   7.911  66.707  1.00  0.00    -0.131 A  
HETATM   13  C   UNL     1      -8.662   9.237  68.728  1.00  0.00    -0.132 A  
HETATM   14  C   UNL     1     -10.650   8.172  67.898  1.00  0.00    -0.212 A  
HETATM   15  C   UNL     1      -7.933   8.693  67.659  1.00  0.00    -0.107 A  
HETATM   16 CL   UNL     1      -7.680   7.275  65.380  1.00  0.00    -0.103 Cl 
HETATM   17 CL   UNL     1      -7.784  10.304  69.768  1.00  0.00    -0.169 Cl 
HETATM   18  C   UNL     1      -9.932   7.661  66.811  1.00  0.00    -0.317 A  
ENDBRANCH  10  11
BRANCH  10  19
HETATM   19  C   UNL     1     -11.550   8.418  70.961  1.00  0.00    -0.275 C  
BRANCH  19  20
HETATM   20  N   UNL     1     -10.752   8.002  72.096  1.00  0.00    -0.254 NA 
HETATM   21  C   UNL     1      -9.512   8.475  72.429  1.00  0.00    -0.280 A  
HETATM   22  N   UNL     1     -10.176   6.940  73.946  1.00  0.00    -0.353 NA 
HETATM   23  C   UNL     1      -9.157   7.764  73.551  1.00  0.00    -0.283 A  
HETATM   24  C   UNL     1     -11.133   7.124  73.065  1.00  0.00    -0.283 A  
ENDBRANCH  19  20
ENDBRANCH  10  19
ENDBRANCH   9  10
ENDBRANCH   8   9
ENDBRANCH   5   8
TORSDOF 6
ENDMDL
MODEL       87
REMARK 921   NORMALIZED FREE ENERGY PREDICTED BY IDOCK:   -4.94 KCAL/MOL
REMARK 922        TOTAL FREE ENERGY PREDICTED BY IDOCK:   -7.80 KCAL/MOL
REMARK 923 INTER-LIGAND FREE ENERGY PREDICTED BY IDOCK:   -7.38 KCAL/MOL
REMARK 924 INTRA-LIGAND FREE ENERGY PREDICTED BY IDOCK:   -0.42 KCAL/MOL
REMARK 927      BINDING AFFINITY PREDICTED BY RF-SCORE:    0.00 PKD
ROOT
HETATM    1 CL   UNL     1     -12.713   7.025  72.034  1.00  0.00    -0.281 Cl 
HETATM    2  C   UNL     1     -12.432   8.624  71.468  1.00  0.00    -0.323 A  
HETATM    3  C   UNL     1     -11.423   8.866  70.540  1.00  0.00    -0.231 A  
HETATM    4  C   UNL     1     -11.190  10.170  70.093  1.00  0.00    -0.377 A  
HETATM    5  C   UNL     1     -11.964  11.240  70.573  1.00  0.00    -0.467 A  
HETATM    6  C   UNL     1     -12.978  10.978  71.505  1.00  0.00    -0.553 A  
HETATM    7  C   UNL     1     -13.213   9.674  71.947  1.00  0.00    -0.538 A  
ENDROOT
BRANCH   5   8
HETATM    8  C   UNL     1     -11.666  12.655  70.137  1.00  0.00    -0.168 C  
BRANCH   8   9
HETATM    9  O   UNL     1     -12.294  12.900  68.885  1.00  0.00    -0.093 OA 
BRANCH   9  10
HETATM   10  C   UNL     1     -11.408  13.151  67.772  1.00  0.00    -0.290 C  
BRANCH  10  11
HETATM   11  C   UNL     1     -10.136  13.837  68.299  1.00  0.00    -0.239 A  
HETATM   12  C   UNL     1      -7.735  15.006  69.253  1.00  0.00    -0.194 A  
HETATM   13  C   UNL     1     -10.118  15.134  68.856  1.00  0.00    -0.238 A  
HETATM   14  C   UNL     1      -8.891  13.174  68.198  1.00  0.00    -0.194 A  
HETATM   15  C   UNL     1      -8.934  15.699  69.356  1.00  0.00    -0.265 A  
HETATM   16 CL   UNL     1      -6.281  15.718  69.836  1.00  0.00    -0.169 Cl 
HETATM   17 CL   UNL     1     -11.516  16.149  68.918  1.00  0.00    -0.352 Cl 
HETATM   18  C   UNL     1      -7.704  13.753  68.661  1.00  0.00    -0.120 A  
ENDBRANCH  10  11
BRANCH  10  19
HETATM   19  C   UNL     1     -12.158  13.904  66.643  1.00  0.00    -0.448 C  
BRANCH  19  20
HETATM   20  N   UNL     1     -12.026  13.296  65.335  1.00  0.00    -0.371 NA 
HETATM   21  C   UNL     1     -11.371  12.130  65.048  1.00  0.00    -0.328 A  
HETATM   22  N   UNL     1     -12.266  12.986  63.160  1.00  0.00    -0.577 NA 
HETATM   23  C   UNL     1     -11.493  11.986  63.686  1.00  0.00    -0.468 A  
HETATM   24  C   UNL     1     -12.594  13.745  64.181  1.00  0.00    -0.102 A  
ENDBRANCH  19  20
ENDBRANCH  10  19
ENDBRANCH   9  10
ENDBRANCH   8   9
ENDBRANCH   5   8
TORSDOF 6
ENDMDL
MODEL       88
REMARK 921   NORMALIZED FREE ENERGY PREDICTED BY IDOCK:   -4.93 KCAL/MOL
REMARK 922        TOTAL FREE ENERGY PREDICTED BY IDOCK:   -7.78 KCAL/MOL
REMARK 923 INTER-LIGAND FREE ENERGY PREDICTED BY IDOCK:   -6.74 KCAL/MOL
REMARK 924 INTRA-LIGAND FREE ENERGY PREDICTED BY IDOCK:   -1.05 KCAL/MOL
REMARK 927      BINDING AFFINITY PREDICTED BY RF-SCORE:    0.00 PKD
ROOT
HETATM    1 CL   UNL     1      -9.883  10.836  62.333  1.00  0.00    -0.085 Cl 
HETATM    2  C   UNL     1     -10.598  11.856  63.519  1.00  0.00    -0.453 A  
HETATM    3  C   UNL     1      -9.811  12.770  64.215  1.00  0.00    -0.042 A  
HETATM    4  C   UNL     1     -10.395  13.588  65.187  1.00  0.00    -0.368 A  
HETATM    5  C   UNL     1     -11.768  13.496  65.468  1.00  0.00    -0.361 A  
HETATM    6  C   UNL     1     -12.546  12.574  64.755  1.00  0.00    -0.493 A  
HETATM    7  C   UNL     1     -11.962  11.760  63.781  1.00  0.00    -0.468 A  
ENDROOT
BRANCH   5   8
HETATM    8  C   UNL     1     -12.381  14.336  66.564  1.00  0.00    -0.314 C  
BRANCH   8   9
HETATM    9  O   UNL     1     -11.424  15.286  67.016  1.00  0.00    -0.286 OA 
BRANCH   9  10
HETATM   10  C   UNL     1     -10.888  15.064  68.339  1.00  0.00    -0.256 C  
BRANCH  10  11
HETATM   11  C   UNL     1      -9.464  14.495  68.204  1.00  0.00    -0.208 A  
HETATM   12  C   UNL     1      -6.878  13.350  67.999  1.00  0.00    -0.132 A  
HETATM   13  C   UNL     1      -8.349  15.261  67.806  1.00  0.00    -0.153 A  
HETATM   14  C   UNL     1      -9.235  13.121  68.448  1.00  0.00    -0.141 A  
HETATM   15  C   UNL     1      -7.064  14.700  67.735  1.00  0.00    -0.193 A  
HETATM   16 CL   UNL     1      -5.307  12.660  67.877  1.00  0.00    -0.087 Cl 
HETATM   17 CL   UNL     1      -8.471  16.917  67.322  1.00  0.00    -0.206 Cl 
HETATM   18  C   UNL     1      -7.961  12.553  68.339  1.00  0.00    -0.139 A  
ENDBRANCH  10  11
BRANCH  10  19
HETATM   19  C   UNL     1     -11.872  14.219  69.187  1.00  0.00    -0.330 C  
BRANCH  19  20
HETATM   20  N   UNL     1     -12.265  14.841  70.435  1.00  0.00    -0.314 NA 
HETATM   21  C   UNL     1     -13.497  14.765  71.024  1.00  0.00    -0.347 A  
HETATM   22  N   UNL     1     -12.112  15.998  72.311  1.00  0.00    -0.487 NA 
HETATM   23  C   UNL     1     -13.391  15.532  72.160  1.00  0.00    -0.467 A  
HETATM   24  C   UNL     1     -11.451  15.545  71.271  1.00  0.00    -0.404 A  
ENDBRANCH  19  20
ENDBRANCH  10  19
ENDBRANCH   9  10
ENDBRANCH   8   9
ENDBRANCH   5   8
TORSDOF 6
ENDMDL
MODEL       89
REMARK 921   NORMALIZED FREE ENERGY PREDICTED BY IDOCK:   -4.93 KCAL/MOL
REMARK 922        TOTAL FREE ENERGY PREDICTED BY IDOCK:   -7.78 KCAL/MOL
REMARK 923 INTER-LIGAND FREE ENERGY PREDICTED BY IDOCK:   -6.91 KCAL/MOL
REMARK 924 INTRA-LIGAND FREE ENERGY PREDICTED BY IDOCK:   -0.87 KCAL/MOL
REMARK 927      BINDING AFFINITY PREDICTED BY RF-SCORE:    0.00 PKD
ROOT
HETATM    1 CL   UNL     1      -5.138  19.099  67.439  1.00  0.00    -0.161 Cl 
HETATM    2  C   UNL     1      -6.741  18.478  67.447  1.00  0.00    -0.201 A  
HETATM    3  C   UNL     1      -7.618  18.829  68.470  1.00  0.00    -0.357 A  
HETATM    4  C   UNL     1      -8.916  18.310  68.480  1.00  0.00    -0.329 A  
HETATM    5  C   UNL     1      -9.344  17.436  67.467  1.00  0.00    -0.233 A  
HETATM    6  C   UNL     1      -8.450  17.096  66.442  1.00  0.00    -0.307 A  
HETATM    7  C   UNL     1      -7.155  17.618  66.432  1.00  0.00    -0.310 A  
ENDROOT
BRANCH   5   8
HETATM    8  C   UNL     1     -10.726  16.827  67.517  1.00  0.00    -0.275 C  
BRANCH   8   9
HETATM    9  O   UNL     1     -10.634  15.504  68.029  1.00  0.00    -0.257 OA 
BRANCH   9  10
HETATM   10  C   UNL     1     -11.236  14.469  67.220  1.00  0.00    -0.332 C  
BRANCH  10  11
HETATM   11  C   UNL     1     -10.811  13.098  67.777  1.00  0.00    -0.261 A  
HETATM   12  C   UNL     1     -10.136  10.551  68.824  1.00  0.00    -0.191 A  
HETATM   13  C   UNL     1      -9.467  12.706  67.951  1.00  0.00    -0.204 A  
HETATM   14  C   UNL     1     -11.798  12.141  68.105  1.00  0.00    -0.362 A  
HETATM   15  C   UNL     1      -9.135  11.456  68.498  1.00  0.00    -0.169 A  
HETATM   16 CL   UNL     1      -9.723   9.007  69.461  1.00  0.00    -0.167 Cl 
HETATM   17 CL   UNL     1      -8.131  13.687  67.461  1.00  0.00    -0.175 Cl 
HETATM   18  C   UNL     1     -11.467  10.880  68.614  1.00  0.00    -0.380 A  
ENDBRANCH  10  11
BRANCH  10  19
HETATM   19  C   UNL     1     -10.931  14.708  65.719  1.00  0.00    -0.330 C  
BRANCH  19  20
HETATM   20  N   UNL     1     -11.328  13.618  64.852  1.00  0.00    -0.331 NA 
HETATM   21  C   UNL     1     -12.610  13.240  64.564  1.00  0.00    -0.251 A  
HETATM   22  N   UNL     1     -11.158  11.918  63.450  1.00  0.00    -0.399 NA 
HETATM   23  C   UNL     1     -12.477  12.154  63.732  1.00  0.00    -0.514 A  
HETATM   24  C   UNL     1     -10.491  12.832  64.118  1.00  0.00    -0.413 A  
ENDBRANCH  19  20
ENDBRANCH  10  19
ENDBRANCH   9  10
ENDBRANCH   8   9
ENDBRANCH   5   8
TORSDOF 6
ENDMDL
MODEL       90
REMARK 921   NORMALIZED FREE ENERGY PREDICTED BY IDOCK:   -4.92 KCAL/MOL
REMARK 922        TOTAL FREE ENERGY PREDICTED BY IDOCK:   -7.77 KCAL/MOL
REMARK 923 INTER-LIGAND FREE ENERGY PREDICTED BY IDOCK:   -7.94 KCAL/MOL
REMARK 924 INTRA-LIGAND FREE ENERGY PREDICTED BY IDOCK:    0.17 KCAL/MOL
REMARK 927      BINDING AFFINITY PREDICTED BY RF-SCORE:    0.00 PKD
ROOT
HETATM    1 CL   UNL     1      -6.518  21.209  66.503  1.00  0.00    -0.339 Cl 
HETATM    2  C   UNL     1      -7.375  19.780  66.932  1.00  0.00    -0.232 A  
HETATM    3  C   UNL     1      -8.608  19.507  66.347  1.00  0.00    -0.384 A  
HETATM    4  C   UNL     1      -9.307  18.351  66.710  1.00  0.00    -0.296 A  
HETATM    5  C   UNL     1      -8.776  17.463  67.660  1.00  0.00    -0.221 A  
HETATM    6  C   UNL     1      -7.531  17.751  68.236  1.00  0.00    -0.247 A  
HETATM    7  C   UNL     1      -6.833  18.904  67.870  1.00  0.00    -0.236 A  
ENDROOT
BRANCH   5   8
HETATM    8  C   UNL     1      -9.564  16.250  68.096  1.00  0.00    -0.219 C  
BRANCH   8   9
HETATM    9  O   UNL     1     -10.765  16.176  67.338  1.00  0.00    -0.312 OA 
BRANCH   9  10
HETATM   10  C   UNL     1     -11.333  14.857  67.180  1.00  0.00    -0.343 C  
BRANCH  10  11
HETATM   11  C   UNL     1     -11.837  14.370  68.550  1.00  0.00    -0.369 A  
HETATM   12  C   UNL     1     -12.781  13.579  71.104  1.00  0.00    -0.344 A  
HETATM   13  C   UNL     1     -11.811  13.020  68.959  1.00  0.00    -0.316 A  
HETATM   14  C   UNL     1     -12.401  15.296  69.457  1.00  0.00    -0.210 A  
HETATM   15  C   UNL     1     -12.250  12.634  70.236  1.00  0.00    -0.347 A  
HETATM   16 CL   UNL     1     -13.350  13.095  72.654  1.00  0.00    -0.522 Cl 
HETATM   17 CL   UNL     1     -11.300  11.734  67.923  1.00  0.00    -0.331 Cl 
HETATM   18  C   UNL     1     -12.875  14.906  70.715  1.00  0.00    -0.428 A  
ENDBRANCH  10  11
BRANCH  10  19
HETATM   19  C   UNL     1     -10.331  13.919  66.460  1.00  0.00    -0.286 C  
BRANCH  19  20
HETATM   20  N   UNL     1     -10.827  13.362  65.219  1.00  0.00    -0.299 NA 
HETATM   21  C   UNL     1     -12.019  13.660  64.617  1.00  0.00    -0.407 A  
HETATM   22  N   UNL     1     -10.886  12.163  63.363  1.00  0.00    -0.438 NA 
HETATM   23  C   UNL     1     -12.053  12.867  63.495  1.00  0.00    -0.555 A  
HETATM   24  C   UNL     1     -10.157  12.501  64.402  1.00  0.00    -0.258 A  
ENDBRANCH  19  20
ENDBRANCH  10  19
ENDBRANCH   9  10
ENDBRANCH   8   9
ENDBRANCH   5   8
TORSDOF 6
ENDMDL
MODEL       91
REMARK 921   NORMALIZED FREE ENERGY PREDICTED BY IDOCK:   -4.90 KCAL/MOL
REMARK 922        TOTAL FREE ENERGY PREDICTED BY IDOCK:   -7.74 KCAL/MOL
REMARK 923 INTER-LIGAND FREE ENERGY PREDICTED BY IDOCK:   -6.62 KCAL/MOL
REMARK 924 INTRA-LIGAND FREE ENERGY PREDICTED BY IDOCK:   -1.13 KCAL/MOL
REMARK 927      BINDING AFFINITY PREDICTED BY RF-SCORE:    0.00 PKD
ROOT
HETATM    1 CL   UNL     1     -12.330  15.311  64.134  1.00  0.00    -0.275 Cl 
HETATM    2  C   UNL     1     -11.556  13.789  64.344  1.00  0.00    -0.395 A  
HETATM    3  C   UNL     1     -11.878  12.724  63.507  1.00  0.00    -0.618 A  
HETATM    4  C   UNL     1     -11.255  11.486  63.690  1.00  0.00    -0.451 A  
HETATM    5  C   UNL     1     -10.308  11.306  64.712  1.00  0.00    -0.366 A  
HETATM    6  C   UNL     1      -9.992  12.390  65.542  1.00  0.00    -0.260 A  
HETATM    7  C   UNL     1     -10.612  13.628  65.356  1.00  0.00    -0.322 A  
ENDROOT
BRANCH   5   8
HETATM    8  C   UNL     1      -9.686   9.949  64.948  1.00  0.00    -0.262 C  
BRANCH   8   9
HETATM    9  O   UNL     1     -10.411   9.275  65.969  1.00  0.00    -0.205 OA 
BRANCH   9  10
HETATM   10  C   UNL     1      -9.671   8.968  67.171  1.00  0.00    -0.181 C  
BRANCH  10  11
HETATM   11  C   UNL     1     -10.521   9.371  68.389  1.00  0.00    -0.256 A  
HETATM   12  C   UNL     1     -12.105  10.214  70.585  1.00  0.00    -0.319 A  
HETATM   13  C   UNL     1     -10.657   8.577  69.547  1.00  0.00    -0.211 A  
HETATM   14  C   UNL     1     -11.252  10.581  68.362  1.00  0.00    -0.339 A  
HETATM   15  C   UNL     1     -11.417   9.009  70.646  1.00  0.00    -0.291 A  
HETATM   16 CL   UNL     1     -13.063  10.723  71.921  1.00  0.00    -0.599 Cl 
HETATM   17 CL   UNL     1      -9.961   7.001  69.693  1.00  0.00    -0.172 Cl 
HETATM   18  C   UNL     1     -12.041  10.994  69.441  1.00  0.00    -0.389 A  
ENDBRANCH  10  11
BRANCH  10  19
HETATM   19  C   UNL     1      -8.252   9.587  67.108  1.00  0.00    -0.113 C  
BRANCH  19  20
HETATM   20  N   UNL     1      -7.592   9.693  68.393  1.00  0.00    -0.081 NA 
HETATM   21  C   UNL     1      -6.974   8.678  69.070  1.00  0.00    -0.064 A  
HETATM   22  N   UNL     1      -6.796  10.598  70.245  1.00  0.00    -0.265 NA 
HETATM   23  C   UNL     1      -6.531   9.255  70.237  1.00  0.00    -0.058 A  
HETATM   24  C   UNL     1      -7.413  10.838  69.110  1.00  0.00    -0.123 A  
ENDBRANCH  19  20
ENDBRANCH  10  19
ENDBRANCH   9  10
ENDBRANCH   8   9
ENDBRANCH   5   8
TORSDOF 6
ENDMDL
MODEL       92
REMARK 921   NORMALIZED FREE ENERGY PREDICTED BY IDOCK:   -4.89 KCAL/MOL
REMARK 922        TOTAL FREE ENERGY PREDICTED BY IDOCK:   -7.73 KCAL/MOL
REMARK 923 INTER-LIGAND FREE ENERGY PREDICTED BY IDOCK:   -7.32 KCAL/MOL
REMARK 924 INTRA-LIGAND FREE ENERGY PREDICTED BY IDOCK:   -0.41 KCAL/MOL
REMARK 927      BINDING AFFINITY PREDICTED BY RF-SCORE:    0.00 PKD
ROOT
HETATM    1 CL   UNL     1      -8.846  20.472  67.293  1.00  0.00    -0.440 Cl 
HETATM    2  C   UNL     1      -9.312  18.936  66.676  1.00  0.00    -0.330 A  
HETATM    3  C   UNL     1     -10.520  18.795  66.000  1.00  0.00    -0.483 A  
HETATM    4  C   UNL     1     -10.900  17.541  65.512  1.00  0.00     0.028 A  
HETATM    5  C   UNL     1     -10.075  16.421  65.700  1.00  0.00    -0.314 A  
HETATM    6  C   UNL     1      -8.859  16.581  66.380  1.00  0.00    -0.345 A  
HETATM    7  C   UNL     1      -8.479  17.835  66.863  1.00  0.00    -0.260 A  
ENDROOT
BRANCH   5   8
HETATM    8  C   UNL     1     -10.519  15.056  65.229  1.00  0.00    -0.403 C  
BRANCH   8   9
HETATM    9  O   UNL     1     -11.379  14.483  66.206  1.00  0.00    -0.340 OA 
BRANCH   9  10
HETATM   10  C   UNL     1     -10.991  13.185  66.708  1.00  0.00    -0.279 C  
BRANCH  10  11
HETATM   11  C   UNL     1     -11.574  13.009  68.122  1.00  0.00    -0.379 A  
HETATM   12  C   UNL     1     -12.649  12.575  70.710  1.00  0.00    -0.212 A  
HETATM   13  C   UNL     1     -11.945  14.085  68.955  1.00  0.00    -0.357 A  
HETATM   14  C   UNL     1     -11.720  11.711  68.661  1.00  0.00    -0.386 A  
HETATM   15  C   UNL     1     -12.506  13.868  70.224  1.00  0.00    -0.380 A  
HETATM   16 CL   UNL     1     -13.304  12.316  72.279  1.00  0.00    -0.536 Cl 
HETATM   17 CL   UNL     1     -11.694  15.740  68.521  1.00  0.00    -0.375 Cl 
HETATM   18  C   UNL     1     -12.242  11.495  69.941  1.00  0.00    -0.328 A  
ENDBRANCH  10  11
BRANCH  10  19
HETATM   19  C   UNL     1      -9.459  12.992  66.584  1.00  0.00    -0.256 C  
BRANCH  19  20
HETATM   20  N   UNL     1      -9.061  11.682  66.111  1.00  0.00    -0.215 NA 
HETATM   21  C   UNL     1      -7.829  11.108  66.260  1.00  0.00    -0.109 A  
HETATM   22  N   UNL     1      -9.206   9.686  65.174  1.00  0.00    -0.230 NA 
HETATM   23  C   UNL     1      -7.930   9.891  65.628  1.00  0.00    -0.130 A  
HETATM   24  C   UNL     1      -9.871  10.770  65.502  1.00  0.00    -0.255 A  
ENDBRANCH  19  20
ENDBRANCH  10  19
ENDBRANCH   9  10
ENDBRANCH   8   9
ENDBRANCH   5   8
TORSDOF 6
ENDMDL
MODEL       93
REMARK 921   NORMALIZED FREE ENERGY PREDICTED BY IDOCK:   -4.88 KCAL/MOL
REMARK 922        TOTAL FREE ENERGY PREDICTED BY IDOCK:   -7.72 KCAL/MOL
REMARK 923 INTER-LIGAND FREE ENERGY PREDICTED BY IDOCK:   -6.93 KCAL/MOL
REMARK 924 INTRA-LIGAND FREE ENERGY PREDICTED BY IDOCK:   -0.79 KCAL/MOL
REMARK 927      BINDING AFFINITY PREDICTED BY RF-SCORE:    0.00 PKD
ROOT
HETATM    1 CL   UNL     1      -8.317   6.436  67.233  1.00  0.00    -0.112 Cl 
HETATM    2  C   UNL     1      -8.405   8.152  67.287  1.00  0.00    -0.121 A  
HETATM    3  C   UNL     1      -8.744   8.794  68.476  1.00  0.00    -0.135 A  
HETATM    4  C   UNL     1      -8.827  10.189  68.511  1.00  0.00    -0.127 A  
HETATM    5  C   UNL     1      -8.572  10.950  67.359  1.00  0.00    -0.127 A  
HETATM    6  C   UNL     1      -8.228  10.288  66.171  1.00  0.00    -0.138 A  
HETATM    7  C   UNL     1      -8.142   8.895  66.139  1.00  0.00    -0.114 A  
ENDROOT
BRANCH   5   8
HETATM    8  C   UNL     1      -8.727  12.453  67.385  1.00  0.00    -0.183 C  
BRANCH   8   9
HETATM    9  O   UNL     1     -10.111  12.779  67.407  1.00  0.00    -0.216 OA 
BRANCH   9  10
HETATM   10  C   UNL     1     -10.430  14.166  67.654  1.00  0.00    -0.245 C  
BRANCH  10  11
HETATM   11  C   UNL     1     -11.200  14.265  68.983  1.00  0.00    -0.294 A  
HETATM   12  C   UNL     1     -12.649  14.339  71.420  1.00  0.00    -0.360 A  
HETATM   13  C   UNL     1     -11.357  15.463  69.711  1.00  0.00    -0.306 A  
HETATM   14  C   UNL     1     -11.759  13.099  69.555  1.00  0.00    -0.382 A  
HETATM   15  C   UNL     1     -12.101  15.505  70.901  1.00  0.00    -0.433 A  
HETATM   16 CL   UNL     1     -13.530  14.389  72.896  1.00  0.00    -0.575 Cl 
HETATM   17 CL   UNL     1     -10.612  16.951  69.242  1.00  0.00    -0.345 Cl 
HETATM   18  C   UNL     1     -12.467  13.132  70.762  1.00  0.00    -0.389 A  
ENDBRANCH  10  11
BRANCH  10  19
HETATM   19  C   UNL     1     -11.135  14.788  66.422  1.00  0.00    -0.340 C  
BRANCH  19  20
HETATM   20  N   UNL     1     -11.471  13.833  65.386  1.00  0.00    -0.306 NA 
HETATM   21  C   UNL     1     -12.648  13.146  65.271  1.00  0.00    -0.472 A  
HETATM   22  N   UNL     1     -11.275  12.598  63.564  1.00  0.00    -0.464 NA 
HETATM   23  C   UNL     1     -12.482  12.351  64.161  1.00  0.00    -0.442 A  
HETATM   24  C   UNL     1     -10.699  13.514  64.309  1.00  0.00    -0.308 A  
ENDBRANCH  19  20
ENDBRANCH  10  19
ENDBRANCH   9  10
ENDBRANCH   8   9
ENDBRANCH   5   8
TORSDOF 6
ENDMDL
MODEL       94
REMARK 921   NORMALIZED FREE ENERGY PREDICTED BY IDOCK:   -4.85 KCAL/MOL
REMARK 922        TOTAL FREE ENERGY PREDICTED BY IDOCK:   -7.68 KCAL/MOL
REMARK 923 INTER-LIGAND FREE ENERGY PREDICTED BY IDOCK:   -6.82 KCAL/MOL
REMARK 924 INTRA-LIGAND FREE ENERGY PREDICTED BY IDOCK:   -0.86 KCAL/MOL
REMARK 927      BINDING AFFINITY PREDICTED BY RF-SCORE:    0.00 PKD
ROOT
HETATM    1 CL   UNL     1     -13.374  15.657  71.135  1.00  0.00    -0.542 Cl 
HETATM    2  C   UNL     1     -12.992  13.980  71.102  1.00  0.00    -0.332 A  
HETATM    3  C   UNL     1     -12.177  13.473  70.093  1.00  0.00    -0.400 A  
HETATM    4  C   UNL     1     -11.881  12.107  70.063  1.00  0.00    -0.383 A  
HETATM    5  C   UNL     1     -12.398  11.241  71.039  1.00  0.00    -0.472 A  
HETATM    6  C   UNL     1     -13.214  11.769  72.050  1.00  0.00    -0.460 A  
HETATM    7  C   UNL     1     -13.506  13.134  72.082  1.00  0.00    -0.653 A  
ENDROOT
BRANCH   5   8
HETATM    8  C   UNL     1     -12.129   9.756  70.965  1.00  0.00    -0.346 C  
BRANCH   8   9
HETATM    9  O   UNL     1     -10.724   9.537  70.957  1.00  0.00    -0.300 OA 
BRANCH   9  10
HETATM   10  C   UNL     1     -10.280   8.300  70.357  1.00  0.00    -0.201 C  
BRANCH  10  11
HETATM   11  C   UNL     1      -9.806   8.590  68.923  1.00  0.00    -0.181 A  
HETATM   12  C   UNL     1      -9.036   9.108  66.243  1.00  0.00    -0.178 A  
HETATM   13  C   UNL     1      -8.455   8.794  68.570  1.00  0.00    -0.130 A  
HETATM   14  C   UNL     1     -10.756   8.705  67.882  1.00  0.00    -0.158 A  
HETATM   15  C   UNL     1      -8.072   9.020  67.239  1.00  0.00    -0.103 A  
HETATM   16 CL   UNL     1      -8.565   9.419  64.618  1.00  0.00    -0.191 Cl 
HETATM   17 CL   UNL     1      -7.177   8.841  69.734  1.00  0.00    -0.050 Cl 
HETATM   18  C   UNL     1     -10.379   8.969  66.560  1.00  0.00    -0.263 A  
ENDBRANCH  10  11
BRANCH  10  19
HETATM   19  C   UNL     1     -11.372   7.208  70.496  1.00  0.00    -0.297 C  
BRANCH  19  20
HETATM   20  N   UNL     1     -10.996   6.097  71.346  1.00  0.00    -0.268 NA 
HETATM   21  C   UNL     1     -11.583   5.752  72.533  1.00  0.00    -0.267 A  
HETATM   22  N   UNL     1      -9.924   4.298  72.052  1.00  0.00    -0.174 NA 
HETATM   23  C   UNL     1     -10.868   4.664  72.974  1.00  0.00    -0.247 A  
HETATM   24  C   UNL     1     -10.042   5.164  71.071  1.00  0.00    -0.227 A  
ENDBRANCH  19  20
ENDBRANCH  10  19
ENDBRANCH   9  10
ENDBRANCH   8   9
ENDBRANCH   5   8
TORSDOF 6
ENDMDL
MODEL       95
REMARK 921   NORMALIZED FREE ENERGY PREDICTED BY IDOCK:   -4.85 KCAL/MOL
REMARK 922        TOTAL FREE ENERGY PREDICTED BY IDOCK:   -7.68 KCAL/MOL
REMARK 923 INTER-LIGAND FREE ENERGY PREDICTED BY IDOCK:   -6.55 KCAL/MOL
REMARK 924 INTRA-LIGAND FREE ENERGY PREDICTED BY IDOCK:   -1.13 KCAL/MOL
REMARK 927      BINDING AFFINITY PREDICTED BY RF-SCORE:    0.00 PKD
ROOT
HETATM    1 CL   UNL     1      -6.748  20.566  68.420  1.00  0.00    -0.295 Cl 
HETATM    2  C   UNL     1      -7.781  19.400  67.692  1.00  0.00    -0.264 A  
HETATM    3  C   UNL     1      -7.258  18.473  66.794  1.00  0.00    -0.231 A  
HETATM    4  C   UNL     1      -8.105  17.536  66.195  1.00  0.00    -0.244 A  
HETATM    5  C   UNL     1      -9.478  17.520  66.489  1.00  0.00    -0.285 A  
HETATM    6  C   UNL     1      -9.986  18.458  67.399  1.00  0.00    -0.347 A  
HETATM    7  C   UNL     1      -9.139  19.391  68.000  1.00  0.00    -0.382 A  
ENDROOT
BRANCH   5   8
HETATM    8  C   UNL     1     -10.399  16.548  65.790  1.00  0.00    -0.341 C  
BRANCH   8   9
HETATM    9  O   UNL     1      -9.808  15.255  65.802  1.00  0.00    -0.319 OA 
BRANCH   9  10
HETATM   10  C   UNL     1     -10.543  14.230  66.508  1.00  0.00    -0.286 C  
BRANCH  10  11
HETATM   11  C   UNL     1     -10.823  14.722  67.939  1.00  0.00    -0.269 A  
HETATM   12  C   UNL     1     -11.447  15.632  70.552  1.00  0.00    -0.360 A  
HETATM   13  C   UNL     1      -9.811  15.043  68.869  1.00  0.00    -0.233 A  
HETATM   14  C   UNL     1     -12.157  14.832  68.393  1.00  0.00    -0.202 A  
HETATM   15  C   UNL     1     -10.122  15.523  70.152  1.00  0.00    -0.161 A  
HETATM   16 CL   UNL     1     -11.822  16.188  72.136  1.00  0.00    -0.602 Cl 
HETATM   17 CL   UNL     1      -8.128  14.823  68.540  1.00  0.00    -0.139 Cl 
HETATM   18  C   UNL     1     -12.467  15.273  69.684  1.00  0.00    -0.174 A  
ENDBRANCH  10  11
BRANCH  10  19
HETATM   19  C   UNL     1      -9.814  12.867  66.397  1.00  0.00    -0.268 C  
BRANCH  19  20
HETATM   20  N   UNL     1     -10.198  11.905  67.409  1.00  0.00    -0.195 NA 
HETATM   21  C   UNL     1     -11.409  11.277  67.510  1.00  0.00    -0.288 A  
HETATM   22  N   UNL     1     -10.042  10.567  69.161  1.00  0.00    -0.215 NA 
HETATM   23  C   UNL     1     -11.303  10.491  68.633  1.00  0.00    -0.252 A  
HETATM   24  C   UNL     1      -9.392  11.406  68.388  1.00  0.00    -0.194 A  
ENDBRANCH  19  20
ENDBRANCH  10  19
ENDBRANCH   9  10
ENDBRANCH   8   9
ENDBRANCH   5   8
TORSDOF 6
ENDMDL
MODEL       96
REMARK 921   NORMALIZED FREE ENERGY PREDICTED BY IDOCK:   -4.83 KCAL/MOL
REMARK 922        TOTAL FREE ENERGY PREDICTED BY IDOCK:   -7.65 KCAL/MOL
REMARK 923 INTER-LIGAND FREE ENERGY PREDICTED BY IDOCK:   -6.91 KCAL/MOL
REMARK 924 INTRA-LIGAND FREE ENERGY PREDICTED BY IDOCK:   -0.74 KCAL/MOL
REMARK 927      BINDING AFFINITY PREDICTED BY RF-SCORE:    0.00 PKD
ROOT
HETATM    1 CL   UNL     1     -12.302  14.622  64.306  1.00  0.00    -0.476 Cl 
HETATM    2  C   UNL     1     -12.019  13.768  65.772  1.00  0.00    -0.399 A  
HETATM    3  C   UNL     1     -11.811  12.392  65.744  1.00  0.00    -0.467 A  
HETATM    4  C   UNL     1     -11.595  11.700  66.940  1.00  0.00    -0.246 A  
HETATM    5  C   UNL     1     -11.587  12.380  68.169  1.00  0.00    -0.395 A  
HETATM    6  C   UNL     1     -11.793  13.766  68.177  1.00  0.00    -0.411 A  
HETATM    7  C   UNL     1     -12.005  14.457  66.982  1.00  0.00    -0.424 A  
ENDROOT
BRANCH   5   8
HETATM    8  C   UNL     1     -11.418  11.619  69.463  1.00  0.00    -0.304 C  
BRANCH   8   9
HETATM    9  O   UNL     1     -11.634  10.234  69.221  1.00  0.00    -0.206 OA 
BRANCH   9  10
HETATM   10  C   UNL     1     -10.463   9.390  69.288  1.00  0.00    -0.218 C  
BRANCH  10  11
HETATM   11  C   UNL     1     -10.733   8.251  70.287  1.00  0.00    -0.237 A  
HETATM   12  C   UNL     1     -11.214   6.226  72.213  1.00  0.00    -0.283 A  
HETATM   13  C   UNL     1     -10.919   6.905  69.909  1.00  0.00    -0.277 A  
HETATM   14  C   UNL     1     -10.846   8.544  71.666  1.00  0.00    -0.356 A  
HETATM   15  C   UNL     1     -11.127   5.898  70.866  1.00  0.00    -0.312 A  
HETATM   16 CL   UNL     1     -11.502   4.994  73.378  1.00  0.00    -0.354 Cl 
HETATM   17 CL   UNL     1     -10.967   6.390  68.260  1.00  0.00    -0.383 Cl 
HETATM   18  C   UNL     1     -11.092   7.547  72.617  1.00  0.00    -0.398 A  
ENDBRANCH  10  11
BRANCH  10  19
HETATM   19  C   UNL     1      -9.197  10.240  69.564  1.00  0.00    -0.170 C  
BRANCH  19  20
HETATM   20  N   UNL     1      -8.373  10.473  68.396  1.00  0.00    -0.121 NA 
HETATM   21  C   UNL     1      -7.855  11.675  67.997  1.00  0.00    -0.128 A  
HETATM   22  N   UNL     1      -7.206  10.054  66.566  1.00  0.00    -0.098 NA 
HETATM   23  C   UNL     1      -7.178  11.396  66.834  1.00  0.00    -0.144 A  
HETATM   24  C   UNL     1      -7.911   9.520  67.538  1.00  0.00    -0.102 A  
ENDBRANCH  19  20
ENDBRANCH  10  19
ENDBRANCH   9  10
ENDBRANCH   8   9
ENDBRANCH   5   8
TORSDOF 6
ENDMDL
MODEL       97
REMARK 921   NORMALIZED FREE ENERGY PREDICTED BY IDOCK:   -4.81 KCAL/MOL
REMARK 922        TOTAL FREE ENERGY PREDICTED BY IDOCK:   -7.63 KCAL/MOL
REMARK 923 INTER-LIGAND FREE ENERGY PREDICTED BY IDOCK:   -6.98 KCAL/MOL
REMARK 924 INTRA-LIGAND FREE ENERGY PREDICTED BY IDOCK:   -0.65 KCAL/MOL
REMARK 927      BINDING AFFINITY PREDICTED BY RF-SCORE:    0.00 PKD
ROOT
HETATM    1 CL   UNL     1      -8.858   9.579  63.978  1.00  0.00    -0.248 Cl 
HETATM    2  C   UNL     1      -9.761  10.934  64.530  1.00  0.00    -0.282 A  
HETATM    3  C   UNL     1      -9.915  12.048  63.708  1.00  0.00    -0.368 A  
HETATM    4  C   UNL     1     -10.640  13.152  64.167  1.00  0.00    -0.384 A  
HETATM    5  C   UNL     1     -11.213  13.150  65.449  1.00  0.00    -0.315 A  
HETATM    6  C   UNL     1     -11.051  12.019  66.262  1.00  0.00    -0.363 A  
HETATM    7  C   UNL     1     -10.331  10.915  65.801  1.00  0.00    -0.303 A  
ENDROOT
BRANCH   5   8
HETATM    8  C   UNL     1     -11.938  14.371  65.965  1.00  0.00    -0.367 C  
BRANCH   8   9
HETATM    9  O   UNL     1     -11.103  15.511  65.807  1.00  0.00    -0.304 OA 
BRANCH   9  10
HETATM   10  C   UNL     1     -10.607  16.105  67.027  1.00  0.00    -0.292 C  
BRANCH  10  11
HETATM   11  C   UNL     1      -9.482  17.094  66.672  1.00  0.00    -0.279 A  
HETATM   12  C   UNL     1      -7.342  18.828  65.998  1.00  0.00    -0.251 A  
HETATM   13  C   UNL     1      -9.597  18.493  66.809  1.00  0.00    -0.321 A  
HETATM   14  C   UNL     1      -8.267  16.607  66.138  1.00  0.00    -0.295 A  
HETATM   15  C   UNL     1      -8.526  19.349  66.505  1.00  0.00    -0.354 A  
HETATM   16 CL   UNL     1      -6.045  19.883  65.594  1.00  0.00    -0.202 Cl 
HETATM   17 CL   UNL     1     -11.060  19.272  67.301  1.00  0.00    -0.439 Cl 
HETATM   18  C   UNL     1      -7.213  17.462  65.797  1.00  0.00     0.044 A  
ENDBRANCH  10  11
BRANCH  10  19
HETATM   19  C   UNL     1     -10.235  15.005  68.054  1.00  0.00    -0.228 C  
BRANCH  19  20
HETATM   20  N   UNL     1     -10.960  15.092  69.305  1.00  0.00    -0.252 NA 
HETATM   21  C   UNL     1     -12.172  14.520  69.579  1.00  0.00    -0.265 A  
HETATM   22  N   UNL     1     -11.419  15.621  71.401  1.00  0.00    -0.391 NA 
HETATM   23  C   UNL     1     -12.457  14.904  70.868  1.00  0.00    -0.330 A  
HETATM   24  C   UNL     1     -10.521  15.695  70.445  1.00  0.00    -0.192 A  
ENDBRANCH  19  20
ENDBRANCH  10  19
ENDBRANCH   9  10
ENDBRANCH   8   9
ENDBRANCH   5   8
TORSDOF 6
ENDMDL
MODEL       98
REMARK 921   NORMALIZED FREE ENERGY PREDICTED BY IDOCK:   -4.81 KCAL/MOL
REMARK 922        TOTAL FREE ENERGY PREDICTED BY IDOCK:   -7.63 KCAL/MOL
REMARK 923 INTER-LIGAND FREE ENERGY PREDICTED BY IDOCK:   -6.54 KCAL/MOL
REMARK 924 INTRA-LIGAND FREE ENERGY PREDICTED BY IDOCK:   -1.09 KCAL/MOL
REMARK 927      BINDING AFFINITY PREDICTED BY RF-SCORE:    0.00 PKD
ROOT
HETATM    1 CL   UNL     1      -9.038  20.687  67.388  1.00  0.00    -0.454 Cl 
HETATM    2  C   UNL     1      -9.431  19.161  66.699  1.00  0.00    -0.344 A  
HETATM    3  C   UNL     1     -10.661  18.976  66.075  1.00  0.00    -0.417 A  
HETATM    4  C   UNL     1     -10.981  17.729  65.528  1.00  0.00     0.249 A  
HETATM    5  C   UNL     1     -10.072  16.661  65.604  1.00  0.00    -0.244 A  
HETATM    6  C   UNL     1      -8.836  16.866  66.232  1.00  0.00    -0.314 A  
HETATM    7  C   UNL     1      -8.516  18.113  66.774  1.00  0.00    -0.273 A  
ENDROOT
BRANCH   5   8
HETATM    8  C   UNL     1     -10.448  15.298  65.070  1.00  0.00    -0.382 C  
BRANCH   8   9
HETATM    9  O   UNL     1      -9.770  14.300  65.823  1.00  0.00    -0.297 OA 
BRANCH   9  10
HETATM   10  C   UNL     1     -10.604  13.452  66.644  1.00  0.00    -0.282 C  
BRANCH  10  11
HETATM   11  C   UNL     1     -10.831  14.147  67.998  1.00  0.00    -0.256 A  
HETATM   12  C   UNL     1     -11.360  15.428  70.473  1.00  0.00    -0.326 A  
HETATM   13  C   UNL     1      -9.787  14.611  68.826  1.00  0.00    -0.227 A  
HETATM   14  C   UNL     1     -12.148  14.311  68.487  1.00  0.00    -0.295 A  
HETATM   15  C   UNL     1     -10.051  15.271  70.036  1.00  0.00    -0.178 A  
HETATM   16 CL   UNL     1     -11.677  16.207  71.973  1.00  0.00    -0.583 Cl 
HETATM   17 CL   UNL     1      -8.116  14.358  68.461  1.00  0.00    -0.142 Cl 
HETATM   18  C   UNL     1     -12.410  14.935  69.712  1.00  0.00    -0.283 A  
ENDBRANCH  10  11
BRANCH  10  19
HETATM   19  C   UNL     1     -10.017  12.020  66.715  1.00  0.00    -0.201 C  
BRANCH  19  20
HETATM   20  N   UNL     1      -9.785  11.409  65.422  1.00  0.00    -0.224 NA 
HETATM   21  C   UNL     1      -8.705  10.647  65.069  1.00  0.00    -0.176 A  
HETATM   22  N   UNL     1     -10.131  10.802  63.325  1.00  0.00    -0.310 NA 
HETATM   23  C   UNL     1      -8.920  10.324  63.750  1.00  0.00    -0.239 A  
HETATM   24  C   UNL     1     -10.640  11.428  64.361  1.00  0.00    -0.341 A  
ENDBRANCH  19  20
ENDBRANCH  10  19
ENDBRANCH   9  10
ENDBRANCH   8   9
ENDBRANCH   5   8
TORSDOF 6
ENDMDL
MODEL       99
REMARK 921   NORMALIZED FREE ENERGY PREDICTED BY IDOCK:   -4.81 KCAL/MOL
REMARK 922        TOTAL FREE ENERGY PREDICTED BY IDOCK:   -7.62 KCAL/MOL
REMARK 923 INTER-LIGAND FREE ENERGY PREDICTED BY IDOCK:   -6.49 KCAL/MOL
REMARK 924 INTRA-LIGAND FREE ENERGY PREDICTED BY IDOCK:   -1.13 KCAL/MOL
REMARK 927      BINDING AFFINITY PREDICTED BY RF-SCORE:    0.00 PKD
ROOT
HETATM    1 CL   UNL     1     -12.264  15.361  63.986  1.00  0.00    -0.171 Cl 
HETATM    2  C   UNL     1     -11.495  14.474  65.244  1.00  0.00    -0.355 A  
HETATM    3  C   UNL     1     -12.259  13.884  66.246  1.00  0.00    -0.498 A  
HETATM    4  C   UNL     1     -11.628  13.176  67.273  1.00  0.00    -0.404 A  
HETATM    5  C   UNL     1     -10.229  13.055  67.303  1.00  0.00    -0.239 A  
HETATM    6  C   UNL     1      -9.475  13.652  66.284  1.00  0.00    -0.209 A  
HETATM    7  C   UNL     1     -10.107  14.356  65.256  1.00  0.00    -0.387 A  
ENDROOT
BRANCH   5   8
HETATM    8  C   UNL     1      -9.548  12.344  68.450  1.00  0.00    -0.180 C  
BRANCH   8   9
HETATM    9  O   UNL     1      -9.287  10.998  68.075  1.00  0.00    -0.154 OA 
BRANCH   9  10
HETATM   10  C   UNL     1     -10.421  10.103  68.096  1.00  0.00    -0.206 C  
BRANCH  10  11
HETATM   11  C   UNL     1     -10.494   9.433  69.480  1.00  0.00    -0.229 A  
HETATM   12  C   UNL     1     -10.559   8.118  71.991  1.00  0.00    -0.269 A  
HETATM   13  C   UNL     1     -11.338   9.874  70.521  1.00  0.00    -0.327 A  
HETATM   14  C   UNL     1      -9.651   8.336  69.770  1.00  0.00    -0.171 A  
HETATM   15  C   UNL     1     -11.392   9.203  71.753  1.00  0.00    -0.451 A  
HETATM   16 CL   UNL     1     -10.604   7.321  73.515  1.00  0.00    -0.426 Cl 
HETATM   17 CL   UNL     1     -12.322  11.290  70.396  1.00  0.00    -0.413 Cl 
HETATM   18  C   UNL     1      -9.676   7.691  71.012  1.00  0.00    -0.169 A  
ENDBRANCH  10  11
BRANCH  10  19
HETATM   19  C   UNL     1     -10.374   9.139  66.884  1.00  0.00    -0.251 C  
BRANCH  19  20
HETATM   20  N   UNL     1      -9.879   9.743  65.664  1.00  0.00    -0.296 NA 
HETATM   21  C   UNL     1      -8.650   9.535  65.100  1.00  0.00    -0.162 A  
HETATM   22  N   UNL     1      -9.845  10.962  63.821  1.00  0.00    -0.306 NA 
HETATM   23  C   UNL     1      -8.636  10.340  63.985  1.00  0.00    -0.190 A  
HETATM   24  C   UNL     1     -10.582  10.563  64.833  1.00  0.00    -0.028 A  
ENDBRANCH  19  20
ENDBRANCH  10  19
ENDBRANCH   9  10
ENDBRANCH   8   9
ENDBRANCH   5   8
TORSDOF 6
ENDMDL
MODEL      100
REMARK 921   NORMALIZED FREE ENERGY PREDICTED BY IDOCK:   -4.79 KCAL/MOL
REMARK 922        TOTAL FREE ENERGY PREDICTED BY IDOCK:   -7.60 KCAL/MOL
REMARK 923 INTER-LIGAND FREE ENERGY PREDICTED BY IDOCK:   -7.11 KCAL/MOL
REMARK 924 INTRA-LIGAND FREE ENERGY PREDICTED BY IDOCK:   -0.49 KCAL/MOL
REMARK 927      BINDING AFFINITY PREDICTED BY RF-SCORE:    0.00 PKD
ROOT
HETATM    1 CL   UNL     1     -10.501  20.185  65.616  1.00  0.00    -0.450 Cl 
HETATM    2  C   UNL     1     -10.317  18.719  66.498  1.00  0.00    -0.424 A  
HETATM    3  C   UNL     1     -10.292  17.502  65.823  1.00  0.00    -0.217 A  
HETATM    4  C   UNL     1     -10.156  16.312  66.545  1.00  0.00    -0.301 A  
HETATM    5  C   UNL     1     -10.045  16.334  67.945  1.00  0.00    -0.247 A  
HETATM    6  C   UNL     1     -10.068  17.569  68.608  1.00  0.00    -0.361 A  
HETATM    7  C   UNL     1     -10.200  18.757  67.885  1.00  0.00    -0.448 A  
ENDROOT
BRANCH   5   8
HETATM    8  C   UNL     1      -9.964  15.043  68.726  1.00  0.00    -0.228 C  
BRANCH   8   9
HETATM    9  O   UNL     1     -11.258  14.456  68.793  1.00  0.00    -0.236 OA 
BRANCH   9  10
HETATM   10  C   UNL     1     -11.294  13.028  69.010  1.00  0.00    -0.289 C  
BRANCH  10  11
HETATM   11  C   UNL     1     -10.920  12.320  67.696  1.00  0.00    -0.287 A  
HETATM   12  C   UNL     1     -10.154  10.956  65.331  1.00  0.00    -0.277 A  
HETATM   13  C   UNL     1     -11.463  12.662  66.440  1.00  0.00    -0.356 A  
HETATM   14  C   UNL     1     -10.015  11.234  67.721  1.00  0.00    -0.193 A  
HETATM   15  C   UNL     1     -11.059  12.006  65.265  1.00  0.00    -0.367 A  
HETATM   16 CL   UNL     1      -9.689  10.133  63.893  1.00  0.00    -0.323 Cl 
HETATM   17 CL   UNL     1     -12.695  13.858  66.243  1.00  0.00    -0.377 Cl 
HETATM   18  C   UNL     1      -9.642  10.554  66.556  1.00  0.00    -0.216 A  
ENDBRANCH  10  11
BRANCH  10  19
HETATM   19  C   UNL     1     -12.649  12.610  69.637  1.00  0.00     0.382 C  
BRANCH  19  20
HETATM   20  N   UNL     1     -12.969  13.298  70.870  1.00  0.00    -0.161 NA 
HETATM   21  C   UNL     1     -13.168  14.644  71.018  1.00  0.00    -0.374 A  
HETATM   22  N   UNL     1     -13.445  13.610  73.006  1.00  0.00    -0.504 NA 
HETATM   23  C   UNL     1     -13.412  14.816  72.360  1.00  0.00    -0.428 A  
HETATM   24  C   UNL     1     -13.200  12.712  72.079  1.00  0.00    -0.427 A  
ENDBRANCH  19  20
ENDBRANCH  10  19
ENDBRANCH   9  10
ENDBRANCH   8   9
ENDBRANCH   5   8
TORSDOF 6
ENDMDL
MODEL      101
REMARK 921   NORMALIZED FREE ENERGY PREDICTED BY IDOCK:   -4.79 KCAL/MOL
REMARK 922        TOTAL FREE ENERGY PREDICTED BY IDOCK:   -7.59 KCAL/MOL
REMARK 923 INTER-LIGAND FREE ENERGY PREDICTED BY IDOCK:   -6.85 KCAL/MOL
REMARK 924 INTRA-LIGAND FREE ENERGY PREDICTED BY IDOCK:   -0.74 KCAL/MOL
REMARK 927      BINDING AFFINITY PREDICTED BY RF-SCORE:    0.00 PKD
ROOT
HETATM    1 CL   UNL     1      -7.118   6.385  67.834  1.00  0.00    -0.082 Cl 
HETATM    2  C   UNL     1      -8.287   7.559  68.297  1.00  0.00    -0.125 A  
HETATM    3  C   UNL     1      -7.877   8.755  68.879  1.00  0.00    -0.104 A  
HETATM    4  C   UNL     1      -8.832   9.700  69.266  1.00  0.00    -0.164 A  
HETATM    5  C   UNL     1     -10.201   9.454  69.074  1.00  0.00    -0.216 A  
HETATM    6  C   UNL     1     -10.596   8.246  68.483  1.00  0.00    -0.143 A  
HETATM    7  C   UNL     1      -9.641   7.304  68.093  1.00  0.00    -0.145 A  
ENDROOT
BRANCH   5   8
HETATM    8  C   UNL     1     -11.232  10.449  69.553  1.00  0.00    -0.269 C  
BRANCH   8   9
HETATM    9  O   UNL     1     -12.045  10.843  68.456  1.00  0.00    -0.545 OA 
BRANCH   9  10
HETATM   10  C   UNL     1     -11.769  12.148  67.899  1.00  0.00    -0.336 C  
BRANCH  10  11
HETATM   11  C   UNL     1     -11.138  11.966  66.507  1.00  0.00    -0.357 A  
HETATM   12  C   UNL     1      -9.895  11.570  63.990  1.00  0.00    -0.274 A  
HETATM   13  C   UNL     1     -11.601  12.621  65.346  1.00  0.00    -0.363 A  
HETATM   14  C   UNL     1     -10.057  11.070  66.341  1.00  0.00    -0.275 A  
HETATM   15  C   UNL     1     -10.966  12.447  64.106  1.00  0.00    -0.416 A  
HETATM   16 CL   UNL     1      -9.142  11.335  62.461  1.00  0.00    -0.361 Cl 
HETATM   17 CL   UNL     1     -13.004  13.631  65.333  1.00  0.00    -0.436 Cl 
HETATM   18  C   UNL     1      -9.448  10.867  65.098  1.00  0.00    -0.268 A  
ENDBRANCH  10  11
BRANCH  10  19
HETATM   19  C   UNL     1     -10.951  13.002  68.902  1.00  0.00    -0.230 C  
BRANCH  19  20
HETATM   20  N   UNL     1     -11.756  13.866  69.740  1.00  0.00    -0.298 NA 
HETATM   21  C   UNL     1     -11.943  15.211  69.571  1.00  0.00    -0.321 A  
HETATM   22  N   UNL     1     -13.116  14.498  71.363  1.00  0.00    -0.336 NA 
HETATM   23  C   UNL     1     -12.749  15.587  70.619  1.00  0.00    -0.436 A  
HETATM   24  C   UNL     1     -12.523  13.472  70.795  1.00  0.00    -0.353 A  
ENDBRANCH  19  20
ENDBRANCH  10  19
ENDBRANCH   9  10
ENDBRANCH   8   9
ENDBRANCH   5   8
TORSDOF 6
ENDMDL
MODEL      102
REMARK 921   NORMALIZED FREE ENERGY PREDICTED BY IDOCK:   -4.78 KCAL/MOL
REMARK 922        TOTAL FREE ENERGY PREDICTED BY IDOCK:   -7.58 KCAL/MOL
REMARK 923 INTER-LIGAND FREE ENERGY PREDICTED BY IDOCK:   -6.72 KCAL/MOL
REMARK 924 INTRA-LIGAND FREE ENERGY PREDICTED BY IDOCK:   -0.86 KCAL/MOL
REMARK 927      BINDING AFFINITY PREDICTED BY RF-SCORE:    0.00 PKD
ROOT
HETATM    1 CL   UNL     1      -5.995   9.644  66.641  1.00  0.00    -0.058 Cl 
HETATM    2  C   UNL     1      -6.594  11.184  67.115  1.00  0.00    -0.098 A  
HETATM    3  C   UNL     1      -5.706  12.223  67.383  1.00  0.00    -0.139 A  
HETATM    4  C   UNL     1      -6.198  13.470  67.781  1.00  0.00    -0.159 A  
HETATM    5  C   UNL     1      -7.579  13.684  67.915  1.00  0.00    -0.156 A  
HETATM    6  C   UNL     1      -8.459  12.629  67.637  1.00  0.00    -0.173 A  
HETATM    7  C   UNL     1      -7.967  11.385  67.236  1.00  0.00    -0.149 A  
ENDROOT
BRANCH   5   8
HETATM    8  C   UNL     1      -8.102  15.013  68.408  1.00  0.00    -0.141 C  
BRANCH   8   9
HETATM    9  O   UNL     1      -9.318  15.315  67.735  1.00  0.00    -0.194 OA 
BRANCH   9  10
HETATM   10  C   UNL     1     -10.194  16.251  68.400  1.00  0.00    -0.249 C  
BRANCH  10  11
HETATM   11  C   UNL     1     -11.053  15.483  69.421  1.00  0.00    -0.291 A  
HETATM   12  C   UNL     1     -12.595  14.136  71.382  1.00  0.00    -0.368 A  
HETATM   13  C   UNL     1     -11.790  14.322  69.108  1.00  0.00    -0.330 A  
HETATM   14  C   UNL     1     -11.162  15.965  70.745  1.00  0.00    -0.398 A  
HETATM   15  C   UNL     1     -12.529  13.639  70.087  1.00  0.00    -0.305 A  
HETATM   16 CL   UNL     1     -13.530  13.314  72.569  1.00  0.00    -0.669 Cl 
HETATM   17 CL   UNL     1     -11.897  13.680  67.506  1.00  0.00    -0.406 Cl 
HETATM   18  C   UNL     1     -11.929  15.306  71.712  1.00  0.00    -0.453 A  
ENDBRANCH  10  11
BRANCH  10  19
HETATM   19  C   UNL     1     -10.978  17.092  67.360  1.00  0.00    -0.057 C  
BRANCH  19  20
HETATM   20  N   UNL     1     -10.419  18.405  67.116  1.00  0.00    -0.398 NA 
HETATM   21  C   UNL     1      -9.676  19.144  67.995  1.00  0.00    -0.344 A  
HETATM   22  N   UNL     1      -9.892  20.268  66.049  1.00  0.00    -0.354 NA 
HETATM   23  C   UNL     1      -9.404  20.315  67.327  1.00  0.00    -0.407 A  
HETATM   24  C   UNL     1     -10.476  19.096  65.942  1.00  0.00    -0.424 A  
ENDBRANCH  19  20
ENDBRANCH  10  19
ENDBRANCH   9  10
ENDBRANCH   8   9
ENDBRANCH   5   8
TORSDOF 6
ENDMDL
MODEL      103
REMARK 921   NORMALIZED FREE ENERGY PREDICTED BY IDOCK:   -4.77 KCAL/MOL
REMARK 922        TOTAL FREE ENERGY PREDICTED BY IDOCK:   -7.57 KCAL/MOL
REMARK 923 INTER-LIGAND FREE ENERGY PREDICTED BY IDOCK:   -6.66 KCAL/MOL
REMARK 924 INTRA-LIGAND FREE ENERGY PREDICTED BY IDOCK:   -0.90 KCAL/MOL
REMARK 927      BINDING AFFINITY PREDICTED BY RF-SCORE:    0.00 PKD
ROOT
HETATM    1 CL   UNL     1     -10.371  17.694  68.565  1.00  0.00    -0.369 Cl 
HETATM    2  C   UNL     1     -11.011  16.140  68.928  1.00  0.00    -0.324 A  
HETATM    3  C   UNL     1     -11.393  15.832  70.231  1.00  0.00    -0.371 A  
HETATM    4  C   UNL     1     -11.901  14.563  70.523  1.00  0.00    -0.372 A  
HETATM    5  C   UNL     1     -12.028  13.594  69.515  1.00  0.00    -0.397 A  
HETATM    6  C   UNL     1     -11.644  13.922  68.207  1.00  0.00    -0.372 A  
HETATM    7  C   UNL     1     -11.140  15.191  67.916  1.00  0.00    -0.322 A  
ENDROOT
BRANCH   5   8
HETATM    8  C   UNL     1     -12.516  12.203  69.848  1.00  0.00     0.072 C  
BRANCH   8   9
HETATM    9  O   UNL     1     -11.539  11.545  70.644  1.00  0.00    -0.176 OA 
BRANCH   9  10
HETATM   10  C   UNL     1     -10.999  10.321  70.099  1.00  0.00    -0.314 C  
BRANCH  10  11
HETATM   11  C   UNL     1     -10.905   9.278  71.228  1.00  0.00    -0.417 A  
HETATM   12  C   UNL     1     -10.621   7.356  73.293  1.00  0.00    -0.392 A  
HETATM   13  C   UNL     1     -12.028   8.701  71.856  1.00  0.00    -0.356 A  
HETATM   14  C   UNL     1      -9.636   8.885  71.713  1.00  0.00    -0.353 A  
HETATM   15  C   UNL     1     -11.886   7.727  72.857  1.00  0.00    -0.152 A  
HETATM   16 CL   UNL     1     -10.453   6.186  74.543  1.00  0.00    -0.216 Cl 
HETATM   17 CL   UNL     1     -13.652   9.175  71.499  1.00  0.00    -0.414 Cl 
HETATM   18  C   UNL     1      -9.494   7.943  72.737  1.00  0.00    -0.304 A  
ENDBRANCH  10  11
BRANCH  10  19
HETATM   19  C   UNL     1      -9.681  10.604  69.335  1.00  0.00    -0.116 C  
BRANCH  19  20
HETATM   20  N   UNL     1      -9.632  10.034  68.004  1.00  0.00    -0.138 NA 
HETATM   21  C   UNL     1      -8.981   8.888  67.638  1.00  0.00    -0.134 A  
HETATM   22  N   UNL     1     -10.023   9.778  65.844  1.00  0.00    -0.282 NA 
HETATM   23  C   UNL     1      -9.198   8.778  66.285  1.00  0.00    -0.207 A  
HETATM   24  C   UNL     1     -10.289  10.504  66.906  1.00  0.00    -0.239 A  
ENDBRANCH  19  20
ENDBRANCH  10  19
ENDBRANCH   9  10
ENDBRANCH   8   9
ENDBRANCH   5   8
TORSDOF 6
ENDMDL
MODEL      104
REMARK 921   NORMALIZED FREE ENERGY PREDICTED BY IDOCK:   -4.76 KCAL/MOL
REMARK 922        TOTAL FREE ENERGY PREDICTED BY IDOCK:   -7.56 KCAL/MOL
REMARK 923 INTER-LIGAND FREE ENERGY PREDICTED BY IDOCK:   -7.25 KCAL/MOL
REMARK 924 INTRA-LIGAND FREE ENERGY PREDICTED BY IDOCK:   -0.31 KCAL/MOL
REMARK 927      BINDING AFFINITY PREDICTED BY RF-SCORE:    0.00 PKD
ROOT
HETATM    1 CL   UNL     1      -8.698   9.274  63.119  1.00  0.00    -0.214 Cl 
HETATM    2  C   UNL     1      -9.607  10.323  64.134  1.00  0.00    -0.315 A  
HETATM    3  C   UNL     1      -9.480  10.233  65.517  1.00  0.00    -0.277 A  
HETATM    4  C   UNL     1     -10.231  11.079  66.339  1.00  0.00    -0.284 A  
HETATM    5  C   UNL     1     -11.114  12.018  65.782  1.00  0.00    -0.371 A  
HETATM    6  C   UNL     1     -11.226  12.099  64.386  1.00  0.00    -0.400 A  
HETATM    7  C   UNL     1     -10.472  11.255  63.567  1.00  0.00    -0.457 A  
ENDROOT
BRANCH   5   8
HETATM    8  C   UNL     1     -11.972  12.885  66.674  1.00  0.00    -0.366 C  
BRANCH   8   9
HETATM    9  O   UNL     1     -11.508  14.228  66.605  1.00  0.00    -0.336 OA 
BRANCH   9  10
HETATM   10  C   UNL     1     -11.160  14.842  67.865  1.00  0.00    -0.298 C  
BRANCH  10  11
HETATM   11  C   UNL     1     -10.778  16.311  67.608  1.00  0.00    -0.311 A  
HETATM   12  C   UNL     1     -10.092  19.038  67.243  1.00  0.00    -0.364 A  
HETATM   13  C   UNL     1     -10.520  16.840  66.326  1.00  0.00    -0.261 A  
HETATM   14  C   UNL     1     -10.630  17.196  68.700  1.00  0.00    -0.352 A  
HETATM   15  C   UNL     1     -10.211  18.198  66.144  1.00  0.00    -0.372 A  
HETATM   16 CL   UNL     1      -9.679  20.693  67.017  1.00  0.00    -0.556 Cl 
HETATM   17 CL   UNL     1     -10.504  15.871  64.895  1.00  0.00    -0.300 Cl 
HETATM   18  C   UNL     1     -10.283  18.540  68.523  1.00  0.00    -0.389 A  
ENDBRANCH  10  11
BRANCH  10  19
HETATM   19  C   UNL     1     -10.097  13.992  68.607  1.00  0.00    -0.217 C  
BRANCH  19  20
HETATM   20  N   UNL     1      -8.729  14.373  68.323  1.00  0.00    -0.173 NA 
HETATM   21  C   UNL     1      -7.854  14.954  69.199  1.00  0.00    -0.171 A  
HETATM   22  N   UNL     1      -6.839  14.632  67.208  1.00  0.00    -0.242 NA 
HETATM   23  C   UNL     1      -6.705  15.150  68.469  1.00  0.00    -0.108 A  
HETATM   24  C   UNL     1      -8.059  14.148  67.158  1.00  0.00    -0.115 A  
ENDBRANCH  19  20
ENDBRANCH  10  19
ENDBRANCH   9  10
ENDBRANCH   8   9
ENDBRANCH   5   8
TORSDOF 6
ENDMDL
MODEL      105
REMARK 921   NORMALIZED FREE ENERGY PREDICTED BY IDOCK:   -4.76 KCAL/MOL
REMARK 922        TOTAL FREE ENERGY PREDICTED BY IDOCK:   -7.56 KCAL/MOL
REMARK 923 INTER-LIGAND FREE ENERGY PREDICTED BY IDOCK:   -6.47 KCAL/MOL
REMARK 924 INTRA-LIGAND FREE ENERGY PREDICTED BY IDOCK:   -1.09 KCAL/MOL
REMARK 927      BINDING AFFINITY PREDICTED BY RF-SCORE:    0.00 PKD
ROOT
HETATM    1 CL   UNL     1     -12.405  14.543  64.221  1.00  0.00    -0.474 Cl 
HETATM    2  C   UNL     1     -11.655  13.080  64.728  1.00  0.00    -0.329 A  
HETATM    3  C   UNL     1     -11.060  12.242  63.790  1.00  0.00    -0.507 A  
HETATM    4  C   UNL     1     -10.463  11.048  64.206  1.00  0.00    -0.427 A  
HETATM    5  C   UNL     1     -10.460  10.685  65.563  1.00  0.00    -0.246 A  
HETATM    6  C   UNL     1     -11.060  11.543  66.495  1.00  0.00    -0.341 A  
HETATM    7  C   UNL     1     -11.652  12.737  66.078  1.00  0.00    -0.432 A  
ENDROOT
BRANCH   5   8
HETATM    8  C   UNL     1      -9.872   9.364  65.999  1.00  0.00    -0.296 C  
BRANCH   8   9
HETATM    9  O   UNL     1      -9.437   9.470  67.349  1.00  0.00    -0.132 OA 
BRANCH   9  10
HETATM   10  C   UNL     1      -9.503   8.258  68.133  1.00  0.00    -0.137 C  
BRANCH  10  11
HETATM   11  C   UNL     1     -10.513   8.466  69.276  1.00  0.00    -0.223 A  
HETATM   12  C   UNL     1     -12.353   8.958  71.377  1.00  0.00    -0.313 A  
HETATM   13  C   UNL     1     -11.143   7.409  69.965  1.00  0.00    -0.220 A  
HETATM   14  C   UNL     1     -10.882   9.777  69.653  1.00  0.00    -0.274 A  
HETATM   15  C   UNL     1     -12.031   7.653  71.026  1.00  0.00    -0.296 A  
HETATM   16 CL   UNL     1     -13.467   9.252  72.654  1.00  0.00    -0.455 Cl 
HETATM   17 CL   UNL     1     -10.930   5.748  69.536  1.00  0.00    -0.424 Cl 
HETATM   18  C   UNL     1     -11.796  10.022  70.684  1.00  0.00    -0.411 A  
ENDBRANCH  10  11
BRANCH  10  19
HETATM   19  C   UNL     1      -8.082   7.814  68.564  1.00  0.00    -0.123 C  
BRANCH  19  20
HETATM   20  N   UNL     1      -7.720   6.481  68.129  1.00  0.00    -0.103 NA 
HETATM   21  C   UNL     1      -6.881   5.618  68.779  1.00  0.00    -0.059 A  
HETATM   22  N   UNL     1      -7.668   4.645  66.900  1.00  0.00    -0.090 NA 
HETATM   23  C   UNL     1      -6.828   4.506  67.972  1.00  0.00    -0.055 A  
HETATM   24  C   UNL     1      -8.211   5.833  67.035  1.00  0.00    -0.101 A  
ENDBRANCH  19  20
ENDBRANCH  10  19
ENDBRANCH   9  10
ENDBRANCH   8   9
ENDBRANCH   5   8
TORSDOF 6
ENDMDL
MODEL      106
REMARK 921   NORMALIZED FREE ENERGY PREDICTED BY IDOCK:   -4.72 KCAL/MOL
REMARK 922        TOTAL FREE ENERGY PREDICTED BY IDOCK:   -7.51 KCAL/MOL
REMARK 923 INTER-LIGAND FREE ENERGY PREDICTED BY IDOCK:   -7.21 KCAL/MOL
REMARK 924 INTRA-LIGAND FREE ENERGY PREDICTED BY IDOCK:   -0.30 KCAL/MOL
REMARK 927      BINDING AFFINITY PREDICTED BY RF-SCORE:    0.00 PKD
ROOT
HETATM    1 CL   UNL     1     -11.835  15.777  69.124  1.00  0.00    -0.395 Cl 
HETATM    2  C   UNL     1     -12.120  14.242  69.847  1.00  0.00    -0.347 A  
HETATM    3  C   UNL     1     -11.783  13.078  69.163  1.00  0.00    -0.378 A  
HETATM    4  C   UNL     1     -12.029  11.833  69.749  1.00  0.00    -0.392 A  
HETATM    5  C   UNL     1     -12.615  11.746  71.023  1.00  0.00    -0.409 A  
HETATM    6  C   UNL     1     -12.944  12.928  71.700  1.00  0.00    -0.410 A  
HETATM    7  C   UNL     1     -12.694  14.171  71.114  1.00  0.00    -0.431 A  
ENDROOT
BRANCH   5   8
HETATM    8  C   UNL     1     -12.939  10.398  71.625  1.00  0.00    -0.475 C  
BRANCH   8   9
HETATM    9  O   UNL     1     -11.995   9.441  71.162  1.00  0.00    -0.300 OA 
BRANCH   9  10
HETATM   10  C   UNL     1     -11.934   8.202  71.902  1.00  0.00    -0.320 C  
BRANCH  10  11
HETATM   11  C   UNL     1     -10.525   8.055  72.502  1.00  0.00    -0.383 A  
HETATM   12  C   UNL     1      -7.973   7.736  73.698  1.00  0.00    -0.169 A  
HETATM   13  C   UNL     1      -9.360   8.585  71.906  1.00  0.00    -0.267 A  
HETATM   14  C   UNL     1     -10.346   7.319  73.696  1.00  0.00    -0.399 A  
HETATM   15  C   UNL     1      -8.102   8.453  72.515  1.00  0.00    -0.177 A  
HETATM   16 CL   UNL     1      -6.424   7.548  74.422  1.00  0.00    -0.088 Cl 
HETATM   17 CL   UNL     1      -9.369   9.379  70.371  1.00  0.00    -0.294 Cl 
HETATM   18  C   UNL     1      -9.087   7.154  74.283  1.00  0.00    -0.251 A  
ENDBRANCH  10  11
BRANCH  10  19
HETATM   19  C   UNL     1     -12.417   7.021  71.022  1.00  0.00    -0.326 C  
BRANCH  19  20
HETATM   20  N   UNL     1     -11.403   6.489  70.135  1.00  0.00    -0.373 NA 
HETATM   21  C   UNL     1     -11.062   6.986  68.907  1.00  0.00    -0.050 A  
HETATM   22  N   UNL     1      -9.774   5.196  69.389  1.00  0.00    -0.160 NA 
HETATM   23  C   UNL     1     -10.085   6.137  68.444  1.00  0.00    -0.158 A  
HETATM   24  C   UNL     1     -10.566   5.449  70.406  1.00  0.00    -0.252 A  
ENDBRANCH  19  20
ENDBRANCH  10  19
ENDBRANCH   9  10
ENDBRANCH   8   9
ENDBRANCH   5   8
TORSDOF 6
ENDMDL
MODEL      107
REMARK 921   NORMALIZED FREE ENERGY PREDICTED BY IDOCK:   -4.71 KCAL/MOL
REMARK 922        TOTAL FREE ENERGY PREDICTED BY IDOCK:   -7.49 KCAL/MOL
REMARK 923 INTER-LIGAND FREE ENERGY PREDICTED BY IDOCK:   -6.61 KCAL/MOL
REMARK 924 INTRA-LIGAND FREE ENERGY PREDICTED BY IDOCK:   -0.88 KCAL/MOL
REMARK 927      BINDING AFFINITY PREDICTED BY RF-SCORE:    0.00 PKD
ROOT
HETATM    1 CL   UNL     1      -5.604   7.588  67.586  1.00  0.00    -0.033 Cl 
HETATM    2  C   UNL     1      -6.227   9.191  67.551  1.00  0.00    -0.058 A  
HETATM    3  C   UNL     1      -5.943  10.023  66.471  1.00  0.00    -0.060 A  
HETATM    4  C   UNL     1      -6.441  11.329  66.453  1.00  0.00    -0.080 A  
HETATM    5  C   UNL     1      -7.224  11.811  67.515  1.00  0.00    -0.123 A  
HETATM    6  C   UNL     1      -7.503  10.959  68.593  1.00  0.00    -0.105 A  
HETATM    7  C   UNL     1      -7.008   9.653  68.607  1.00  0.00    -0.064 A  
ENDROOT
BRANCH   5   8
HETATM    8  C   UNL     1      -7.704  13.243  67.522  1.00  0.00    -0.171 C  
BRANCH   8   9
HETATM    9  O   UNL     1      -8.960  13.317  66.859  1.00  0.00    -0.225 OA 
BRANCH   9  10
HETATM   10  C   UNL     1      -9.882  14.312  67.358  1.00  0.00    -0.235 C  
BRANCH  10  11
HETATM   11  C   UNL     1     -10.721  13.686  68.485  1.00  0.00    -0.269 A  
HETATM   12  C   UNL     1     -12.261  12.432  70.510  1.00  0.00    -0.295 A  
HETATM   13  C   UNL     1     -11.307  14.429  69.532  1.00  0.00    -0.276 A  
HETATM   14  C   UNL     1     -10.901  12.284  68.526  1.00  0.00    -0.267 A  
HETATM   15  C   UNL     1     -12.094  13.811  70.516  1.00  0.00    -0.416 A  
HETATM   16 CL   UNL     1     -13.198  11.676  71.738  1.00  0.00    -0.524 Cl 
HETATM   17 CL   UNL     1     -11.063  16.129  69.727  1.00  0.00    -0.334 Cl 
HETATM   18  C   UNL     1     -11.653  11.663  69.529  1.00  0.00    -0.397 A  
ENDBRANCH  10  11
BRANCH  10  19
HETATM   19  C   UNL     1     -10.686  14.939  66.190  1.00  0.00    -0.317 C  
BRANCH  19  20
HETATM   20  N   UNL     1     -11.276  13.971  65.289  1.00  0.00    -0.309 NA 
HETATM   21  C   UNL     1     -10.657  13.377  64.223  1.00  0.00    -0.341 A  
HETATM   22  N   UNL     1     -12.769  12.599  64.410  1.00  0.00    -0.712 NA 
HETATM   23  C   UNL     1     -11.620  12.568  63.666  1.00  0.00    -0.504 A  
HETATM   24  C   UNL     1     -12.523  13.432  65.395  1.00  0.00    -0.494 A  
ENDBRANCH  19  20
ENDBRANCH  10  19
ENDBRANCH   9  10
ENDBRANCH   8   9
ENDBRANCH   5   8
TORSDOF 6
ENDMDL
MODEL      108
REMARK 921   NORMALIZED FREE ENERGY PREDICTED BY IDOCK:   -4.66 KCAL/MOL
REMARK 922        TOTAL FREE ENERGY PREDICTED BY IDOCK:   -7.42 KCAL/MOL
REMARK 923 INTER-LIGAND FREE ENERGY PREDICTED BY IDOCK:   -6.68 KCAL/MOL
REMARK 924 INTRA-LIGAND FREE ENERGY PREDICTED BY IDOCK:   -0.75 KCAL/MOL
REMARK 927      BINDING AFFINITY PREDICTED BY RF-SCORE:    0.00 PKD
ROOT
HETATM    1 CL   UNL     1     -12.372  14.646  64.140  1.00  0.00    -0.434 Cl 
HETATM    2  C   UNL     1     -11.657  13.156  64.617  1.00  0.00    -0.345 A  
HETATM    3  C   UNL     1     -11.074  12.327  63.662  1.00  0.00    -0.537 A  
HETATM    4  C   UNL     1     -10.507  11.111  64.054  1.00  0.00    -0.447 A  
HETATM    5  C   UNL     1     -10.520  10.716  65.402  1.00  0.00    -0.254 A  
HETATM    6  C   UNL     1     -11.107  11.565  66.351  1.00  0.00    -0.328 A  
HETATM    7  C   UNL     1     -11.670  12.782  65.959  1.00  0.00    -0.470 A  
ENDROOT
BRANCH   5   8
HETATM    8  C   UNL     1      -9.964   9.372  65.811  1.00  0.00    -0.208 C  
BRANCH   8   9
HETATM    9  O   UNL     1     -10.669   8.904  66.953  1.00  0.00    -0.230 OA 
BRANCH   9  10
HETATM   10  C   UNL     1     -10.333   7.573  67.403  1.00  0.00    -0.276 C  
BRANCH  10  11
HETATM   11  C   UNL     1     -10.402   7.540  68.940  1.00  0.00    -0.220 A  
HETATM   12  C   UNL     1     -10.611   7.404  71.765  1.00  0.00    -0.201 A  
HETATM   13  C   UNL     1      -9.655   8.397  69.776  1.00  0.00    -0.170 A  
HETATM   14  C   UNL     1     -11.220   6.582  69.582  1.00  0.00    -0.446 A  
HETATM   15  C   UNL     1      -9.783   8.349  71.174  1.00  0.00    -0.236 A  
HETATM   16 CL   UNL     1     -10.738   7.326  73.479  1.00  0.00    -0.417 Cl 
HETATM   17 CL   UNL     1      -8.492   9.522  69.170  1.00  0.00    -0.124 Cl 
HETATM   18  C   UNL     1     -11.318   6.508  70.976  1.00  0.00    -0.378 A  
ENDBRANCH  10  11
BRANCH  10  19
HETATM   19  C   UNL     1      -8.989   7.115  66.780  1.00  0.00    -0.137 C  
BRANCH  19  20
HETATM   20  N   UNL     1      -9.059   5.846  66.086  1.00  0.00    -0.150 NA 
HETATM   21  C   UNL     1     -10.102   4.961  66.122  1.00  0.00    -0.254 A  
HETATM   22  N   UNL     1      -8.474   4.167  64.774  1.00  0.00    -0.113 NA 
HETATM   23  C   UNL     1      -9.694   3.906  65.340  1.00  0.00    -0.181 A  
HETATM   24  C   UNL     1      -8.129   5.352  65.221  1.00  0.00    -0.123 A  
ENDBRANCH  19  20
ENDBRANCH  10  19
ENDBRANCH   9  10
ENDBRANCH   8   9
ENDBRANCH   5   8
TORSDOF 6
ENDMDL
MODEL      109
REMARK 921   NORMALIZED FREE ENERGY PREDICTED BY IDOCK:   -4.66 KCAL/MOL
REMARK 922        TOTAL FREE ENERGY PREDICTED BY IDOCK:   -7.42 KCAL/MOL
REMARK 923 INTER-LIGAND FREE ENERGY PREDICTED BY IDOCK:   -6.72 KCAL/MOL
REMARK 924 INTRA-LIGAND FREE ENERGY PREDICTED BY IDOCK:   -0.70 KCAL/MOL
REMARK 927      BINDING AFFINITY PREDICTED BY RF-SCORE:    0.00 PKD
ROOT
HETATM    1 CL   UNL     1     -12.192  14.312  64.088  1.00  0.00    -0.475 Cl 
HETATM    2  C   UNL     1     -11.515  12.863  64.722  1.00  0.00    -0.321 A  
HETATM    3  C   UNL     1     -10.801  12.007  63.889  1.00  0.00    -0.457 A  
HETATM    4  C   UNL     1     -10.265  10.824  64.406  1.00  0.00    -0.432 A  
HETATM    5  C   UNL     1     -10.440  10.491  65.759  1.00  0.00    -0.214 A  
HETATM    6  C   UNL     1     -11.159  11.366  66.585  1.00  0.00    -0.333 A  
HETATM    7  C   UNL     1     -11.691  12.550  66.068  1.00  0.00    -0.472 A  
ENDROOT
BRANCH   5   8
HETATM    8  C   UNL     1      -9.915   9.181  66.298  1.00  0.00    -0.282 C  
BRANCH   8   9
HETATM    9  O   UNL     1      -9.322   9.404  67.571  1.00  0.00    -0.126 OA 
BRANCH   9  10
HETATM   10  C   UNL     1      -9.318   8.277  68.474  1.00  0.00    -0.138 C  
BRANCH  10  11
HETATM   11  C   UNL     1     -10.434   8.474  69.515  1.00  0.00    -0.222 A  
HETATM   12  C   UNL     1     -12.468   8.947  71.434  1.00  0.00    -0.304 A  
HETATM   13  C   UNL     1     -11.150   7.412  70.107  1.00  0.00    -0.246 A  
HETATM   14  C   UNL     1     -10.816   9.782  69.891  1.00  0.00    -0.306 A  
HETATM   15  C   UNL     1     -12.135   7.646  71.079  1.00  0.00    -0.282 A  
HETATM   16 CL   UNL     1     -13.700   9.230  72.600  1.00  0.00    -0.464 Cl 
HETATM   17 CL   UNL     1     -10.924   5.759  69.654  1.00  0.00    -0.428 Cl 
HETATM   18  C   UNL     1     -11.825  10.018  70.832  1.00  0.00    -0.459 A  
ENDBRANCH  10  11
BRANCH  10  19
HETATM   19  C   UNL     1      -7.896   8.049  69.048  1.00  0.00    -0.109 C  
BRANCH  19  20
HETATM   20  N   UNL     1      -7.856   7.886  70.487  1.00  0.00    -0.093 NA 
HETATM   21  C   UNL     1      -7.890   6.700  71.168  1.00  0.00    -0.102 A  
HETATM   22  N   UNL     1      -7.729   8.413  72.629  1.00  0.00    -0.271 NA 
HETATM   23  C   UNL     1      -7.860   7.057  72.495  1.00  0.00    -0.093 A  
HETATM   24  C   UNL     1      -7.704   8.883  71.403  1.00  0.00    -0.087 A  
ENDBRANCH  19  20
ENDBRANCH  10  19
ENDBRANCH   9  10
ENDBRANCH   8   9
ENDBRANCH   5   8
TORSDOF 6
ENDMDL
MODEL      110
REMARK 921   NORMALIZED FREE ENERGY PREDICTED BY IDOCK:   -4.66 KCAL/MOL
REMARK 922        TOTAL FREE ENERGY PREDICTED BY IDOCK:   -7.42 KCAL/MOL
REMARK 923 INTER-LIGAND FREE ENERGY PREDICTED BY IDOCK:   -6.24 KCAL/MOL
REMARK 924 INTRA-LIGAND FREE ENERGY PREDICTED BY IDOCK:   -1.18 KCAL/MOL
REMARK 927      BINDING AFFINITY PREDICTED BY RF-SCORE:    0.00 PKD
ROOT
HETATM    1 CL   UNL     1      -7.067   7.169  67.929  1.00  0.00    -0.083 Cl 
HETATM    2  C   UNL     1      -8.370   8.248  68.235  1.00  0.00    -0.132 A  
HETATM    3  C   UNL     1      -8.167   9.379  69.021  1.00  0.00    -0.108 A  
HETATM    4  C   UNL     1      -9.233  10.246  69.278  1.00  0.00    -0.215 A  
HETATM    5  C   UNL     1     -10.509   9.987  68.750  1.00  0.00    -0.229 A  
HETATM    6  C   UNL     1     -10.695   8.846  67.956  1.00  0.00    -0.168 A  
HETATM    7  C   UNL     1      -9.628   7.983  67.698  1.00  0.00    -0.185 A  
ENDROOT
BRANCH   5   8
HETATM    8  C   UNL     1     -11.672  10.891  69.083  1.00  0.00    -0.326 C  
BRANCH   8   9
HETATM    9  O   UNL     1     -12.169  11.473  67.885  1.00  0.00    -0.586 OA 
BRANCH   9  10
HETATM   10  C   UNL     1     -11.182  12.076  67.018  1.00  0.00    -0.320 C  
BRANCH  10  11
HETATM   11  C   UNL     1     -10.874  13.493  67.533  1.00  0.00    -0.276 A  
HETATM   12  C   UNL     1     -10.415  16.124  68.485  1.00  0.00    -0.269 A  
HETATM   13  C   UNL     1      -9.569  14.019  67.645  1.00  0.00    -0.221 A  
HETATM   14  C   UNL     1     -11.932  14.326  67.964  1.00  0.00    -0.353 A  
HETATM   15  C   UNL     1      -9.346  15.332  68.088  1.00  0.00    -0.198 A  
HETATM   16 CL   UNL     1     -10.133  17.721  69.059  1.00  0.00    -0.335 Cl 
HETATM   17 CL   UNL     1      -8.150  13.090  67.310  1.00  0.00    -0.180 Cl 
HETATM   18  C   UNL     1     -11.707  15.622  68.442  1.00  0.00    -0.301 A  
ENDBRANCH  10  11
BRANCH  10  19
HETATM   19  C   UNL     1     -11.633  11.982  65.538  1.00  0.00    -0.293 C  
BRANCH  19  20
HETATM   20  N   UNL     1     -10.651  11.386  64.656  1.00  0.00    -0.305 NA 
HETATM   21  C   UNL     1     -10.603  11.516  63.295  1.00  0.00    -0.338 A  
HETATM   22  N   UNL     1      -8.881  10.237  64.000  1.00  0.00    -0.203 NA 
HETATM   23  C   UNL     1      -9.525  10.754  62.908  1.00  0.00    -0.350 A  
HETATM   24  C   UNL     1      -9.566  10.656  65.039  1.00  0.00    -0.265 A  
ENDBRANCH  19  20
ENDBRANCH  10  19
ENDBRANCH   9  10
ENDBRANCH   8   9
ENDBRANCH   5   8
TORSDOF 6
ENDMDL
MODEL      111
REMARK 921   NORMALIZED FREE ENERGY PREDICTED BY IDOCK:   -4.65 KCAL/MOL
REMARK 922        TOTAL FREE ENERGY PREDICTED BY IDOCK:   -7.41 KCAL/MOL
REMARK 923 INTER-LIGAND FREE ENERGY PREDICTED BY IDOCK:   -6.39 KCAL/MOL
REMARK 924 INTRA-LIGAND FREE ENERGY PREDICTED BY IDOCK:   -1.02 KCAL/MOL
REMARK 927      BINDING AFFINITY PREDICTED BY RF-SCORE:    0.00 PKD
ROOT
HETATM    1 CL   UNL     1     -10.185   5.458  68.612  1.00  0.00    -0.251 Cl 
HETATM    2  C   UNL     1     -10.423   7.146  68.837  1.00  0.00    -0.207 A  
HETATM    3  C   UNL     1     -10.369   7.691  70.117  1.00  0.00    -0.217 A  
HETATM    4  C   UNL     1     -10.576   9.062  70.296  1.00  0.00    -0.250 A  
HETATM    5  C   UNL     1     -10.839   9.895  69.197  1.00  0.00    -0.248 A  
HETATM    6  C   UNL     1     -10.885   9.331  67.914  1.00  0.00    -0.181 A  
HETATM    7  C   UNL     1     -10.675   7.962  67.737  1.00  0.00    -0.189 A  
ENDROOT
BRANCH   5   8
HETATM    8  C   UNL     1     -11.127  11.364  69.403  1.00  0.00    -0.241 C  
BRANCH   8   9
HETATM    9  O   UNL     1      -9.975  12.119  69.048  1.00  0.00    -0.020 OA 
BRANCH   9  10
HETATM   10  C   UNL     1     -10.217  13.322  68.285  1.00  0.00    -0.250 C  
BRANCH  10  11
HETATM   11  C   UNL     1     -10.833  12.931  66.930  1.00  0.00    -0.278 A  
HETATM   12  C   UNL     1     -12.061  12.266  64.462  1.00  0.00    -0.383 A  
HETATM   13  C   UNL     1     -10.218  12.052  66.014  1.00  0.00    -0.226 A  
HETATM   14  C   UNL     1     -12.066  13.497  66.534  1.00  0.00    -0.460 A  
HETATM   15  C   UNL     1     -10.841  11.700  64.807  1.00  0.00    -0.367 A  
HETATM   16 CL   UNL     1     -12.804  11.858  62.965  1.00  0.00    -0.300 Cl 
HETATM   17 CL   UNL     1      -8.641  11.388  66.265  1.00  0.00    -0.176 Cl 
HETATM   18  C   UNL     1     -12.670  13.177  65.312  1.00  0.00    -0.457 A  
ENDBRANCH  10  11
BRANCH  10  19
HETATM   19  C   UNL     1      -8.932  14.186  68.215  1.00  0.00    -0.188 C  
BRANCH  19  20
HETATM   20  N   UNL     1      -9.094  15.432  67.495  1.00  0.00    -0.192 NA 
HETATM   21  C   UNL     1      -9.740  16.550  67.948  1.00  0.00    -0.236 A  
HETATM   22  N   UNL     1      -8.912  16.933  65.883  1.00  0.00    -0.529 NA 
HETATM   23  C   UNL     1      -9.655  17.448  66.911  1.00  0.00    -0.277 A  
HETATM   24  C   UNL     1      -8.566  15.728  66.274  1.00  0.00    -0.272 A  
ENDBRANCH  19  20
ENDBRANCH  10  19
ENDBRANCH   9  10
ENDBRANCH   8   9
ENDBRANCH   5   8
TORSDOF 6
ENDMDL
MODEL      112
REMARK 921   NORMALIZED FREE ENERGY PREDICTED BY IDOCK:   -4.65 KCAL/MOL
REMARK 922        TOTAL FREE ENERGY PREDICTED BY IDOCK:   -7.41 KCAL/MOL
REMARK 923 INTER-LIGAND FREE ENERGY PREDICTED BY IDOCK:   -6.57 KCAL/MOL
REMARK 924 INTRA-LIGAND FREE ENERGY PREDICTED BY IDOCK:   -0.84 KCAL/MOL
REMARK 927      BINDING AFFINITY PREDICTED BY RF-SCORE:    0.00 PKD
ROOT
HETATM    1 CL   UNL     1     -10.237  18.031  67.304  1.00  0.00    -0.351 Cl 
HETATM    2  C   UNL     1     -10.695  16.383  67.482  1.00  0.00    -0.298 A  
HETATM    3  C   UNL     1     -11.422  15.980  68.598  1.00  0.00    -0.377 A  
HETATM    4  C   UNL     1     -11.780  14.636  68.745  1.00  0.00    -0.357 A  
HETATM    5  C   UNL     1     -11.411  13.688  67.776  1.00  0.00    -0.351 A  
HETATM    6  C   UNL     1     -10.683  14.112  66.656  1.00  0.00    -0.289 A  
HETATM    7  C   UNL     1     -10.330  15.455  66.509  1.00  0.00    -0.293 A  
ENDROOT
BRANCH   5   8
HETATM    8  C   UNL     1     -11.744  12.227  67.971  1.00  0.00    -0.356 C  
BRANCH   8   9
HETATM    9  O   UNL     1     -10.652  11.583  68.615  1.00  0.00    -0.194 OA 
BRANCH   9  10
HETATM   10  C   UNL     1     -10.330  10.257  68.140  1.00  0.00    -0.177 C  
BRANCH  10  11
HETATM   11  C   UNL     1     -10.550   9.255  69.288  1.00  0.00    -0.234 A  
HETATM   12  C   UNL     1     -10.943   7.495  71.476  1.00  0.00    -0.229 A  
HETATM   13  C   UNL     1     -10.653   7.861  69.102  1.00  0.00    -0.173 A  
HETATM   14  C   UNL     1     -10.700   9.731  70.611  1.00  0.00    -0.394 A  
HETATM   15  C   UNL     1     -10.817   6.988  70.189  1.00  0.00    -0.285 A  
HETATM   16 CL   UNL     1     -11.179   6.423  72.801  1.00  0.00    -0.278 Cl 
HETATM   17 CL   UNL     1     -10.646   7.118  67.541  1.00  0.00    -0.327 Cl 
HETATM   18  C   UNL     1     -10.903   8.864  71.691  1.00  0.00    -0.420 A  
ENDBRANCH  10  11
BRANCH  10  19
HETATM   19  C   UNL     1      -8.921  10.240  67.494  1.00  0.00    -0.134 C  
BRANCH  19  20
HETATM   20  N   UNL     1      -8.932  10.266  66.046  1.00  0.00    -0.149 NA 
HETATM   21  C   UNL     1      -7.901   9.905  65.223  1.00  0.00    -0.131 A  
HETATM   22  N   UNL     1      -9.681  10.533  63.984  1.00  0.00    -0.304 NA 
HETATM   23  C   UNL     1      -8.373  10.127  63.951  1.00  0.00    -0.172 A  
HETATM   24  C   UNL     1      -9.998  10.583  65.258  1.00  0.00    -0.299 A  
ENDBRANCH  19  20
ENDBRANCH  10  19
ENDBRANCH   9  10
ENDBRANCH   8   9
ENDBRANCH   5   8
TORSDOF 6
ENDMDL
MODEL      113
REMARK 921   NORMALIZED FREE ENERGY PREDICTED BY IDOCK:   -4.64 KCAL/MOL
REMARK 922        TOTAL FREE ENERGY PREDICTED BY IDOCK:   -7.40 KCAL/MOL
REMARK 923 INTER-LIGAND FREE ENERGY PREDICTED BY IDOCK:   -6.38 KCAL/MOL
REMARK 924 INTRA-LIGAND FREE ENERGY PREDICTED BY IDOCK:   -1.02 KCAL/MOL
REMARK 927      BINDING AFFINITY PREDICTED BY RF-SCORE:    0.00 PKD
ROOT
HETATM    1 CL   UNL     1     -12.191  14.262  64.341  1.00  0.00    -0.486 Cl 
HETATM    2  C   UNL     1     -11.991  13.497  65.869  1.00  0.00    -0.406 A  
HETATM    3  C   UNL     1     -11.674  12.143  65.932  1.00  0.00    -0.393 A  
HETATM    4  C   UNL     1     -11.526  11.523  67.176  1.00  0.00    -0.313 A  
HETATM    5  C   UNL     1     -11.696  12.254  68.364  1.00  0.00    -0.390 A  
HETATM    6  C   UNL     1     -12.011  13.617  68.282  1.00  0.00    -0.385 A  
HETATM    7  C   UNL     1     -12.154  14.236  67.038  1.00  0.00    -0.424 A  
ENDROOT
BRANCH   5   8
HETATM    8  C   UNL     1     -11.599  11.565  69.706  1.00  0.00    -0.326 C  
BRANCH   8   9
HETATM    9  O   UNL     1     -11.792  10.168  69.528  1.00  0.00    -0.132 OA 
BRANCH   9  10
HETATM   10  C   UNL     1     -10.874   9.307  70.237  1.00  0.00    -0.246 C  
BRANCH  10  11
HETATM   11  C   UNL     1      -9.525   9.308  69.496  1.00  0.00    -0.178 A  
HETATM   12  C   UNL     1      -6.995   9.367  68.216  1.00  0.00    -0.071 A  
HETATM   13  C   UNL     1      -9.355   8.831  68.179  1.00  0.00    -0.140 A  
HETATM   14  C   UNL     1      -8.365   9.770  70.158  1.00  0.00    -0.201 A  
HETATM   15  C   UNL     1      -8.108   8.889  67.536  1.00  0.00    -0.109 A  
HETATM   16 CL   UNL     1      -5.463   9.403  67.435  1.00  0.00    -0.037 Cl 
HETATM   17 CL   UNL     1     -10.629   8.092  67.275  1.00  0.00    -0.383 Cl 
HETATM   18  C   UNL     1      -7.114   9.791  69.531  1.00  0.00    -0.075 A  
ENDBRANCH  10  11
BRANCH  10  19
HETATM   19  C   UNL     1     -11.510   7.913  70.472  1.00  0.00    -0.195 C  
BRANCH  19  20
HETATM   20  N   UNL     1     -11.121   7.285  71.717  1.00  0.00    -0.232 NA 
HETATM   21  C   UNL     1     -10.431   7.877  72.740  1.00  0.00    -0.346 A  
HETATM   22  N   UNL     1     -10.919   5.740  73.284  1.00  0.00    -0.267 NA 
HETATM   23  C   UNL     1     -10.276   6.883  73.678  1.00  0.00    -0.340 A  
HETATM   24  C   UNL     1     -11.439   6.020  72.111  1.00  0.00    -0.302 A  
ENDBRANCH  19  20
ENDBRANCH  10  19
ENDBRANCH   9  10
ENDBRANCH   8   9
ENDBRANCH   5   8
TORSDOF 6
ENDMDL
MODEL      114
REMARK 921   NORMALIZED FREE ENERGY PREDICTED BY IDOCK:   -4.64 KCAL/MOL
REMARK 922        TOTAL FREE ENERGY PREDICTED BY IDOCK:   -7.40 KCAL/MOL
REMARK 923 INTER-LIGAND FREE ENERGY PREDICTED BY IDOCK:   -6.31 KCAL/MOL
REMARK 924 INTRA-LIGAND FREE ENERGY PREDICTED BY IDOCK:   -1.09 KCAL/MOL
REMARK 927      BINDING AFFINITY PREDICTED BY RF-SCORE:    0.00 PKD
ROOT
HETATM    1 CL   UNL     1      -8.308  10.262  64.638  1.00  0.00    -0.166 Cl 
HETATM    2  C   UNL     1      -9.099   9.098  65.626  1.00  0.00    -0.219 A  
HETATM    3  C   UNL     1     -10.145   9.488  66.457  1.00  0.00    -0.326 A  
HETATM    4  C   UNL     1     -10.777   8.540  67.268  1.00  0.00    -0.219 A  
HETATM    5  C   UNL     1     -10.365   7.198  67.253  1.00  0.00    -0.342 A  
HETATM    6  C   UNL     1      -9.313   6.821  66.406  1.00  0.00    -0.175 A  
HETATM    7  C   UNL     1      -8.686   7.768  65.594  1.00  0.00    -0.132 A  
ENDROOT
BRANCH   5   8
HETATM    8  C   UNL     1     -11.007   6.190  68.178  1.00  0.00    -0.307 C  
BRANCH   8   9
HETATM    9  O   UNL     1     -10.125   5.924  69.261  1.00  0.00    -0.166 OA 
BRANCH   9  10
HETATM   10  C   UNL     1     -10.730   5.875  70.572  1.00  0.00    -0.294 C  
BRANCH  10  11
HETATM   11  C   UNL     1     -11.302   7.265  70.903  1.00  0.00    -0.308 A  
HETATM   12  C   UNL     1     -12.460   9.779  71.519  1.00  0.00    -0.403 A  
HETATM   13  C   UNL     1     -10.539   8.451  70.885  1.00  0.00    -0.204 A  
HETATM   14  C   UNL     1     -12.657   7.389  71.289  1.00  0.00    -0.376 A  
HETATM   15  C   UNL     1     -11.120   9.699  71.160  1.00  0.00    -0.444 A  
HETATM   16 CL   UNL     1     -13.159  11.307  71.888  1.00  0.00    -0.583 Cl 
HETATM   17 CL   UNL     1      -8.836   8.469  70.586  1.00  0.00    -0.157 Cl 
HETATM   18  C   UNL     1     -13.227   8.628  71.602  1.00  0.00    -0.381 A  
ENDBRANCH  10  11
BRANCH  10  19
HETATM   19  C   UNL     1      -9.732   5.296  71.608  1.00  0.00    -0.160 C  
BRANCH  19  20
HETATM   20  N   UNL     1     -10.211   4.116  72.298  1.00  0.00    -0.180 NA 
HETATM   21  C   UNL     1     -11.045   4.097  73.382  1.00  0.00    -0.262 A  
HETATM   22  N   UNL     1     -10.527   1.983  72.780  1.00  0.00    -0.150 NA 
HETATM   23  C   UNL     1     -11.186   2.764  73.691  1.00  0.00    -0.212 A  
HETATM   24  C   UNL     1      -9.971   2.824  71.938  1.00  0.00    -0.140 A  
ENDBRANCH  19  20
ENDBRANCH  10  19
ENDBRANCH   9  10
ENDBRANCH   8   9
ENDBRANCH   5   8
TORSDOF 6
ENDMDL
MODEL      115
REMARK 921   NORMALIZED FREE ENERGY PREDICTED BY IDOCK:   -4.64 KCAL/MOL
REMARK 922        TOTAL FREE ENERGY PREDICTED BY IDOCK:   -7.39 KCAL/MOL
REMARK 923 INTER-LIGAND FREE ENERGY PREDICTED BY IDOCK:   -7.45 KCAL/MOL
REMARK 924 INTRA-LIGAND FREE ENERGY PREDICTED BY IDOCK:    0.06 KCAL/MOL
REMARK 927      BINDING AFFINITY PREDICTED BY RF-SCORE:    0.00 PKD
ROOT
HETATM    1 CL   UNL     1     -13.900  15.979  73.110  1.00  0.00    -0.539 Cl 
HETATM    2  C   UNL     1     -12.926  15.260  71.888  1.00  0.00    -0.384 A  
HETATM    3  C   UNL     1     -12.108  16.057  71.092  1.00  0.00    -0.406 A  
HETATM    4  C   UNL     1     -11.328  15.469  70.092  1.00  0.00    -0.339 A  
HETATM    5  C   UNL     1     -11.363  14.081  69.881  1.00  0.00    -0.208 A  
HETATM    6  C   UNL     1     -12.190  13.292  70.694  1.00  0.00    -0.417 A  
HETATM    7  C   UNL     1     -12.965  13.881  71.696  1.00  0.00    -0.433 A  
ENDROOT
BRANCH   5   8
HETATM    8  C   UNL     1     -10.570  13.458  68.757  1.00  0.00    -0.210 C  
BRANCH   8   9
HETATM    9  O   UNL     1     -11.448  13.144  67.684  1.00  0.00    -0.286 OA 
BRANCH   9  10
HETATM   10  C   UNL     1     -10.822  12.890  66.406  1.00  0.00    -0.274 C  
BRANCH  10  11
HETATM   11  C   UNL     1     -10.380  11.416  66.359  1.00  0.00    -0.284 A  
HETATM   12  C   UNL     1      -9.499   8.727  66.184  1.00  0.00    -0.247 A  
HETATM   13  C   UNL     1     -10.949  10.402  67.157  1.00  0.00    -0.196 A  
HETATM   14  C   UNL     1      -9.320  11.032  65.506  1.00  0.00    -0.242 A  
HETATM   15  C   UNL     1     -10.533   9.065  67.048  1.00  0.00    -0.316 A  
HETATM   16 CL   UNL     1      -8.969   7.093  66.079  1.00  0.00    -0.169 Cl 
HETATM   17 CL   UNL     1     -12.147  10.716  68.363  1.00  0.00     0.088 Cl 
HETATM   18  C   UNL     1      -8.878   9.707  65.425  1.00  0.00    -0.204 A  
ENDBRANCH  10  11
BRANCH  10  19
HETATM   19  C   UNL     1      -9.710  13.934  66.131  1.00  0.00    -0.272 C  
BRANCH  19  20
HETATM   20  N   UNL     1     -10.203  15.228  65.706  1.00  0.00    -0.321 NA 
HETATM   21  C   UNL     1      -9.953  16.428  66.314  1.00  0.00    -0.323 A  
HETATM   22  N   UNL     1     -11.249  16.750  64.493  1.00  0.00    -1.039 NA 
HETATM   23  C   UNL     1     -10.653  17.349  65.571  1.00  0.00    -0.108 A  
HETATM   24  C   UNL     1     -10.940  15.477  64.587  1.00  0.00    -0.322 A  
ENDBRANCH  19  20
ENDBRANCH  10  19
ENDBRANCH   9  10
ENDBRANCH   8   9
ENDBRANCH   5   8
TORSDOF 6
ENDMDL
MODEL      116
REMARK 921   NORMALIZED FREE ENERGY PREDICTED BY IDOCK:   -4.63 KCAL/MOL
REMARK 922        TOTAL FREE ENERGY PREDICTED BY IDOCK:   -7.39 KCAL/MOL
REMARK 923 INTER-LIGAND FREE ENERGY PREDICTED BY IDOCK:   -6.93 KCAL/MOL
REMARK 924 INTRA-LIGAND FREE ENERGY PREDICTED BY IDOCK:   -0.45 KCAL/MOL
REMARK 927      BINDING AFFINITY PREDICTED BY RF-SCORE:    0.00 PKD
ROOT
HETATM    1 CL   UNL     1      -7.631   6.171  63.869  1.00  0.00    -0.083 Cl 
HETATM    2  C   UNL     1      -8.346   7.140  65.098  1.00  0.00    -0.076 A  
HETATM    3  C   UNL     1      -8.483   8.512  64.909  1.00  0.00    -0.166 A  
HETATM    4  C   UNL     1      -9.053   9.297  65.917  1.00  0.00    -0.246 A  
HETATM    5  C   UNL     1      -9.488   8.713  67.118  1.00  0.00    -0.207 A  
HETATM    6  C   UNL     1      -9.347   7.329  67.289  1.00  0.00    -0.156 A  
HETATM    7  C   UNL     1      -8.781   6.546  66.280  1.00  0.00    -0.148 A  
ENDROOT
BRANCH   5   8
HETATM    8  C   UNL     1     -10.042   9.574  68.229  1.00  0.00    -0.183 C  
BRANCH   8   9
HETATM    9  O   UNL     1     -11.400   9.885  67.944  1.00  0.00    -0.158 OA 
BRANCH   9  10
HETATM   10  C   UNL     1     -11.936  11.049  68.612  1.00  0.00    -0.177 C  
BRANCH  10  11
HETATM   11  C   UNL     1     -11.718  12.278  67.711  1.00  0.00    -0.403 A  
HETATM   12  C   UNL     1     -11.285  14.472  65.968  1.00  0.00    -0.337 A  
HETATM   13  C   UNL     1     -11.838  13.610  68.160  1.00  0.00    -0.372 A  
HETATM   14  C   UNL     1     -11.420  12.096  66.341  1.00  0.00    -0.430 A  
HETATM   15  C   UNL     1     -11.593  14.695  67.304  1.00  0.00    -0.404 A  
HETATM   16 CL   UNL     1     -11.020  15.807  64.915  1.00  0.00    -0.463 Cl 
HETATM   17 CL   UNL     1     -12.345  14.019  69.761  1.00  0.00    -0.380 Cl 
HETATM   18  C   UNL     1     -11.214  13.178  65.478  1.00  0.00    -0.305 A  
ENDBRANCH  10  11
BRANCH  10  19
HETATM   19  C   UNL     1     -11.365  11.160  70.049  1.00  0.00    -0.243 C  
BRANCH  19  20
HETATM   20  N   UNL     1     -11.954  10.235  70.994  1.00  0.00    -0.359 NA 
HETATM   21  C   UNL     1     -13.274  10.171  71.347  1.00  0.00    -0.380 A  
HETATM   22  N   UNL     1     -12.113   8.576  72.446  1.00  0.00    -0.383 NA 
HETATM   23  C   UNL     1     -13.338   9.167  72.285  1.00  0.00    -0.477 A  
HETATM   24  C   UNL     1     -11.306   9.223  71.637  1.00  0.00    -0.397 A  
ENDBRANCH  19  20
ENDBRANCH  10  19
ENDBRANCH   9  10
ENDBRANCH   8   9
ENDBRANCH   5   8
TORSDOF 6
ENDMDL
MODEL      117
REMARK 921   NORMALIZED FREE ENERGY PREDICTED BY IDOCK:   -4.63 KCAL/MOL
REMARK 922        TOTAL FREE ENERGY PREDICTED BY IDOCK:   -7.38 KCAL/MOL
REMARK 923 INTER-LIGAND FREE ENERGY PREDICTED BY IDOCK:   -6.89 KCAL/MOL
REMARK 924 INTRA-LIGAND FREE ENERGY PREDICTED BY IDOCK:   -0.49 KCAL/MOL
REMARK 927      BINDING AFFINITY PREDICTED BY RF-SCORE:    0.00 PKD
ROOT
HETATM    1 CL   UNL     1      -6.493   7.487  66.515  1.00  0.00    -0.048 Cl 
HETATM    2  C   UNL     1      -7.608   8.752  66.178  1.00  0.00    -0.094 A  
HETATM    3  C   UNL     1      -8.832   8.460  65.583  1.00  0.00    -0.196 A  
HETATM    4  C   UNL     1      -9.729   9.493  65.299  1.00  0.00    -0.268 A  
HETATM    5  C   UNL     1      -9.407  10.825  65.607  1.00  0.00    -0.241 A  
HETATM    6  C   UNL     1      -8.172  11.102  66.210  1.00  0.00    -0.153 A  
HETATM    7  C   UNL     1      -7.278  10.068  66.497  1.00  0.00    -0.101 A  
ENDROOT
BRANCH   5   8
HETATM    8  C   UNL     1     -10.352  11.945  65.239  1.00  0.00    -0.276 C  
BRANCH   8   9
HETATM    9  O   UNL     1     -11.432  11.967  66.164  1.00  0.00    -0.346 OA 
BRANCH   9  10
HETATM   10  C   UNL     1     -11.228  12.757  67.356  1.00  0.00    -0.294 C  
BRANCH  10  11
HETATM   11  C   UNL     1     -11.495  11.871  68.586  1.00  0.00    -0.350 A  
HETATM   12  C   UNL     1     -11.956  10.149  70.791  1.00  0.00    -0.348 A  
HETATM   13  C   UNL     1     -12.046  12.351  69.793  1.00  0.00    -0.223 A  
HETATM   14  C   UNL     1     -11.141  10.503  68.551  1.00  0.00    -0.329 A  
HETATM   15  C   UNL     1     -12.302  11.491  70.873  1.00  0.00    -0.460 A  
HETATM   16 CL   UNL     1     -12.240   9.107  72.130  1.00  0.00    -0.430 Cl 
HETATM   17 CL   UNL     1     -12.394  14.022  70.068  1.00  0.00    -0.402 Cl 
HETATM   18  C   UNL     1     -11.361   9.653  69.641  1.00  0.00    -0.113 A  
ENDBRANCH  10  11
BRANCH  10  19
HETATM   19  C   UNL     1     -12.050  14.070  67.283  1.00  0.00    -0.370 C  
BRANCH  19  20
HETATM   20  N   UNL     1     -11.285  15.226  66.862  1.00  0.00    -0.298 NA 
HETATM   21  C   UNL     1     -10.881  16.262  67.658  1.00  0.00    -0.293 A  
HETATM   22  N   UNL     1     -10.149  16.592  65.548  1.00  0.00    -0.579 NA 
HETATM   23  C   UNL     1     -10.221  17.119  66.810  1.00  0.00    -0.311 A  
HETATM   24  C   UNL     1     -10.776  15.439  65.616  1.00  0.00    -0.369 A  
ENDBRANCH  19  20
ENDBRANCH  10  19
ENDBRANCH   9  10
ENDBRANCH   8   9
ENDBRANCH   5   8
TORSDOF 6
ENDMDL
MODEL      118
REMARK 921   NORMALIZED FREE ENERGY PREDICTED BY IDOCK:   -4.62 KCAL/MOL
REMARK 922        TOTAL FREE ENERGY PREDICTED BY IDOCK:   -7.37 KCAL/MOL
REMARK 923 INTER-LIGAND FREE ENERGY PREDICTED BY IDOCK:   -6.65 KCAL/MOL
REMARK 924 INTRA-LIGAND FREE ENERGY PREDICTED BY IDOCK:   -0.72 KCAL/MOL
REMARK 927      BINDING AFFINITY PREDICTED BY RF-SCORE:    0.00 PKD
ROOT
HETATM    1 CL   UNL     1      -8.666  20.345  66.944  1.00  0.00    -0.374 Cl 
HETATM    2  C   UNL     1      -9.075  18.724  66.537  1.00  0.00    -0.323 A  
HETATM    3  C   UNL     1     -10.387  18.402  66.203  1.00  0.00    -0.431 A  
HETATM    4  C   UNL     1     -10.717  17.080  65.886  1.00  0.00    -0.140 A  
HETATM    5  C   UNL     1      -9.736  16.075  65.902  1.00  0.00    -0.378 A  
HETATM    6  C   UNL     1      -8.419  16.418  66.237  1.00  0.00    -0.372 A  
HETATM    7  C   UNL     1      -8.090  17.739  66.549  1.00  0.00    -0.305 A  
ENDROOT
BRANCH   5   8
HETATM    8  C   UNL     1     -10.110  14.638  65.623  1.00  0.00    -0.363 C  
BRANCH   8   9
HETATM    9  O   UNL     1     -10.547  14.026  66.830  1.00  0.00    -0.277 OA 
BRANCH   9  10
HETATM   10  C   UNL     1     -10.496  12.583  66.863  1.00  0.00    -0.228 C  
BRANCH  10  11
HETATM   11  C   UNL     1     -11.135  12.097  68.176  1.00  0.00    -0.295 A  
HETATM   12  C   UNL     1     -12.317  11.308  70.630  1.00  0.00    -0.383 A  
HETATM   13  C   UNL     1     -11.299  10.736  68.511  1.00  0.00    -0.295 A  
HETATM   14  C   UNL     1     -11.632  13.042  69.103  1.00  0.00    -0.368 A  
HETATM   15  C   UNL     1     -11.857  10.347  69.739  1.00  0.00    -0.278 A  
HETATM   16 CL   UNL     1     -13.030  10.825  72.119  1.00  0.00    -0.442 Cl 
HETATM   17 CL   UNL     1     -10.891   9.448  67.433  1.00  0.00    -0.278 Cl 
HETATM   18  C   UNL     1     -12.223  12.654  70.311  1.00  0.00    -0.347 A  
ENDBRANCH  10  11
BRANCH  10  19
HETATM   19  C   UNL     1      -9.052  12.086  66.594  1.00  0.00    -0.205 C  
BRANCH  19  20
HETATM   20  N   UNL     1      -8.145  12.266  67.709  1.00  0.00    -0.143 NA 
HETATM   21  C   UNL     1      -7.645  13.456  68.161  1.00  0.00    -0.138 A  
HETATM   22  N   UNL     1      -6.869  11.767  69.443  1.00  0.00    -0.098 NA 
HETATM   23  C   UNL     1      -6.818  13.115  69.204  1.00  0.00    -0.062 A  
HETATM   24  C   UNL     1      -7.696  11.286  68.543  1.00  0.00    -0.131 A  
ENDBRANCH  19  20
ENDBRANCH  10  19
ENDBRANCH   9  10
ENDBRANCH   8   9
ENDBRANCH   5   8
TORSDOF 6
ENDMDL
MODEL      119
REMARK 921   NORMALIZED FREE ENERGY PREDICTED BY IDOCK:   -4.61 KCAL/MOL
REMARK 922        TOTAL FREE ENERGY PREDICTED BY IDOCK:   -7.35 KCAL/MOL
REMARK 923 INTER-LIGAND FREE ENERGY PREDICTED BY IDOCK:   -6.30 KCAL/MOL
REMARK 924 INTRA-LIGAND FREE ENERGY PREDICTED BY IDOCK:   -1.05 KCAL/MOL
REMARK 927      BINDING AFFINITY PREDICTED BY RF-SCORE:    0.00 PKD
ROOT
HETATM    1 CL   UNL     1     -10.546  19.626  67.491  1.00  0.00    -0.578 Cl 
HETATM    2  C   UNL     1      -9.839  18.058  67.443  1.00  0.00    -0.309 A  
HETATM    3  C   UNL     1     -10.149  17.127  68.429  1.00  0.00    -0.314 A  
HETATM    4  C   UNL     1      -9.561  15.858  68.393  1.00  0.00    -0.208 A  
HETATM    5  C   UNL     1      -8.661  15.515  67.371  1.00  0.00    -0.194 A  
HETATM    6  C   UNL     1      -8.364  16.465  66.383  1.00  0.00    -0.363 A  
HETATM    7  C   UNL     1      -8.955  17.730  66.418  1.00  0.00    -0.252 A  
ENDROOT
BRANCH   5   8
HETATM    8  C   UNL     1      -7.979  14.167  67.373  1.00  0.00    -0.184 C  
BRANCH   8   9
HETATM    9  O   UNL     1      -8.702  13.280  68.217  1.00  0.00    -0.176 OA 
BRANCH   9  10
HETATM   10  C   UNL     1      -8.909  11.945  67.704  1.00  0.00    -0.169 C  
BRANCH  10  11
HETATM   11  C   UNL     1      -9.949  12.009  66.571  1.00  0.00    -0.224 A  
HETATM   12  C   UNL     1     -11.788  12.088  64.414  1.00  0.00    -0.313 A  
HETATM   13  C   UNL     1     -11.247  12.540  66.728  1.00  0.00    -0.296 A  
HETATM   14  C   UNL     1      -9.632  11.477  65.300  1.00  0.00    -0.244 A  
HETATM   15  C   UNL     1     -12.145  12.607  65.652  1.00  0.00    -0.502 A  
HETATM   16 CL   UNL     1     -12.905  12.142  63.107  1.00  0.00    -0.382 Cl 
HETATM   17 CL   UNL     1     -11.858  13.093  68.248  1.00  0.00    -0.385 Cl 
HETATM   18  C   UNL     1     -10.541  11.508  64.237  1.00  0.00    -0.405 A  
ENDBRANCH  10  11
BRANCH  10  19
HETATM   19  C   UNL     1      -9.232  10.965  68.860  1.00  0.00    -0.160 C  
BRANCH  19  20
HETATM   20  N   UNL     1      -8.915   9.582  68.571  1.00  0.00    -0.127 NA 
HETATM   21  C   UNL     1      -9.813   8.586  68.300  1.00  0.00    -0.169 A  
HETATM   22  N   UNL     1      -7.712   7.765  68.203  1.00  0.00    -0.116 NA 
HETATM   23  C   UNL     1      -9.044   7.459  68.124  1.00  0.00    -0.131 A  
HETATM   24  C   UNL     1      -7.664   9.055  68.447  1.00  0.00    -0.098 A  
ENDBRANCH  19  20
ENDBRANCH  10  19
ENDBRANCH   9  10
ENDBRANCH   8   9
ENDBRANCH   5   8
TORSDOF 6
ENDMDL
MODEL      120
REMARK 921   NORMALIZED FREE ENERGY PREDICTED BY IDOCK:   -4.60 KCAL/MOL
REMARK 922        TOTAL FREE ENERGY PREDICTED BY IDOCK:   -7.34 KCAL/MOL
REMARK 923 INTER-LIGAND FREE ENERGY PREDICTED BY IDOCK:   -6.44 KCAL/MOL
REMARK 924 INTRA-LIGAND FREE ENERGY PREDICTED BY IDOCK:   -0.90 KCAL/MOL
REMARK 927      BINDING AFFINITY PREDICTED BY RF-SCORE:    0.00 PKD
ROOT
HETATM    1 CL   UNL     1      -8.435   4.269  65.067  1.00  0.00    -0.114 Cl 
HETATM    2  C   UNL     1      -8.461   5.982  65.220  1.00  0.00    -0.131 A  
HETATM    3  C   UNL     1      -7.830   6.774  64.264  1.00  0.00    -0.109 A  
HETATM    4  C   UNL     1      -7.843   8.165  64.400  1.00  0.00    -0.136 A  
HETATM    5  C   UNL     1      -8.484   8.772  65.492  1.00  0.00    -0.181 A  
HETATM    6  C   UNL     1      -9.118   7.959  66.443  1.00  0.00    -0.221 A  
HETATM    7  C   UNL     1      -9.108   6.570  66.304  1.00  0.00    -0.168 A  
ENDROOT
BRANCH   5   8
HETATM    8  C   UNL     1      -8.439  10.272  65.669  1.00  0.00    -0.160 C  
BRANCH   8   9
HETATM    9  O   UNL     1      -9.688  10.718  66.182  1.00  0.00    -0.193 OA 
BRANCH   9  10
HETATM   10  C   UNL     1      -9.622  11.670  67.267  1.00  0.00    -0.174 C  
BRANCH  10  11
HETATM   11  C   UNL     1     -10.351  11.078  68.486  1.00  0.00    -0.204 A  
HETATM   12  C   UNL     1     -11.785  10.044  70.704  1.00  0.00    -0.337 A  
HETATM   13  C   UNL     1      -9.721  10.276  69.462  1.00  0.00    -0.211 A  
HETATM   14  C   UNL     1     -11.738  11.297  68.646  1.00  0.00    -0.391 A  
HETATM   15  C   UNL     1     -10.425   9.791  70.576  1.00  0.00    -0.366 A  
HETATM   16 CL   UNL     1     -12.651   9.418  72.052  1.00  0.00    -0.458 Cl 
HETATM   17 CL   UNL     1      -8.069   9.780  69.347  1.00  0.00    -0.115 Cl 
HETATM   18  C   UNL     1     -12.449  10.780  69.735  1.00  0.00    -0.231 A  
ENDBRANCH  10  11
BRANCH  10  19
HETATM   19  C   UNL     1     -10.118  13.061  66.798  1.00  0.00    -0.247 C  
BRANCH  19  20
HETATM   20  N   UNL     1     -11.014  13.020  65.661  1.00  0.00    -0.272 NA 
HETATM   21  C   UNL     1     -10.648  12.995  64.344  1.00  0.00    -0.409 A  
HETATM   22  N   UNL     1     -12.898  12.930  64.510  1.00  0.00    -0.729 NA 
HETATM   23  C   UNL     1     -11.835  12.989  63.650  1.00  0.00    -0.516 A  
HETATM   24  C   UNL     1     -12.372  12.924  65.714  1.00  0.00    -0.375 A  
ENDBRANCH  19  20
ENDBRANCH  10  19
ENDBRANCH   9  10
ENDBRANCH   8   9
ENDBRANCH   5   8
TORSDOF 6
ENDMDL
MODEL      121
REMARK 921   NORMALIZED FREE ENERGY PREDICTED BY IDOCK:   -4.60 KCAL/MOL
REMARK 922        TOTAL FREE ENERGY PREDICTED BY IDOCK:   -7.34 KCAL/MOL
REMARK 923 INTER-LIGAND FREE ENERGY PREDICTED BY IDOCK:   -6.73 KCAL/MOL
REMARK 924 INTRA-LIGAND FREE ENERGY PREDICTED BY IDOCK:   -0.61 KCAL/MOL
REMARK 927      BINDING AFFINITY PREDICTED BY RF-SCORE:    0.00 PKD
ROOT
HETATM    1 CL   UNL     1      -6.545  20.201  68.332  1.00  0.00    -0.327 Cl 
HETATM    2  C   UNL     1      -7.774  19.102  67.842  1.00  0.00    -0.275 A  
HETATM    3  C   UNL     1      -7.459  18.035  67.004  1.00  0.00    -0.228 A  
HETATM    4  C   UNL     1      -8.464  17.153  66.598  1.00  0.00    -0.284 A  
HETATM    5  C   UNL     1      -9.789  17.332  67.026  1.00  0.00    -0.281 A  
HETATM    6  C   UNL     1     -10.089  18.409  67.873  1.00  0.00    -0.384 A  
HETATM    7  C   UNL     1      -9.083  19.288  68.281  1.00  0.00    -0.394 A  
ENDROOT
BRANCH   5   8
HETATM    8  C   UNL     1     -10.883  16.414  66.532  1.00  0.00    -0.073 C  
BRANCH   8   9
HETATM    9  O   UNL     1     -10.421  15.071  66.579  1.00  0.00    -0.273 OA 
BRANCH   9  10
HETATM   10  C   UNL     1     -10.720  14.340  67.789  1.00  0.00    -0.251 C  
BRANCH  10  11
HETATM   11  C   UNL     1     -10.476  12.842  67.534  1.00  0.00    -0.226 A  
HETATM   12  C   UNL     1      -9.984  10.109  66.963  1.00  0.00    -0.199 A  
HETATM   13  C   UNL     1     -10.887  11.820  68.415  1.00  0.00    -0.223 A  
HETATM   14  C   UNL     1      -9.766  12.437  66.380  1.00  0.00    -0.246 A  
HETATM   15  C   UNL     1     -10.670  10.466  68.116  1.00  0.00    -0.277 A  
HETATM   16 CL   UNL     1      -9.691   8.449  66.618  1.00  0.00    -0.295 Cl 
HETATM   17 CL   UNL     1     -11.630  12.139  69.943  1.00  0.00    -0.335 Cl 
HETATM   18  C   UNL     1      -9.515  11.088  66.101  1.00  0.00    -0.230 A  
ENDBRANCH  10  11
BRANCH  10  19
HETATM   19  C   UNL     1     -12.132  14.711  68.310  1.00  0.00    -0.179 C  
BRANCH  19  20
HETATM   20  N   UNL     1     -12.145  15.256  69.652  1.00  0.00    -0.325 NA 
HETATM   21  C   UNL     1     -11.079  15.804  70.312  1.00  0.00    -0.361 A  
HETATM   22  N   UNL     1     -12.916  15.895  71.622  1.00  0.00    -0.425 NA 
HETATM   23  C   UNL     1     -11.573  16.147  71.549  1.00  0.00    -0.430 A  
HETATM   24  C   UNL     1     -13.238  15.383  70.456  1.00  0.00    -0.208 A  
ENDBRANCH  19  20
ENDBRANCH  10  19
ENDBRANCH   9  10
ENDBRANCH   8   9
ENDBRANCH   5   8
TORSDOF 6
ENDMDL
MODEL      122
REMARK 921   NORMALIZED FREE ENERGY PREDICTED BY IDOCK:   -4.60 KCAL/MOL
REMARK 922        TOTAL FREE ENERGY PREDICTED BY IDOCK:   -7.34 KCAL/MOL
REMARK 923 INTER-LIGAND FREE ENERGY PREDICTED BY IDOCK:   -6.06 KCAL/MOL
REMARK 924 INTRA-LIGAND FREE ENERGY PREDICTED BY IDOCK:   -1.28 KCAL/MOL
REMARK 927      BINDING AFFINITY PREDICTED BY RF-SCORE:    0.00 PKD
ROOT
HETATM    1 CL   UNL     1      -8.806   8.642  65.290  1.00  0.00    -0.207 Cl 
HETATM    2  C   UNL     1      -9.235   7.586  66.578  1.00  0.00    -0.174 A  
HETATM    3  C   UNL     1     -10.558   7.512  67.004  1.00  0.00    -0.409 A  
HETATM    4  C   UNL     1     -10.900   6.662  68.061  1.00  0.00    -0.345 A  
HETATM    5  C   UNL     1      -9.920   5.883  68.697  1.00  0.00    -0.188 A  
HETATM    6  C   UNL     1      -8.593   5.967  68.253  1.00  0.00    -0.115 A  
HETATM    7  C   UNL     1      -8.254   6.814  67.195  1.00  0.00    -0.121 A  
ENDROOT
BRANCH   5   8
HETATM    8  C   UNL     1     -10.282   5.016  69.881  1.00  0.00    -0.270 C  
BRANCH   8   9
HETATM    9  O   UNL     1     -10.018   5.732  71.081  1.00  0.00    -0.181 OA 
BRANCH   9  10
HETATM   10  C   UNL     1     -11.174   6.091  71.870  1.00  0.00    -0.282 C  
BRANCH  10  11
HETATM   11  C   UNL     1     -11.519   7.565  71.597  1.00  0.00    -0.292 A  
HETATM   12  C   UNL     1     -12.045  10.304  71.085  1.00  0.00    -0.395 A  
HETATM   13  C   UNL     1     -12.828   8.088  71.659  1.00  0.00    -0.329 A  
HETATM   14  C   UNL     1     -10.495   8.465  71.221  1.00  0.00    -0.273 A  
HETATM   15  C   UNL     1     -13.083   9.450  71.435  1.00  0.00    -0.419 A  
HETATM   16 CL   UNL     1     -12.368  11.966  70.778  1.00  0.00    -0.458 Cl 
HETATM   17 CL   UNL     1     -14.219   7.105  71.952  1.00  0.00    -0.474 Cl 
HETATM   18  C   UNL     1     -10.754   9.815  70.959  1.00  0.00    -0.342 A  
ENDBRANCH  10  11
BRANCH  10  19
HETATM   19  C   UNL     1     -10.950   5.717  73.358  1.00  0.00    -0.222 C  
BRANCH  19  20
HETATM   20  N   UNL     1     -10.312   4.433  73.558  1.00  0.00    -0.166 NA 
HETATM   21  C   UNL     1     -10.818   3.214  73.199  1.00  0.00    -0.139 A  
HETATM   22  N   UNL     1      -8.785   2.947  74.144  1.00  0.00    -0.075 NA 
HETATM   23  C   UNL     1      -9.874   2.306  73.618  1.00  0.00    -0.091 A  
HETATM   24  C   UNL     1      -9.066   4.228  74.072  1.00  0.00    -0.096 A  
ENDBRANCH  19  20
ENDBRANCH  10  19
ENDBRANCH   9  10
ENDBRANCH   8   9
ENDBRANCH   5   8
TORSDOF 6
ENDMDL
MODEL      123
REMARK 921   NORMALIZED FREE ENERGY PREDICTED BY IDOCK:   -4.59 KCAL/MOL
REMARK 922        TOTAL FREE ENERGY PREDICTED BY IDOCK:   -7.33 KCAL/MOL
REMARK 923 INTER-LIGAND FREE ENERGY PREDICTED BY IDOCK:   -5.82 KCAL/MOL
REMARK 924 INTRA-LIGAND FREE ENERGY PREDICTED BY IDOCK:   -1.51 KCAL/MOL
REMARK 927      BINDING AFFINITY PREDICTED BY RF-SCORE:    0.00 PKD
ROOT
HETATM    1 CL   UNL     1      -8.257   7.956  66.352  1.00  0.00    -0.116 Cl 
HETATM    2  C   UNL     1      -8.060   9.495  67.093  1.00  0.00    -0.106 A  
HETATM    3  C   UNL     1      -8.360   9.660  68.442  1.00  0.00    -0.117 A  
HETATM    4  C   UNL     1      -8.211  10.916  69.037  1.00  0.00    -0.126 A  
HETATM    5  C   UNL     1      -7.762  12.015  68.285  1.00  0.00    -0.127 A  
HETATM    6  C   UNL     1      -7.460  11.830  66.929  1.00  0.00    -0.106 A  
HETATM    7  C   UNL     1      -7.606  10.573  66.337  1.00  0.00    -0.132 A  
ENDROOT
BRANCH   5   8
HETATM    8  C   UNL     1      -7.665  13.384  68.916  1.00  0.00     0.049 C  
BRANCH   8   9
HETATM    9  O   UNL     1      -8.399  14.313  68.128  1.00  0.00    -0.144 OA 
BRANCH   9  10
HETATM   10  C   UNL     1      -9.831  14.314  68.320  1.00  0.00    -0.235 C  
BRANCH  10  11
HETATM   11  C   UNL     1     -10.498  13.750  67.052  1.00  0.00    -0.274 A  
HETATM   12  C   UNL     1     -11.679  12.794  64.658  1.00  0.00    -0.355 A  
HETATM   13  C   UNL     1     -11.415  12.678  67.060  1.00  0.00    -0.346 A  
HETATM   14  C   UNL     1     -10.164  14.289  65.788  1.00  0.00    -0.351 A  
HETATM   15  C   UNL     1     -12.022  12.226  65.878  1.00  0.00    -0.358 A  
HETATM   16 CL   UNL     1     -12.401  12.214  63.208  1.00  0.00    -0.617 Cl 
HETATM   17 CL   UNL     1     -11.821  11.800  68.493  1.00  0.00    -0.384 Cl 
HETATM   18  C   UNL     1     -10.739  13.813  64.605  1.00  0.00    -0.427 A  
ENDBRANCH  10  11
BRANCH  10  19
HETATM   19  C   UNL     1     -10.317  15.716  68.768  1.00  0.00    -0.218 C  
BRANCH  19  20
HETATM   20  N   UNL     1     -11.269  15.693  69.859  1.00  0.00    -0.300 NA 
HETATM   21  C   UNL     1     -11.008  15.994  71.167  1.00  0.00     0.028 A  
HETATM   22  N   UNL     1     -13.191  15.472  70.927  1.00  0.00    -0.502 NA 
HETATM   23  C   UNL     1     -12.204  15.801  71.817  1.00  0.00    -0.452 A  
HETATM   24  C   UNL     1     -12.604  15.439  69.752  1.00  0.00    -0.103 A  
ENDBRANCH  19  20
ENDBRANCH  10  19
ENDBRANCH   9  10
ENDBRANCH   8   9
ENDBRANCH   5   8
TORSDOF 6
ENDMDL
MODEL      124
REMARK 921   NORMALIZED FREE ENERGY PREDICTED BY IDOCK:   -4.59 KCAL/MOL
REMARK 922        TOTAL FREE ENERGY PREDICTED BY IDOCK:   -7.33 KCAL/MOL
REMARK 923 INTER-LIGAND FREE ENERGY PREDICTED BY IDOCK:   -6.14 KCAL/MOL
REMARK 924 INTRA-LIGAND FREE ENERGY PREDICTED BY IDOCK:   -1.20 KCAL/MOL
REMARK 927      BINDING AFFINITY PREDICTED BY RF-SCORE:    0.00 PKD
ROOT
HETATM    1 CL   UNL     1      -6.968  20.430  68.308  1.00  0.00    -0.291 Cl 
HETATM    2  C   UNL     1      -8.042  19.296  67.588  1.00  0.00    -0.277 A  
HETATM    3  C   UNL     1      -7.547  18.319  66.728  1.00  0.00    -0.245 A  
HETATM    4  C   UNL     1      -8.426  17.408  66.135  1.00  0.00    -0.198 A  
HETATM    5  C   UNL     1      -9.805  17.469  66.397  1.00  0.00    -0.316 A  
HETATM    6  C   UNL     1     -10.286  18.456  67.268  1.00  0.00    -0.396 A  
HETATM    7  C   UNL     1      -9.406  19.364  67.863  1.00  0.00    -0.397 A  
ENDROOT
BRANCH   5   8
HETATM    8  C   UNL     1     -10.758  16.524  65.703  1.00  0.00    -0.248 C  
BRANCH   8   9
HETATM    9  O   UNL     1     -10.396  15.185  66.014  1.00  0.00    -0.279 OA 
BRANCH   9  10
HETATM   10  C   UNL     1     -10.641  14.762  67.373  1.00  0.00    -0.268 C  
BRANCH  10  11
HETATM   11  C   UNL     1      -9.294  14.416  68.032  1.00  0.00    -0.200 A  
HETATM   12  C   UNL     1      -6.815  13.877  69.300  1.00  0.00    -0.094 A  
HETATM   13  C   UNL     1      -8.532  13.275  67.705  1.00  0.00    -0.181 A  
HETATM   14  C   UNL     1      -8.782  15.247  69.055  1.00  0.00    -0.226 A  
HETATM   15  C   UNL     1      -7.291  13.025  68.312  1.00  0.00    -0.116 A  
HETATM   16 CL   UNL     1      -5.310  13.548  70.065  1.00  0.00    -0.092 Cl 
HETATM   17 CL   UNL     1      -9.076  12.070  66.591  1.00  0.00    -0.203 Cl 
HETATM   18  C   UNL     1      -7.563  14.978  69.688  1.00  0.00    -0.140 A  
ENDBRANCH  10  11
BRANCH  10  19
HETATM   19  C   UNL     1     -11.713  13.643  67.407  1.00  0.00    -0.381 C  
BRANCH  19  20
HETATM   20  N   UNL     1     -11.943  13.081  68.722  1.00  0.00    -0.306 NA 
HETATM   21  C   UNL     1     -11.701  11.790  69.103  1.00  0.00    -0.325 A  
HETATM   22  N   UNL     1     -12.499  12.966  70.858  1.00  0.00    -0.351 NA 
HETATM   23  C   UNL     1     -12.101  11.732  70.418  1.00  0.00    -0.352 A  
HETATM   24  C   UNL     1     -12.369  13.763  69.822  1.00  0.00    -0.255 A  
ENDBRANCH  19  20
ENDBRANCH  10  19
ENDBRANCH   9  10
ENDBRANCH   8   9
ENDBRANCH   5   8
TORSDOF 6
ENDMDL
MODEL      125
REMARK 921   NORMALIZED FREE ENERGY PREDICTED BY IDOCK:   -4.59 KCAL/MOL
REMARK 922        TOTAL FREE ENERGY PREDICTED BY IDOCK:   -7.33 KCAL/MOL
REMARK 923 INTER-LIGAND FREE ENERGY PREDICTED BY IDOCK:   -6.30 KCAL/MOL
REMARK 924 INTRA-LIGAND FREE ENERGY PREDICTED BY IDOCK:   -1.03 KCAL/MOL
REMARK 927      BINDING AFFINITY PREDICTED BY RF-SCORE:    0.00 PKD
ROOT
HETATM    1 CL   UNL     1      -8.223   3.316  67.277  1.00  0.00    -0.082 Cl 
HETATM    2  C   UNL     1      -8.976   4.862  67.268  1.00  0.00    -0.111 A  
HETATM    3  C   UNL     1      -8.238   5.996  67.600  1.00  0.00    -0.109 A  
HETATM    4  C   UNL     1      -8.858   7.249  67.604  1.00  0.00    -0.123 A  
HETATM    5  C   UNL     1     -10.218   7.376  67.278  1.00  0.00    -0.330 A  
HETATM    6  C   UNL     1     -10.945   6.224  66.942  1.00  0.00    -0.404 A  
HETATM    7  C   UNL     1     -10.323   4.974  66.935  1.00  0.00    -0.267 A  
ENDROOT
BRANCH   5   8
HETATM    8  C   UNL     1     -10.899   8.722  67.347  1.00  0.00    -0.017 C  
BRANCH   8   9
HETATM    9  O   UNL     1     -10.188   9.559  68.251  1.00  0.00    -0.177 OA 
BRANCH   9  10
HETATM   10  C   UNL     1     -10.795   9.751  69.548  1.00  0.00    -0.240 C  
BRANCH  10  11
HETATM   11  C   UNL     1     -11.226  11.222  69.677  1.00  0.00    -0.321 A  
HETATM   12  C   UNL     1     -11.942  13.962  69.840  1.00  0.00    -0.341 A  
HETATM   13  C   UNL     1     -12.164  11.684  70.624  1.00  0.00    -0.366 A  
HETATM   14  C   UNL     1     -10.700  12.186  68.786  1.00  0.00    -0.252 A  
HETATM   15  C   UNL     1     -12.495  13.044  70.724  1.00  0.00    -0.384 A  
HETATM   16 CL   UNL     1     -12.376  15.623  69.944  1.00  0.00    -0.333 Cl 
HETATM   17 CL   UNL     1     -13.022  10.626  71.689  1.00  0.00    -0.560 Cl 
HETATM   18  C   UNL     1     -11.058  13.536  68.859  1.00  0.00    -0.305 A  
ENDBRANCH  10  11
BRANCH  10  19
HETATM   19  C   UNL     1      -9.861   9.223  70.666  1.00  0.00    -0.270 C  
BRANCH  19  20
HETATM   20  N   UNL     1     -10.365   8.054  71.358  1.00  0.00    -0.197 NA 
HETATM   21  C   UNL     1     -10.382   7.861  72.712  1.00  0.00    -0.333 A  
HETATM   22  N   UNL     1     -11.300   6.077  71.676  1.00  0.00    -0.274 NA 
HETATM   23  C   UNL     1     -10.921   6.607  72.880  1.00  0.00    -0.253 A  
HETATM   24  C   UNL     1     -10.976   6.982  70.780  1.00  0.00    -0.255 A  
ENDBRANCH  19  20
ENDBRANCH  10  19
ENDBRANCH   9  10
ENDBRANCH   8   9
ENDBRANCH   5   8
TORSDOF 6
ENDMDL
MODEL      126
REMARK 921   NORMALIZED FREE ENERGY PREDICTED BY IDOCK:   -4.56 KCAL/MOL
REMARK 922        TOTAL FREE ENERGY PREDICTED BY IDOCK:   -7.28 KCAL/MOL
REMARK 923 INTER-LIGAND FREE ENERGY PREDICTED BY IDOCK:   -6.58 KCAL/MOL
REMARK 924 INTRA-LIGAND FREE ENERGY PREDICTED BY IDOCK:   -0.70 KCAL/MOL
REMARK 927      BINDING AFFINITY PREDICTED BY RF-SCORE:    0.00 PKD
ROOT
HETATM    1 CL   UNL     1      -6.016  12.096  67.192  1.00  0.00    -0.152 Cl 
HETATM    2  C   UNL     1      -7.716  12.291  67.367  1.00  0.00    -0.165 A  
HETATM    3  C   UNL     1      -8.221  13.367  68.091  1.00  0.00    -0.160 A  
HETATM    4  C   UNL     1      -9.603  13.513  68.242  1.00  0.00    -0.218 A  
HETATM    5  C   UNL     1     -10.487  12.583  67.670  1.00  0.00    -0.228 A  
HETATM    6  C   UNL     1      -9.962  11.508  66.940  1.00  0.00    -0.231 A  
HETATM    7  C   UNL     1      -8.580  11.366  66.787  1.00  0.00    -0.166 A  
ENDROOT
BRANCH   5   8
HETATM    8  C   UNL     1     -11.977  12.709  67.890  1.00  0.00    -0.249 C  
BRANCH   8   9
HETATM    9  O   UNL     1     -12.407  11.678  68.769  1.00  0.00    -0.374 OA 
BRANCH   9  10
HETATM   10  C   UNL     1     -11.839  11.702  70.098  1.00  0.00    -0.344 C  
BRANCH  10  11
HETATM   11  C   UNL     1     -11.256  10.312  70.410  1.00  0.00    -0.407 A  
HETATM   12  C   UNL     1     -10.085   7.784  70.941  1.00  0.00    -0.187 A  
HETATM   13  C   UNL     1     -12.020   9.237  70.912  1.00  0.00    -0.257 A  
HETATM   14  C   UNL     1      -9.874  10.077  70.231  1.00  0.00    -0.144 A  
HETATM   15  C   UNL     1     -11.445   7.978  71.146  1.00  0.00    -0.302 A  
HETATM   16 CL   UNL     1      -9.379   6.249  71.261  1.00  0.00    -0.161 Cl 
HETATM   17 CL   UNL     1     -13.689   9.388  71.335  1.00  0.00    -0.372 Cl 
HETATM   18  C   UNL     1      -9.292   8.833  70.501  1.00  0.00    -0.219 A  
ENDBRANCH  10  11
BRANCH  10  19
HETATM   19  C   UNL     1     -12.873  12.241  71.119  1.00  0.00    -0.207 C  
BRANCH  19  20
HETATM   20  N   UNL     1     -12.861  13.682  71.270  1.00  0.00    -0.348 NA 
HETATM   21  C   UNL     1     -11.921  14.540  70.768  1.00  0.00    -0.322 A  
HETATM   22  N   UNL     1     -13.511  15.708  71.867  1.00  0.00    -0.476 NA 
HETATM   23  C   UNL     1     -12.321  15.785  71.194  1.00  0.00    -0.427 A  
HETATM   24  C   UNL     1     -13.825  14.432  71.874  1.00  0.00    -0.462 A  
ENDBRANCH  19  20
ENDBRANCH  10  19
ENDBRANCH   9  10
ENDBRANCH   8   9
ENDBRANCH   5   8
TORSDOF 6
ENDMDL
MODEL      127
REMARK 921   NORMALIZED FREE ENERGY PREDICTED BY IDOCK:   -4.52 KCAL/MOL
REMARK 922        TOTAL FREE ENERGY PREDICTED BY IDOCK:   -7.24 KCAL/MOL
REMARK 923 INTER-LIGAND FREE ENERGY PREDICTED BY IDOCK:   -6.40 KCAL/MOL
REMARK 924 INTRA-LIGAND FREE ENERGY PREDICTED BY IDOCK:   -0.84 KCAL/MOL
REMARK 927      BINDING AFFINITY PREDICTED BY RF-SCORE:    0.00 PKD
ROOT
HETATM    1 CL   UNL     1      -7.081   8.661  63.948  1.00  0.00    -0.093 Cl 
HETATM    2  C   UNL     1      -7.894   9.299  65.323  1.00  0.00    -0.105 A  
HETATM    3  C   UNL     1      -7.414  10.450  65.942  1.00  0.00    -0.139 A  
HETATM    4  C   UNL     1      -8.071  10.957  67.067  1.00  0.00    -0.131 A  
HETATM    5  C   UNL     1      -9.210  10.316  67.580  1.00  0.00    -0.154 A  
HETATM    6  C   UNL     1      -9.682   9.160  66.942  1.00  0.00    -0.254 A  
HETATM    7  C   UNL     1      -9.027   8.656  65.816  1.00  0.00    -0.244 A  
ENDROOT
BRANCH   5   8
HETATM    8  C   UNL     1      -9.877  10.830  68.834  1.00  0.00    -0.199 C  
BRANCH   8   9
HETATM    9  O   UNL     1     -11.276  10.586  68.752  1.00  0.00    -0.243 OA 
BRANCH   9  10
HETATM   10  C   UNL     1     -12.126  11.550  69.411  1.00  0.00    -0.279 C  
BRANCH  10  11
HETATM   11  C   UNL     1     -11.733  12.960  68.936  1.00  0.00    -0.370 A  
HETATM   12  C   UNL     1     -11.005  15.591  68.167  1.00  0.00    -0.312 A  
HETATM   13  C   UNL     1     -11.702  13.349  67.580  1.00  0.00    -0.366 A  
HETATM   14  C   UNL     1     -11.338  13.933  69.883  1.00  0.00    -0.176 A  
HETATM   15  C   UNL     1     -11.370  14.661  67.203  1.00  0.00    -0.365 A  
HETATM   16 CL   UNL     1     -10.567  17.187  67.696  1.00  0.00    -0.356 Cl 
HETATM   17 CL   UNL     1     -12.005  12.251  66.280  1.00  0.00    -0.394 Cl 
HETATM   18  C   UNL     1     -10.970  15.229  69.505  1.00  0.00    -0.280 A  
ENDBRANCH  10  11
BRANCH  10  19
HETATM   19  C   UNL     1     -12.107  11.329  70.945  1.00  0.00    -0.301 C  
BRANCH  19  20
HETATM   20  N   UNL     1     -12.353   9.960  71.350  1.00  0.00    -0.374 NA 
HETATM   21  C   UNL     1     -13.532   9.278  71.223  1.00  0.00    -0.249 A  
HETATM   22  N   UNL     1     -11.970   7.935  72.147  1.00  0.00    -0.317 NA 
HETATM   23  C   UNL     1     -13.281   8.041  71.769  1.00  0.00    -0.341 A  
HETATM   24  C   UNL     1     -11.429   9.097  71.859  1.00  0.00    -0.353 A  
ENDBRANCH  19  20
ENDBRANCH  10  19
ENDBRANCH   9  10
ENDBRANCH   8   9
ENDBRANCH   5   8
TORSDOF 6
ENDMDL
MODEL      128
REMARK 921   NORMALIZED FREE ENERGY PREDICTED BY IDOCK:   -4.52 KCAL/MOL
REMARK 922        TOTAL FREE ENERGY PREDICTED BY IDOCK:   -7.23 KCAL/MOL
REMARK 923 INTER-LIGAND FREE ENERGY PREDICTED BY IDOCK:   -6.69 KCAL/MOL
REMARK 924 INTRA-LIGAND FREE ENERGY PREDICTED BY IDOCK:   -0.55 KCAL/MOL
REMARK 927      BINDING AFFINITY PREDICTED BY RF-SCORE:    0.00 PKD
ROOT
HETATM    1 CL   UNL     1     -11.656   6.239  72.166  1.00  0.00    -0.352 Cl 
HETATM    2  C   UNL     1     -11.553   7.724  71.304  1.00  0.00    -0.277 A  
HETATM    3  C   UNL     1     -10.852   7.783  70.103  1.00  0.00    -0.248 A  
HETATM    4  C   UNL     1     -10.760   8.995  69.412  1.00  0.00    -0.202 A  
HETATM    5  C   UNL     1     -11.366  10.155  69.921  1.00  0.00    -0.335 A  
HETATM    6  C   UNL     1     -12.071  10.078  71.130  1.00  0.00    -0.475 A  
HETATM    7  C   UNL     1     -12.166   8.865  71.816  1.00  0.00    -0.429 A  
ENDROOT
BRANCH   5   8
HETATM    8  C   UNL     1     -11.209  11.477  69.206  1.00  0.00    -0.272 C  
BRANCH   8   9
HETATM    9  O   UNL     1     -11.510  11.300  67.828  1.00  0.00    -0.373 OA 
BRANCH   9  10
HETATM   10  C   UNL     1     -10.503  11.753  66.896  1.00  0.00    -0.223 C  
BRANCH  10  11
HETATM   11  C   UNL     1     -10.358  13.279  67.031  1.00  0.00    -0.246 A  
HETATM   12  C   UNL     1      -9.995  16.075  67.335  1.00  0.00    -0.241 A  
HETATM   13  C   UNL     1     -11.344  14.200  66.616  1.00  0.00    -0.344 A  
HETATM   14  C   UNL     1      -9.165  13.824  67.559  1.00  0.00    -0.216 A  
HETATM   15  C   UNL     1     -11.176  15.582  66.795  1.00  0.00    -0.139 A  
HETATM   16 CL   UNL     1      -9.780  17.772  67.521  1.00  0.00    -0.278 Cl 
HETATM   17 CL   UNL     1     -12.796  13.721  65.810  1.00  0.00    -0.496 Cl 
HETATM   18  C   UNL     1      -8.981  15.204  67.702  1.00  0.00    -0.183 A  
ENDBRANCH  10  11
BRANCH  10  19
HETATM   19  C   UNL     1     -10.810  11.231  65.470  1.00  0.00    -0.179 C  
BRANCH  19  20
HETATM   20  N   UNL     1      -9.824  10.306  64.951  1.00  0.00    -0.321 NA 
HETATM   21  C   UNL     1      -9.227  10.365  63.722  1.00  0.00    -0.269 A  
HETATM   22  N   UNL     1      -8.422   8.599  64.875  1.00  0.00    -0.174 NA 
HETATM   23  C   UNL     1      -8.399   9.268  63.681  1.00  0.00    -0.185 A  
HETATM   24  C   UNL     1      -9.269   9.262  65.629  1.00  0.00    -0.231 A  
ENDBRANCH  19  20
ENDBRANCH  10  19
ENDBRANCH   9  10
ENDBRANCH   8   9
ENDBRANCH   5   8
TORSDOF 6
ENDMDL
MODEL      129
REMARK 921   NORMALIZED FREE ENERGY PREDICTED BY IDOCK:   -4.51 KCAL/MOL
REMARK 922        TOTAL FREE ENERGY PREDICTED BY IDOCK:   -7.22 KCAL/MOL
REMARK 923 INTER-LIGAND FREE ENERGY PREDICTED BY IDOCK:   -7.14 KCAL/MOL
REMARK 924 INTRA-LIGAND FREE ENERGY PREDICTED BY IDOCK:   -0.08 KCAL/MOL
REMARK 927      BINDING AFFINITY PREDICTED BY RF-SCORE:    0.00 PKD
ROOT
HETATM    1 CL   UNL     1      -9.239   3.535  64.255  1.00  0.00    -0.124 Cl 
HETATM    2  C   UNL     1      -9.391   4.917  65.268  1.00  0.00    -0.120 A  
HETATM    3  C   UNL     1     -10.449   5.006  66.167  1.00  0.00    -0.334 A  
HETATM    4  C   UNL     1     -10.576   6.138  66.979  1.00  0.00    -0.384 A  
HETATM    5  C   UNL     1      -9.645   7.186  66.894  1.00  0.00    -0.216 A  
HETATM    6  C   UNL     1      -8.583   7.078  65.986  1.00  0.00    -0.154 A  
HETATM    7  C   UNL     1      -8.456   5.946  65.179  1.00  0.00    -0.130 A  
ENDROOT
BRANCH   5   8
HETATM    8  C   UNL     1      -9.823   8.435  67.726  1.00  0.00    -0.174 C  
BRANCH   8   9
HETATM    9  O   UNL     1     -10.443   9.439  66.933  1.00  0.00    -0.245 OA 
BRANCH   9  10
HETATM   10  C   UNL     1     -11.149  10.471  67.658  1.00  0.00    -0.309 C  
BRANCH  10  11
HETATM   11  C   UNL     1     -11.271  11.711  66.754  1.00  0.00    -0.371 A  
HETATM   12  C   UNL     1     -11.557  14.046  65.170  1.00  0.00    -0.342 A  
HETATM   13  C   UNL     1     -10.810  11.758  65.421  1.00  0.00    -0.295 A  
HETATM   14  C   UNL     1     -11.837  12.899  67.271  1.00  0.00    -0.416 A  
HETATM   15  C   UNL     1     -10.980  12.904  64.629  1.00  0.00    -0.357 A  
HETATM   16 CL   UNL     1     -11.732  15.459  64.204  1.00  0.00    -0.228 Cl 
HETATM   17 CL   UNL     1      -9.956  10.453  64.676  1.00  0.00    -0.408 Cl 
HETATM   18  C   UNL     1     -11.972  14.055  66.493  1.00  0.00    -0.470 A  
ENDBRANCH  10  11
BRANCH  10  19
HETATM   19  C   UNL     1     -10.489  10.710  69.040  1.00  0.00    -0.214 C  
BRANCH  19  20
HETATM   20  N   UNL     1     -11.355  10.431  70.167  1.00  0.00    -0.300 NA 
HETATM   21  C   UNL     1     -11.263   9.359  71.012  1.00  0.00    -0.342 A  
HETATM   22  N   UNL     1     -12.976  10.685  71.647  1.00  0.00    -0.454 NA 
HETATM   23  C   UNL     1     -12.309   9.514  71.890  1.00  0.00    -0.373 A  
HETATM   24  C   UNL     1     -12.364  11.228  70.620  1.00  0.00    -0.383 A  
ENDBRANCH  19  20
ENDBRANCH  10  19
ENDBRANCH   9  10
ENDBRANCH   8   9
ENDBRANCH   5   8
TORSDOF 6
ENDMDL
MODEL      130
REMARK 921   NORMALIZED FREE ENERGY PREDICTED BY IDOCK:   -4.50 KCAL/MOL
REMARK 922        TOTAL FREE ENERGY PREDICTED BY IDOCK:   -7.21 KCAL/MOL
REMARK 923 INTER-LIGAND FREE ENERGY PREDICTED BY IDOCK:   -6.09 KCAL/MOL
REMARK 924 INTRA-LIGAND FREE ENERGY PREDICTED BY IDOCK:   -1.12 KCAL/MOL
REMARK 927      BINDING AFFINITY PREDICTED BY RF-SCORE:    0.00 PKD
ROOT
HETATM    1 CL   UNL     1     -10.598  13.170  65.153  1.00  0.00    -0.315 Cl 
HETATM    2  C   UNL     1     -10.403  11.554  65.711  1.00  0.00    -0.248 A  
HETATM    3  C   UNL     1      -9.685  10.638  64.948  1.00  0.00    -0.341 A  
HETATM    4  C   UNL     1      -9.541   9.322  65.399  1.00  0.00    -0.237 A  
HETATM    5  C   UNL     1     -10.115   8.916  66.616  1.00  0.00    -0.357 A  
HETATM    6  C   UNL     1     -10.831   9.854  67.374  1.00  0.00    -0.293 A  
HETATM    7  C   UNL     1     -10.970  11.168  66.923  1.00  0.00    -0.333 A  
ENDROOT
BRANCH   5   8
HETATM    8  C   UNL     1     -10.012   7.478  67.067  1.00  0.00    -0.234 C  
BRANCH   8   9
HETATM    9  O   UNL     1      -9.226   7.416  68.251  1.00  0.00    -0.138 OA 
BRANCH   9  10
HETATM   10  C   UNL     1      -9.696   6.513  69.276  1.00  0.00    -0.144 C  
BRANCH  10  11
HETATM   11  C   UNL     1     -10.760   7.237  70.120  1.00  0.00    -0.260 A  
HETATM   12  C   UNL     1     -12.792   8.491  71.649  1.00  0.00    -0.338 A  
HETATM   13  C   UNL     1     -10.556   8.495  70.727  1.00  0.00    -0.206 A  
HETATM   14  C   UNL     1     -12.008   6.617  70.354  1.00  0.00    -0.342 A  
HETATM   15  C   UNL     1     -11.573   9.128  71.458  1.00  0.00    -0.439 A  
HETATM   16 CL   UNL     1     -14.024   9.257  72.574  1.00  0.00    -0.468 Cl 
HETATM   17 CL   UNL     1      -9.042   9.328  70.676  1.00  0.00    -0.293 Cl 
HETATM   18  C   UNL     1     -13.009   7.230  71.115  1.00  0.00    -0.313 A  
ENDBRANCH  10  11
BRANCH  10  19
HETATM   19  C   UNL     1      -8.501   5.921  70.065  1.00  0.00    -0.126 C  
BRANCH  19  20
HETATM   20  N   UNL     1      -8.878   4.963  71.083  1.00  0.00    -0.125 NA 
HETATM   21  C   UNL     1      -8.817   5.154  72.436  1.00  0.00    -0.128 A  
HETATM   22  N   UNL     1      -9.637   3.098  71.994  1.00  0.00    -0.135 NA 
HETATM   23  C   UNL     1      -9.246   3.966  72.978  1.00  0.00    -0.109 A  
HETATM   24  C   UNL     1      -9.429   3.735  70.865  1.00  0.00    -0.165 A  
ENDBRANCH  19  20
ENDBRANCH  10  19
ENDBRANCH   9  10
ENDBRANCH   8   9
ENDBRANCH   5   8
TORSDOF 6
ENDMDL
MODEL      131
REMARK 921   NORMALIZED FREE ENERGY PREDICTED BY IDOCK:   -4.49 KCAL/MOL
REMARK 922        TOTAL FREE ENERGY PREDICTED BY IDOCK:   -7.19 KCAL/MOL
REMARK 923 INTER-LIGAND FREE ENERGY PREDICTED BY IDOCK:   -6.10 KCAL/MOL
REMARK 924 INTRA-LIGAND FREE ENERGY PREDICTED BY IDOCK:   -1.09 KCAL/MOL
REMARK 927      BINDING AFFINITY PREDICTED BY RF-SCORE:    0.00 PKD
ROOT
HETATM    1 CL   UNL     1     -11.274   7.223  72.824  1.00  0.00    -0.341 Cl 
HETATM    2  C   UNL     1     -11.591   8.626  71.881  1.00  0.00    -0.350 A  
HETATM    3  C   UNL     1     -10.678   9.034  70.913  1.00  0.00    -0.319 A  
HETATM    4  C   UNL     1     -10.934  10.183  70.159  1.00  0.00    -0.376 A  
HETATM    5  C   UNL     1     -12.105  10.930  70.369  1.00  0.00    -0.453 A  
HETATM    6  C   UNL     1     -13.016  10.503  71.345  1.00  0.00    -0.542 A  
HETATM    7  C   UNL     1     -12.760   9.353  72.095  1.00  0.00    -0.460 A  
ENDROOT
BRANCH   5   8
HETATM    8  C   UNL     1     -12.346  12.206  69.597  1.00  0.00    -0.004 C  
BRANCH   8   9
HETATM    9  O   UNL     1     -11.189  13.029  69.683  1.00  0.00    -0.148 OA 
BRANCH   9  10
HETATM   10  C   UNL     1     -10.735  13.613  68.442  1.00  0.00    -0.258 C  
BRANCH  10  11
HETATM   11  C   UNL     1      -9.562  12.775  67.904  1.00  0.00    -0.211 A  
HETATM   12  C   UNL     1      -7.330  11.305  66.956  1.00  0.00    -0.136 A  
HETATM   13  C   UNL     1      -9.722  11.647  67.071  1.00  0.00    -0.186 A  
HETATM   14  C   UNL     1      -8.238  13.103  68.277  1.00  0.00    -0.154 A  
HETATM   15  C   UNL     1      -8.615  10.938  66.578  1.00  0.00    -0.156 A  
HETATM   16 CL   UNL     1      -5.978  10.412  66.376  1.00  0.00    -0.067 Cl 
HETATM   17 CL   UNL     1     -11.270  11.011  66.639  1.00  0.00    -0.217 Cl 
HETATM   18  C   UNL     1      -7.136  12.374  67.818  1.00  0.00    -0.120 A  
ENDBRANCH  10  11
BRANCH  10  19
HETATM   19  C   UNL     1     -10.451  15.125  68.628  1.00  0.00    -0.234 C  
BRANCH  19  20
HETATM   20  N   UNL     1     -10.181  15.834  67.394  1.00  0.00    -0.265 NA 
HETATM   21  C   UNL     1     -10.969  15.840  66.276  1.00  0.00    -0.163 A  
HETATM   22  N   UNL     1      -9.158  17.145  65.938  1.00  0.00    -0.531 NA 
HETATM   23  C   UNL     1     -10.288  16.620  65.371  1.00  0.00    -0.190 A  
HETATM   24  C   UNL     1      -9.133  16.675  67.164  1.00  0.00    -0.214 A  
ENDBRANCH  19  20
ENDBRANCH  10  19
ENDBRANCH   9  10
ENDBRANCH   8   9
ENDBRANCH   5   8
TORSDOF 6
ENDMDL
MODEL      132
REMARK 921   NORMALIZED FREE ENERGY PREDICTED BY IDOCK:   -4.49 KCAL/MOL
REMARK 922        TOTAL FREE ENERGY PREDICTED BY IDOCK:   -7.19 KCAL/MOL
REMARK 923 INTER-LIGAND FREE ENERGY PREDICTED BY IDOCK:   -6.36 KCAL/MOL
REMARK 924 INTRA-LIGAND FREE ENERGY PREDICTED BY IDOCK:   -0.83 KCAL/MOL
REMARK 927      BINDING AFFINITY PREDICTED BY RF-SCORE:    0.00 PKD
ROOT
HETATM    1 CL   UNL     1     -10.358   5.521  68.316  1.00  0.00    -0.242 Cl 
HETATM    2  C   UNL     1      -9.951   7.191  68.241  1.00  0.00    -0.156 A  
HETATM    3  C   UNL     1      -8.896   7.684  69.003  1.00  0.00    -0.135 A  
HETATM    4  C   UNL     1      -8.578   9.044  68.949  1.00  0.00    -0.131 A  
HETATM    5  C   UNL     1      -9.313   9.919  68.132  1.00  0.00    -0.138 A  
HETATM    6  C   UNL     1     -10.370   9.405  67.367  1.00  0.00    -0.325 A  
HETATM    7  C   UNL     1     -10.684   8.045  67.420  1.00  0.00    -0.260 A  
ENDROOT
BRANCH   5   8
HETATM    8  C   UNL     1      -9.008  11.398  68.127  1.00  0.00    -0.169 C  
BRANCH   8   9
HETATM    9  O   UNL     1     -10.227  12.126  68.056  1.00  0.00    -0.189 OA 
BRANCH   9  10
HETATM   10  C   UNL     1     -10.106  13.566  68.057  1.00  0.00    -0.244 C  
BRANCH  10  11
HETATM   11  C   UNL     1     -10.913  14.128  69.240  1.00  0.00    -0.252 A  
HETATM   12  C   UNL     1     -12.480  15.087  71.401  1.00  0.00    -0.329 A  
HETATM   13  C   UNL     1     -10.542  15.279  69.966  1.00  0.00    -0.270 A  
HETATM   14  C   UNL     1     -12.077  13.453  69.676  1.00  0.00    -0.349 A  
HETATM   15  C   UNL     1     -11.334  15.770  71.016  1.00  0.00    -0.437 A  
HETATM   16 CL   UNL     1     -13.430  15.674  72.710  1.00  0.00    -0.615 Cl 
HETATM   17 CL   UNL     1      -9.072  16.140  69.673  1.00  0.00    -0.020 Cl 
HETATM   18  C   UNL     1     -12.847  13.920  70.747  1.00  0.00    -0.329 A  
ENDBRANCH  10  11
BRANCH  10  19
HETATM   19  C   UNL     1     -10.468  14.140  66.663  1.00  0.00    -0.278 C  
BRANCH  19  20
HETATM   20  N   UNL     1     -10.000  15.493  66.440  1.00  0.00    -0.267 NA 
HETATM   21  C   UNL     1     -10.771  16.623  66.431  1.00  0.00    -0.123 A  
HETATM   22  N   UNL     1      -8.610  17.170  66.070  1.00  0.00    -0.520 NA 
HETATM   23  C   UNL     1      -9.892  17.643  66.151  1.00  0.00    -0.242 A  
HETATM   24  C   UNL     1      -8.703  15.876  66.273  1.00  0.00    -0.337 A  
ENDBRANCH  19  20
ENDBRANCH  10  19
ENDBRANCH   9  10
ENDBRANCH   8   9
ENDBRANCH   5   8
TORSDOF 6
ENDMDL
MODEL      133
REMARK 921   NORMALIZED FREE ENERGY PREDICTED BY IDOCK:   -4.48 KCAL/MOL
REMARK 922        TOTAL FREE ENERGY PREDICTED BY IDOCK:   -7.19 KCAL/MOL
REMARK 923 INTER-LIGAND FREE ENERGY PREDICTED BY IDOCK:   -6.68 KCAL/MOL
REMARK 924 INTRA-LIGAND FREE ENERGY PREDICTED BY IDOCK:   -0.50 KCAL/MOL
REMARK 927      BINDING AFFINITY PREDICTED BY RF-SCORE:    0.00 PKD
ROOT
HETATM    1 CL   UNL     1     -13.098  11.099  71.852  1.00  0.00    -0.583 Cl 
HETATM    2  C   UNL     1     -12.468  12.218  70.708  1.00  0.00    -0.265 A  
HETATM    3  C   UNL     1     -12.462  13.579  70.998  1.00  0.00    -0.451 A  
HETATM    4  C   UNL     1     -11.960  14.486  70.060  1.00  0.00    -0.388 A  
HETATM    5  C   UNL     1     -11.463  14.036  68.825  1.00  0.00    -0.327 A  
HETATM    6  C   UNL     1     -11.473  12.662  68.551  1.00  0.00    -0.349 A  
HETATM    7  C   UNL     1     -11.971  11.757  69.491  1.00  0.00    -0.364 A  
ENDROOT
BRANCH   5   8
HETATM    8  C   UNL     1     -10.983  15.025  67.788  1.00  0.00    -0.298 C  
BRANCH   8   9
HETATM    9  O   UNL     1     -10.384  16.135  68.444  1.00  0.00    -0.240 OA 
BRANCH   9  10
HETATM   10  C   UNL     1      -8.940  16.137  68.496  1.00  0.00    -0.204 C  
BRANCH  10  11
HETATM   11  C   UNL     1      -8.417  17.293  67.624  1.00  0.00    -0.212 A  
HETATM   12  C   UNL     1      -7.385  19.350  65.968  1.00  0.00    -0.290 A  
HETATM   13  C   UNL     1      -8.787  18.642  67.808  1.00  0.00    -0.275 A  
HETATM   14  C   UNL     1      -7.547  17.016  66.545  1.00  0.00    -0.326 A  
HETATM   15  C   UNL     1      -8.252  19.663  67.007  1.00  0.00    -0.319 A  
HETATM   16 CL   UNL     1      -6.759  20.601  64.967  1.00  0.00    -0.274 Cl 
HETATM   17 CL   UNL     1      -9.958  19.144  68.977  1.00  0.00    -0.471 Cl 
HETATM   18  C   UNL     1      -7.043  18.029  65.722  1.00  0.00    -0.242 A  
ENDBRANCH  10  11
BRANCH  10  19
HETATM   19  C   UNL     1      -8.385  14.731  68.152  1.00  0.00    -0.144 C  
BRANCH  19  20
HETATM   20  N   UNL     1      -7.329  14.278  69.034  1.00  0.00    -0.126 NA 
HETATM   21  C   UNL     1      -6.792  14.979  70.078  1.00  0.00    -0.126 A  
HETATM   22  N   UNL     1      -5.805  12.954  69.932  1.00  0.00    -0.121 NA 
HETATM   23  C   UNL     1      -5.815  14.156  70.587  1.00  0.00    -0.191 A  
HETATM   24  C   UNL     1      -6.745  13.047  69.018  1.00  0.00    -0.099 A  
ENDBRANCH  19  20
ENDBRANCH  10  19
ENDBRANCH   9  10
ENDBRANCH   8   9
ENDBRANCH   5   8
TORSDOF 6
ENDMDL
MODEL      134
REMARK 921   NORMALIZED FREE ENERGY PREDICTED BY IDOCK:   -4.48 KCAL/MOL
REMARK 922        TOTAL FREE ENERGY PREDICTED BY IDOCK:   -7.18 KCAL/MOL
REMARK 923 INTER-LIGAND FREE ENERGY PREDICTED BY IDOCK:   -6.42 KCAL/MOL
REMARK 924 INTRA-LIGAND FREE ENERGY PREDICTED BY IDOCK:   -0.76 KCAL/MOL
REMARK 927      BINDING AFFINITY PREDICTED BY RF-SCORE:    0.00 PKD
ROOT
HETATM    1 CL   UNL     1     -10.849   5.357  72.287  1.00  0.00    -0.286 Cl 
HETATM    2  C   UNL     1     -11.106   6.900  71.571  1.00  0.00    -0.244 A  
HETATM    3  C   UNL     1     -10.036   7.594  71.013  1.00  0.00    -0.188 A  
HETATM    4  C   UNL     1     -10.248   8.853  70.444  1.00  0.00    -0.236 A  
HETATM    5  C   UNL     1     -11.530   9.426  70.431  1.00  0.00    -0.272 A  
HETATM    6  C   UNL     1     -12.597   8.712  70.993  1.00  0.00    -0.079 A  
HETATM    7  C   UNL     1     -12.385   7.452  71.558  1.00  0.00    -0.385 A  
ENDROOT
BRANCH   5   8
HETATM    8  C   UNL     1     -11.742  10.814  69.874  1.00  0.00    -0.333 C  
BRANCH   8   9
HETATM    9  O   UNL     1     -10.488  11.354  69.477  1.00  0.00    -0.083 OA 
BRANCH   9  10
HETATM   10  C   UNL     1     -10.451  11.977  68.174  1.00  0.00    -0.202 C  
BRANCH  10  11
HETATM   11  C   UNL     1     -10.358  13.502  68.359  1.00  0.00    -0.249 A  
HETATM   12  C   UNL     1     -10.295  16.314  68.720  1.00  0.00    -0.261 A  
HETATM   13  C   UNL     1      -9.181  14.248  68.134  1.00  0.00    -0.202 A  
HETATM   14  C   UNL     1     -11.485  14.221  68.819  1.00  0.00    -0.327 A  
HETATM   15  C   UNL     1      -9.160  15.644  68.284  1.00  0.00    -0.187 A  
HETATM   16 CL   UNL     1     -10.254  18.021  68.934  1.00  0.00    -0.372 Cl 
HETATM   17 CL   UNL     1      -7.671  13.517  67.719  1.00  0.00    -0.146 Cl 
HETATM   18  C   UNL     1     -11.454  15.608  69.005  1.00  0.00    -0.369 A  
ENDBRANCH  10  11
BRANCH  10  19
HETATM   19  C   UNL     1     -11.631  11.477  67.302  1.00  0.00    -0.199 C  
BRANCH  19  20
HETATM   20  N   UNL     1     -11.499  11.787  65.893  1.00  0.00    -0.324 NA 
HETATM   21  C   UNL     1     -10.778  11.076  64.973  1.00  0.00    -0.194 A  
HETATM   22  N   UNL     1     -11.787  12.826  63.964  1.00  0.00    -0.398 NA 
HETATM   23  C   UNL     1     -10.933  11.769  63.795  1.00  0.00    -0.429 A  
HETATM   24  C   UNL     1     -12.132  12.796  65.231  1.00  0.00    -0.457 A  
ENDBRANCH  19  20
ENDBRANCH  10  19
ENDBRANCH   9  10
ENDBRANCH   8   9
ENDBRANCH   5   8
TORSDOF 6
ENDMDL
MODEL      135
REMARK 921   NORMALIZED FREE ENERGY PREDICTED BY IDOCK:   -4.48 KCAL/MOL
REMARK 922        TOTAL FREE ENERGY PREDICTED BY IDOCK:   -7.18 KCAL/MOL
REMARK 923 INTER-LIGAND FREE ENERGY PREDICTED BY IDOCK:   -6.15 KCAL/MOL
REMARK 924 INTRA-LIGAND FREE ENERGY PREDICTED BY IDOCK:   -1.03 KCAL/MOL
REMARK 927      BINDING AFFINITY PREDICTED BY RF-SCORE:    0.00 PKD
ROOT
HETATM    1 CL   UNL     1     -13.045  14.381  71.726  1.00  0.00    -0.405 Cl 
HETATM    2  C   UNL     1     -12.404  13.400  70.467  1.00  0.00    -0.329 A  
HETATM    3  C   UNL     1     -12.286  12.025  70.648  1.00  0.00    -0.409 A  
HETATM    4  C   UNL     1     -11.751  11.234  69.626  1.00  0.00    -0.420 A  
HETATM    5  C   UNL     1     -11.332  11.815  68.418  1.00  0.00    -0.328 A  
HETATM    6  C   UNL     1     -11.462  13.200  68.250  1.00  0.00    -0.349 A  
HETATM    7  C   UNL     1     -11.999  13.988  69.271  1.00  0.00    -0.396 A  
ENDROOT
BRANCH   5   8
HETATM    8  C   UNL     1     -10.695  10.966  67.343  1.00  0.00    -0.257 C  
BRANCH   8   9
HETATM    9  O   UNL     1      -9.507  10.377  67.856  1.00  0.00    -0.138 OA 
BRANCH   9  10
HETATM   10  C   UNL     1      -9.322   8.973  67.569  1.00  0.00    -0.135 C  
BRANCH  10  11
HETATM   11  C   UNL     1      -9.877   8.153  68.747  1.00  0.00    -0.181 A  
HETATM   12  C   UNL     1     -10.844   6.708  70.988  1.00  0.00    -0.245 A  
HETATM   13  C   UNL     1     -10.638   6.975  68.592  1.00  0.00    -0.210 A  
HETATM   14  C   UNL     1      -9.664   8.599  70.072  1.00  0.00    -0.176 A  
HETATM   15  C   UNL     1     -11.090   6.244  69.702  1.00  0.00    -0.479 A  
HETATM   16 CL   UNL     1     -11.430   5.827  72.344  1.00  0.00    -0.352 Cl 
HETATM   17 CL   UNL     1     -11.124   6.368  67.048  1.00  0.00    -0.459 Cl 
HETATM   18  C   UNL     1     -10.148   7.892  71.178  1.00  0.00    -0.210 A  
ENDBRANCH  10  11
BRANCH  10  19
HETATM   19  C   UNL     1      -7.846   8.688  67.188  1.00  0.00    -0.097 C  
BRANCH  19  20
HETATM   20  N   UNL     1      -7.492   9.096  65.844  1.00  0.00    -0.093 NA 
HETATM   21  C   UNL     1      -6.269   9.553  65.435  1.00  0.00    -0.067 A  
HETATM   22  N   UNL     1      -7.687   9.490  63.679  1.00  0.00    -0.119 NA 
HETATM   23  C   UNL     1      -6.431   9.837  64.099  1.00  0.00    -0.119 A  
HETATM   24  C   UNL     1      -8.294   9.022  64.746  1.00  0.00    -0.173 A  
ENDBRANCH  19  20
ENDBRANCH  10  19
ENDBRANCH   9  10
ENDBRANCH   8   9
ENDBRANCH   5   8
TORSDOF 6
ENDMDL
MODEL      136
REMARK 921   NORMALIZED FREE ENERGY PREDICTED BY IDOCK:   -4.47 KCAL/MOL
REMARK 922        TOTAL FREE ENERGY PREDICTED BY IDOCK:   -7.17 KCAL/MOL
REMARK 923 INTER-LIGAND FREE ENERGY PREDICTED BY IDOCK:   -6.63 KCAL/MOL
REMARK 924 INTRA-LIGAND FREE ENERGY PREDICTED BY IDOCK:   -0.53 KCAL/MOL
REMARK 927      BINDING AFFINITY PREDICTED BY RF-SCORE:    0.00 PKD
ROOT
HETATM    1 CL   UNL     1      -8.189  10.045  64.555  1.00  0.00    -0.157 Cl 
HETATM    2  C   UNL     1      -9.003   8.944  65.596  1.00  0.00    -0.201 A  
HETATM    3  C   UNL     1     -10.069   9.383  66.375  1.00  0.00    -0.332 A  
HETATM    4  C   UNL     1     -10.719   8.487  67.229  1.00  0.00    -0.219 A  
HETATM    5  C   UNL     1     -10.305   7.147  67.309  1.00  0.00    -0.342 A  
HETATM    6  C   UNL     1      -9.232   6.720  66.514  1.00  0.00    -0.190 A  
HETATM    7  C   UNL     1      -8.586   7.616  65.659  1.00  0.00    -0.142 A  
ENDROOT
BRANCH   5   8
HETATM    8  C   UNL     1     -10.967   6.199  68.281  1.00  0.00    -0.308 C  
BRANCH   8   9
HETATM    9  O   UNL     1     -10.416   6.399  69.577  1.00  0.00    -0.194 OA 
BRANCH   9  10
HETATM   10  C   UNL     1     -11.348   6.324  70.679  1.00  0.00    -0.343 C  
BRANCH  10  11
HETATM   11  C   UNL     1     -11.828   7.746  71.016  1.00  0.00    -0.290 A  
HETATM   12  C   UNL     1     -12.815  10.326  71.659  1.00  0.00    -0.463 A  
HETATM   13  C   UNL     1     -11.039   8.902  70.839  1.00  0.00    -0.271 A  
HETATM   14  C   UNL     1     -13.113   7.937  71.573  1.00  0.00    -0.343 A  
HETATM   15  C   UNL     1     -11.539  10.182  71.130  1.00  0.00    -0.430 A  
HETATM   16 CL   UNL     1     -13.411  11.893  72.045  1.00  0.00    -0.545 Cl 
HETATM   17 CL   UNL     1      -9.392   8.845  70.315  1.00  0.00    -0.189 Cl 
HETATM   18  C   UNL     1     -13.599   9.208  71.899  1.00  0.00    -0.493 A  
ENDBRANCH  10  11
BRANCH  10  19
HETATM   19  C   UNL     1     -10.730   5.526  71.856  1.00  0.00    -0.231 C  
BRANCH  19  20
HETATM   20  N   UNL     1      -9.781   6.279  72.649  1.00  0.00    -0.159 NA 
HETATM   21  C   UNL     1      -8.461   6.484  72.352  1.00  0.00    -0.118 A  
HETATM   22  N   UNL     1      -8.979   7.532  74.284  1.00  0.00    -0.215 NA 
HETATM   23  C   UNL     1      -7.975   7.222  73.406  1.00  0.00    -0.105 A  
HETATM   24  C   UNL     1     -10.060   6.973  73.789  1.00  0.00    -0.352 A  
ENDBRANCH  19  20
ENDBRANCH  10  19
ENDBRANCH   9  10
ENDBRANCH   8   9
ENDBRANCH   5   8
TORSDOF 6
ENDMDL
MODEL      137
REMARK 921   NORMALIZED FREE ENERGY PREDICTED BY IDOCK:   -4.47 KCAL/MOL
REMARK 922        TOTAL FREE ENERGY PREDICTED BY IDOCK:   -7.16 KCAL/MOL
REMARK 923 INTER-LIGAND FREE ENERGY PREDICTED BY IDOCK:   -6.09 KCAL/MOL
REMARK 924 INTRA-LIGAND FREE ENERGY PREDICTED BY IDOCK:   -1.07 KCAL/MOL
REMARK 927      BINDING AFFINITY PREDICTED BY RF-SCORE:    0.00 PKD
ROOT
HETATM    1 CL   UNL     1      -8.926  20.599  67.030  1.00  0.00    -0.370 Cl 
HETATM    2  C   UNL     1      -9.120  18.919  66.716  1.00  0.00    -0.312 A  
HETATM    3  C   UNL     1     -10.388  18.346  66.762  1.00  0.00    -0.420 A  
HETATM    4  C   UNL     1     -10.539  16.977  66.519  1.00  0.00    -0.172 A  
HETATM    5  C   UNL     1      -9.423  16.174  66.231  1.00  0.00    -0.347 A  
HETATM    6  C   UNL     1      -8.154  16.769  66.184  1.00  0.00    -0.293 A  
HETATM    7  C   UNL     1      -8.006  18.137  66.423  1.00  0.00    -0.297 A  
ENDROOT
BRANCH   5   8
HETATM    8  C   UNL     1      -9.583  14.685  66.034  1.00  0.00    -0.290 C  
BRANCH   8   9
HETATM    9  O   UNL     1      -8.778  14.000  66.985  1.00  0.00    -0.219 OA 
BRANCH   9  10
HETATM   10  C   UNL     1      -9.446  12.984  67.765  1.00  0.00    -0.209 C  
BRANCH  10  11
HETATM   11  C   UNL     1     -10.344  13.673  68.807  1.00  0.00    -0.182 A  
HETATM   12  C   UNL     1     -12.085  14.880  70.692  1.00  0.00    -0.307 A  
HETATM   13  C   UNL     1      -9.928  14.761  69.603  1.00  0.00     0.057 A  
HETATM   14  C   UNL     1     -11.653  13.189  69.031  1.00  0.00    -0.360 A  
HETATM   15  C   UNL     1     -10.800  15.377  70.514  1.00  0.00    -0.327 A  
HETATM   16 CL   UNL     1     -13.139  15.618  71.834  1.00  0.00    -0.524 Cl 
HETATM   17 CL   UNL     1      -8.316  15.384  69.573  1.00  0.00    -0.243 Cl 
HETATM   18  C   UNL     1     -12.511  13.778  69.967  1.00  0.00    -0.301 A  
ENDBRANCH  10  11
BRANCH  10  19
HETATM   19  C   UNL     1      -8.417  11.971  68.329  1.00  0.00    -0.167 C  
BRANCH  19  20
HETATM   20  N   UNL     1      -7.360  11.620  67.403  1.00  0.00    -0.119 NA 
HETATM   21  C   UNL     1      -7.466  10.759  66.345  1.00  0.00    -0.142 A  
HETATM   22  N   UNL     1      -5.373  11.603  66.437  1.00  0.00    -0.301 NA 
HETATM   23  C   UNL     1      -6.207  10.729  65.792  1.00  0.00    -0.101 A  
HETATM   24  C   UNL     1      -6.103  12.144  67.386  1.00  0.00    -0.143 A  
ENDBRANCH  19  20
ENDBRANCH  10  19
ENDBRANCH   9  10
ENDBRANCH   8   9
ENDBRANCH   5   8
TORSDOF 6
ENDMDL
MODEL      138
REMARK 921   NORMALIZED FREE ENERGY PREDICTED BY IDOCK:   -4.46 KCAL/MOL
REMARK 922        TOTAL FREE ENERGY PREDICTED BY IDOCK:   -7.15 KCAL/MOL
REMARK 923 INTER-LIGAND FREE ENERGY PREDICTED BY IDOCK:   -6.71 KCAL/MOL
REMARK 924 INTRA-LIGAND FREE ENERGY PREDICTED BY IDOCK:   -0.44 KCAL/MOL
REMARK 927      BINDING AFFINITY PREDICTED BY RF-SCORE:    0.00 PKD
ROOT
HETATM    1 CL   UNL     1     -11.634  12.562  63.462  1.00  0.00    -0.561 Cl 
HETATM    2  C   UNL     1     -11.036  11.687  64.816  1.00  0.00    -0.289 A  
HETATM    3  C   UNL     1     -10.086  10.686  64.631  1.00  0.00    -0.417 A  
HETATM    4  C   UNL     1      -9.612   9.968  65.734  1.00  0.00    -0.291 A  
HETATM    5  C   UNL     1     -10.087  10.247  67.026  1.00  0.00    -0.268 A  
HETATM    6  C   UNL     1     -11.040  11.261  67.194  1.00  0.00    -0.364 A  
HETATM    7  C   UNL     1     -11.510  11.979  66.092  1.00  0.00    -0.401 A  
ENDROOT
BRANCH   5   8
HETATM    8  C   UNL     1      -9.621   9.425  68.206  1.00  0.00    -0.142 C  
BRANCH   8   9
HETATM    9  O   UNL     1     -10.735   8.742  68.767  1.00  0.00    -0.181 OA 
BRANCH   9  10
HETATM   10  C   UNL     1     -10.433   7.534  69.500  1.00  0.00    -0.226 C  
BRANCH  10  11
HETATM   11  C   UNL     1     -10.050   6.432  68.496  1.00  0.00    -0.173 A  
HETATM   12  C   UNL     1      -9.439   4.422  66.592  1.00  0.00    -0.179 A  
HETATM   13  C   UNL     1      -8.919   5.600  68.640  1.00  0.00    -0.111 A  
HETATM   14  C   UNL     1     -10.831   6.244  67.333  1.00  0.00    -0.448 A  
HETATM   15  C   UNL     1      -8.635   4.585  67.712  1.00  0.00    -0.107 A  
HETATM   16 CL   UNL     1      -9.067   3.199  65.440  1.00  0.00    -0.146 Cl 
HETATM   17 CL   UNL     1      -7.769   5.790  69.917  1.00  0.00    -0.086 Cl 
HETATM   18  C   UNL     1     -10.526   5.258  66.388  1.00  0.00    -0.347 A  
ENDBRANCH  10  11
BRANCH  10  19
HETATM   19  C   UNL     1     -11.590   7.186  70.471  1.00  0.00    -0.290 C  
BRANCH  19  20
HETATM   20  N   UNL     1     -12.218   8.339  71.083  1.00  0.00    -0.273 NA 
HETATM   21  C   UNL     1     -13.491   8.396  71.581  1.00  0.00    -0.337 A  
HETATM   22  N   UNL     1     -12.465  10.386  71.878  1.00  0.00    -0.294 NA 
HETATM   23  C   UNL     1     -13.635   9.690  72.023  1.00  0.00    -0.385 A  
HETATM   24  C   UNL     1     -11.622   9.538  71.333  1.00  0.00    -0.395 A  
ENDBRANCH  19  20
ENDBRANCH  10  19
ENDBRANCH   9  10
ENDBRANCH   8   9
ENDBRANCH   5   8
TORSDOF 6
ENDMDL
MODEL      139
REMARK 921   NORMALIZED FREE ENERGY PREDICTED BY IDOCK:   -4.45 KCAL/MOL
REMARK 922        TOTAL FREE ENERGY PREDICTED BY IDOCK:   -7.14 KCAL/MOL
REMARK 923 INTER-LIGAND FREE ENERGY PREDICTED BY IDOCK:   -6.36 KCAL/MOL
REMARK 924 INTRA-LIGAND FREE ENERGY PREDICTED BY IDOCK:   -0.78 KCAL/MOL
REMARK 927      BINDING AFFINITY PREDICTED BY RF-SCORE:    0.00 PKD
ROOT
HETATM    1 CL   UNL     1     -12.996  15.763  70.962  1.00  0.00    -0.492 Cl 
HETATM    2  C   UNL     1     -12.783  14.060  71.079  1.00  0.00    -0.361 A  
HETATM    3  C   UNL     1     -11.980  13.395  70.156  1.00  0.00    -0.396 A  
HETATM    4  C   UNL     1     -11.822  12.009  70.247  1.00  0.00    -0.356 A  
HETATM    5  C   UNL     1     -12.465  11.280  71.261  1.00  0.00    -0.441 A  
HETATM    6  C   UNL     1     -13.267  11.967  72.185  1.00  0.00    -0.366 A  
HETATM    7  C   UNL     1     -13.421  13.352  72.094  1.00  0.00    -0.646 A  
ENDROOT
BRANCH   5   8
HETATM    8  C   UNL     1     -12.343   9.776  71.317  1.00  0.00    -0.371 C  
BRANCH   8   9
HETATM    9  O   UNL     1     -11.028   9.429  71.731  1.00  0.00    -0.363 OA 
BRANCH   9  10
HETATM   10  C   UNL     1     -10.309   8.526  70.863  1.00  0.00    -0.199 C  
BRANCH  10  11
HETATM   11  C   UNL     1     -10.041   7.217  71.627  1.00  0.00    -0.197 A  
HETATM   12  C   UNL     1      -9.440   4.830  73.035  1.00  0.00    -0.129 A  
HETATM   13  C   UNL     1     -11.033   6.250  71.896  1.00  0.00    -0.256 A  
HETATM   14  C   UNL     1      -8.748   6.956  72.136  1.00  0.00    -0.131 A  
HETATM   15  C   UNL     1     -10.727   5.055  72.566  1.00  0.00    -0.271 A  
HETATM   16 CL   UNL     1      -9.078   3.379  73.886  1.00  0.00    -0.091 Cl 
HETATM   17 CL   UNL     1     -12.698   6.472  71.484  1.00  0.00    -0.226 Cl 
HETATM   18  C   UNL     1      -8.452   5.782  72.838  1.00  0.00    -0.122 A  
ENDBRANCH  10  11
BRANCH  10  19
HETATM   19  C   UNL     1      -9.059   9.225  70.270  1.00  0.00    -0.237 C  
BRANCH  19  20
HETATM   20  N   UNL     1      -8.996   9.201  68.823  1.00  0.00    -0.136 NA 
HETATM   21  C   UNL     1     -10.057   9.069  67.970  1.00  0.00    -0.190 A  
HETATM   22  N   UNL     1      -8.147   9.280  66.784  1.00  0.00    -0.111 NA 
HETATM   23  C   UNL     1      -9.498   9.071  66.713  1.00  0.00    -0.182 A  
HETATM   24  C   UNL     1      -7.877   9.380  68.066  1.00  0.00    -0.091 A  
ENDBRANCH  19  20
ENDBRANCH  10  19
ENDBRANCH   9  10
ENDBRANCH   8   9
ENDBRANCH   5   8
TORSDOF 6
ENDMDL
MODEL      140
REMARK 921   NORMALIZED FREE ENERGY PREDICTED BY IDOCK:   -4.43 KCAL/MOL
REMARK 922        TOTAL FREE ENERGY PREDICTED BY IDOCK:   -7.11 KCAL/MOL
REMARK 923 INTER-LIGAND FREE ENERGY PREDICTED BY IDOCK:   -5.96 KCAL/MOL
REMARK 924 INTRA-LIGAND FREE ENERGY PREDICTED BY IDOCK:   -1.15 KCAL/MOL
REMARK 927      BINDING AFFINITY PREDICTED BY RF-SCORE:    0.00 PKD
ROOT
HETATM    1 CL   UNL     1     -13.353  11.528  72.017  1.00  0.00    -0.527 Cl 
HETATM    2  C   UNL     1     -12.683  10.002  71.594  1.00  0.00    -0.435 A  
HETATM    3  C   UNL     1     -11.483   9.941  70.891  1.00  0.00    -0.456 A  
HETATM    4  C   UNL     1     -10.949   8.698  70.537  1.00  0.00    -0.266 A  
HETATM    5  C   UNL     1     -11.612   7.510  70.884  1.00  0.00    -0.309 A  
HETATM    6  C   UNL     1     -12.817   7.589  71.596  1.00  0.00    -0.392 A  
HETATM    7  C   UNL     1     -13.348   8.831  71.951  1.00  0.00    -0.432 A  
ENDROOT
BRANCH   5   8
HETATM    8  C   UNL     1     -11.065   6.172  70.443  1.00  0.00    -0.352 C  
BRANCH   8   9
HETATM    9  O   UNL     1     -11.297   6.009  69.050  1.00  0.00    -0.340 OA 
BRANCH   9  10
HETATM   10  C   UNL     1     -10.120   5.856  68.226  1.00  0.00    -0.166 C  
BRANCH  10  11
HETATM   11  C   UNL     1      -9.617   7.253  67.820  1.00  0.00    -0.158 A  
HETATM   12  C   UNL     1      -8.776   9.834  67.002  1.00  0.00    -0.135 A  
HETATM   13  C   UNL     1      -8.404   7.811  68.276  1.00  0.00    -0.125 A  
HETATM   14  C   UNL     1     -10.410   8.063  66.976  1.00  0.00    -0.414 A  
HETATM   15  C   UNL     1      -7.975   9.077  67.846  1.00  0.00    -0.102 A  
HETATM   16 CL   UNL     1      -8.261  11.399  66.505  1.00  0.00    -0.167 Cl 
HETATM   17 CL   UNL     1      -7.385   7.028  69.432  1.00  0.00    -0.088 Cl 
HETATM   18  C   UNL     1     -10.001   9.341  66.578  1.00  0.00    -0.344 A  
ENDBRANCH  10  11
BRANCH  10  19
HETATM   19  C   UNL     1     -10.402   4.877  67.057  1.00  0.00    -0.155 C  
BRANCH  19  20
HETATM   20  N   UNL     1      -9.602   3.671  67.088  1.00  0.00    -0.202 NA 
HETATM   21  C   UNL     1      -9.225   2.922  66.007  1.00  0.00    -0.095 A  
HETATM   22  N   UNL     1      -8.382   2.013  67.894  1.00  0.00    -0.063 NA 
HETATM   23  C   UNL     1      -8.512   1.873  66.538  1.00  0.00    -0.101 A  
HETATM   24  C   UNL     1      -9.026   3.118  68.193  1.00  0.00    -0.142 A  
ENDBRANCH  19  20
ENDBRANCH  10  19
ENDBRANCH   9  10
ENDBRANCH   8   9
ENDBRANCH   5   8
TORSDOF 6
ENDMDL
MODEL      141
REMARK 921   NORMALIZED FREE ENERGY PREDICTED BY IDOCK:   -4.42 KCAL/MOL
REMARK 922        TOTAL FREE ENERGY PREDICTED BY IDOCK:   -7.10 KCAL/MOL
REMARK 923 INTER-LIGAND FREE ENERGY PREDICTED BY IDOCK:   -6.25 KCAL/MOL
REMARK 924 INTRA-LIGAND FREE ENERGY PREDICTED BY IDOCK:   -0.86 KCAL/MOL
REMARK 927      BINDING AFFINITY PREDICTED BY RF-SCORE:    0.00 PKD
ROOT
HETATM    1 CL   UNL     1      -7.730  18.513  67.073  1.00  0.00    -0.227 Cl 
HETATM    2  C   UNL     1      -7.766  16.798  67.199  1.00  0.00    -0.181 A  
HETATM    3  C   UNL     1      -8.888  16.093  66.773  1.00  0.00    -0.275 A  
HETATM    4  C   UNL     1      -8.918  14.700  66.890  1.00  0.00    -0.275 A  
HETATM    5  C   UNL     1      -7.825  14.005  67.434  1.00  0.00    -0.188 A  
HETATM    6  C   UNL     1      -6.701  14.730  67.853  1.00  0.00    -0.177 A  
HETATM    7  C   UNL     1      -6.672  16.121  67.732  1.00  0.00    -0.169 A  
ENDROOT
BRANCH   5   8
HETATM    8  C   UNL     1      -7.887  12.507  67.618  1.00  0.00    -0.162 C  
BRANCH   8   9
HETATM    9  O   UNL     1      -8.934  12.192  68.527  1.00  0.00    -0.164 OA 
BRANCH   9  10
HETATM   10  C   UNL     1      -9.792  11.092  68.149  1.00  0.00    -0.180 C  
BRANCH  10  11
HETATM   11  C   UNL     1     -10.481  11.441  66.818  1.00  0.00    -0.284 A  
HETATM   12  C   UNL     1     -11.828  12.142  64.422  1.00  0.00    -0.358 A  
HETATM   13  C   UNL     1     -10.096  10.903  65.571  1.00  0.00    -0.267 A  
HETATM   14  C   UNL     1     -11.538  12.380  66.802  1.00  0.00    -0.444 A  
HETATM   15  C   UNL     1     -10.783  11.227  64.391  1.00  0.00    -0.407 A  
HETATM   16 CL   UNL     1     -12.644  12.562  62.967  1.00  0.00    -0.181 Cl 
HETATM   17 CL   UNL     1      -8.731   9.860  65.380  1.00  0.00    -0.160 Cl 
HETATM   18  C   UNL     1     -12.198  12.734  65.620  1.00  0.00    -0.503 A  
ENDBRANCH  10  11
BRANCH  10  19
HETATM   19  C   UNL     1     -10.738  10.716  69.317  1.00  0.00    -0.238 C  
BRANCH  19  20
HETATM   20  N   UNL     1     -10.115   9.916  70.351  1.00  0.00    -0.250 NA 
HETATM   21  C   UNL     1     -10.758   9.276  71.375  1.00  0.00    -0.362 A  
HETATM   22  N   UNL     1      -8.539   8.879  71.501  1.00  0.00    -0.309 NA 
HETATM   23  C   UNL     1      -9.753   8.682  72.102  1.00  0.00    -0.313 A  
HETATM   24  C   UNL     1      -8.791   9.604  70.435  1.00  0.00    -0.178 A  
ENDBRANCH  19  20
ENDBRANCH  10  19
ENDBRANCH   9  10
ENDBRANCH   8   9
ENDBRANCH   5   8
TORSDOF 6
ENDMDL
MODEL      142
REMARK 921   NORMALIZED FREE ENERGY PREDICTED BY IDOCK:   -4.42 KCAL/MOL
REMARK 922        TOTAL FREE ENERGY PREDICTED BY IDOCK:   -7.10 KCAL/MOL
REMARK 923 INTER-LIGAND FREE ENERGY PREDICTED BY IDOCK:   -5.97 KCAL/MOL
REMARK 924 INTRA-LIGAND FREE ENERGY PREDICTED BY IDOCK:   -1.13 KCAL/MOL
REMARK 927      BINDING AFFINITY PREDICTED BY RF-SCORE:    0.00 PKD
ROOT
HETATM    1 CL   UNL     1      -5.174  10.149  67.919  1.00  0.00    -0.035 Cl 
HETATM    2  C   UNL     1      -6.021  11.631  68.133  1.00  0.00    -0.046 A  
HETATM    3  C   UNL     1      -5.362  12.841  67.939  1.00  0.00    -0.106 A  
HETATM    4  C   UNL     1      -6.051  14.043  68.127  1.00  0.00    -0.129 A  
HETATM    5  C   UNL     1      -7.402  14.041  68.511  1.00  0.00    -0.114 A  
HETATM    6  C   UNL     1      -8.051  12.812  68.698  1.00  0.00    -0.007 A  
HETATM    7  C   UNL     1      -7.362  11.612  68.506  1.00  0.00    -0.102 A  
ENDROOT
BRANCH   5   8
HETATM    8  C   UNL     1      -8.124  15.341  68.776  1.00  0.00    -0.165 C  
BRANCH   8   9
HETATM    9  O   UNL     1      -9.526  15.122  68.690  1.00  0.00    -0.191 OA 
BRANCH   9  10
HETATM   10  C   UNL     1     -10.197  15.749  67.574  1.00  0.00    -0.265 C  
BRANCH  10  11
HETATM   11  C   UNL     1     -10.642  14.655  66.588  1.00  0.00    -0.289 A  
HETATM   12  C   UNL     1     -11.403  12.688  64.692  1.00  0.00    -0.318 A  
HETATM   13  C   UNL     1     -11.581  13.650  66.905  1.00  0.00    -0.367 A  
HETATM   14  C   UNL     1     -10.068  14.601  65.298  1.00  0.00    -0.393 A  
HETATM   15  C   UNL     1     -11.979  12.695  65.955  1.00  0.00    -0.478 A  
HETATM   16 CL   UNL     1     -11.870  11.496  63.543  1.00  0.00    -0.368 Cl 
HETATM   17 CL   UNL     1     -12.268  13.469  68.481  1.00  0.00    -0.282 Cl 
HETATM   18  C   UNL     1     -10.436  13.626  64.363  1.00  0.00    -0.322 A  
ENDBRANCH  10  11
BRANCH  10  19
HETATM   19  C   UNL     1      -9.315  16.875  66.976  1.00  0.00    -0.235 C  
BRANCH  19  20
HETATM   20  N   UNL     1      -9.678  18.207  67.411  1.00  0.00    -0.289 NA 
HETATM   21  C   UNL     1      -9.601  18.690  68.689  1.00  0.00    -0.368 A  
HETATM   22  N   UNL     1     -10.362  20.306  67.309  1.00  0.00    -0.349 NA 
HETATM   23  C   UNL     1     -10.077  19.977  68.607  1.00  0.00    -0.347 A  
HETATM   24  C   UNL     1     -10.088  19.230  66.608  1.00  0.00    -0.399 A  
ENDBRANCH  19  20
ENDBRANCH  10  19
ENDBRANCH   9  10
ENDBRANCH   8   9
ENDBRANCH   5   8
TORSDOF 6
ENDMDL
MODEL      143
REMARK 921   NORMALIZED FREE ENERGY PREDICTED BY IDOCK:   -4.42 KCAL/MOL
REMARK 922        TOTAL FREE ENERGY PREDICTED BY IDOCK:   -7.10 KCAL/MOL
REMARK 923 INTER-LIGAND FREE ENERGY PREDICTED BY IDOCK:   -6.31 KCAL/MOL
REMARK 924 INTRA-LIGAND FREE ENERGY PREDICTED BY IDOCK:   -0.79 KCAL/MOL
REMARK 927      BINDING AFFINITY PREDICTED BY RF-SCORE:    0.00 PKD
ROOT
HETATM    1 CL   UNL     1      -5.596   9.805  71.479  1.00  0.00    -0.074 Cl 
HETATM    2  C   UNL     1      -6.430  10.670  70.248  1.00  0.00    -0.138 A  
HETATM    3  C   UNL     1      -5.883  11.838  69.727  1.00  0.00    -0.114 A  
HETATM    4  C   UNL     1      -6.571  12.545  68.736  1.00  0.00    -0.089 A  
HETATM    5  C   UNL     1      -7.812  12.087  68.262  1.00  0.00    -0.145 A  
HETATM    6  C   UNL     1      -8.347  10.905  68.795  1.00  0.00    -0.151 A  
HETATM    7  C   UNL     1      -7.656  10.199  69.782  1.00  0.00    -0.175 A  
ENDROOT
BRANCH   5   8
HETATM    8  C   UNL     1      -8.583  12.887  67.239  1.00  0.00    -0.205 C  
BRANCH   8   9
HETATM    9  O   UNL     1      -9.498  13.744  67.910  1.00  0.00    -0.200 OA 
BRANCH   9  10
HETATM   10  C   UNL     1     -10.510  14.360  67.084  1.00  0.00    -0.263 C  
BRANCH  10  11
HETATM   11  C   UNL     1     -10.346  15.888  67.161  1.00  0.00    -0.300 A  
HETATM   12  C   UNL     1     -10.017  18.694  67.410  1.00  0.00    -0.332 A  
HETATM   13  C   UNL     1     -10.647  16.763  66.095  1.00  0.00    -0.210 A  
HETATM   14  C   UNL     1      -9.829  16.478  68.337  1.00  0.00    -0.237 A  
HETATM   15  C   UNL     1     -10.512  18.154  66.230  1.00  0.00    -0.374 A  
HETATM   16 CL   UNL     1      -9.822  20.397  67.558  1.00  0.00    -0.574 Cl 
HETATM   17 CL   UNL     1     -11.142  16.207  64.535  1.00  0.00    -0.386 Cl 
HETATM   18  C   UNL     1      -9.658  17.862  68.459  1.00  0.00    -0.327 A  
ENDBRANCH  10  11
BRANCH  10  19
HETATM   19  C   UNL     1     -11.914  13.816  67.452  1.00  0.00    -0.388 C  
BRANCH  19  20
HETATM   20  N   UNL     1     -12.034  13.362  68.822  1.00  0.00    -0.343 NA 
HETATM   21  C   UNL     1     -11.851  12.082  69.269  1.00  0.00    -0.318 A  
HETATM   22  N   UNL     1     -12.349  13.432  71.009  1.00  0.00    -0.358 NA 
HETATM   23  C   UNL     1     -12.100  12.143  70.620  1.00  0.00    -0.250 A  
HETATM   24  C   UNL     1     -12.277  14.147  69.909  1.00  0.00    -0.359 A  
ENDBRANCH  19  20
ENDBRANCH  10  19
ENDBRANCH   9  10
ENDBRANCH   8   9
ENDBRANCH   5   8
TORSDOF 6
ENDMDL
MODEL      144
REMARK 921   NORMALIZED FREE ENERGY PREDICTED BY IDOCK:   -4.41 KCAL/MOL
REMARK 922        TOTAL FREE ENERGY PREDICTED BY IDOCK:   -7.08 KCAL/MOL
REMARK 923 INTER-LIGAND FREE ENERGY PREDICTED BY IDOCK:   -6.67 KCAL/MOL
REMARK 924 INTRA-LIGAND FREE ENERGY PREDICTED BY IDOCK:   -0.42 KCAL/MOL
REMARK 927      BINDING AFFINITY PREDICTED BY RF-SCORE:    0.00 PKD
ROOT
HETATM    1 CL   UNL     1     -13.052  15.659  71.471  1.00  0.00    -0.551 Cl 
HETATM    2  C   UNL     1     -12.086  14.685  70.432  1.00  0.00    -0.319 A  
HETATM    3  C   UNL     1     -11.023  15.254  69.737  1.00  0.00    -0.295 A  
HETATM    4  C   UNL     1     -10.250  14.462  68.883  1.00  0.00    -0.215 A  
HETATM    5  C   UNL     1     -10.536  13.096  68.720  1.00  0.00    -0.225 A  
HETATM    6  C   UNL     1     -11.608  12.539  69.431  1.00  0.00    -0.368 A  
HETATM    7  C   UNL     1     -12.377  13.331  70.286  1.00  0.00    -0.334 A  
ENDROOT
BRANCH   5   8
HETATM    8  C   UNL     1      -9.739  12.259  67.747  1.00  0.00    -0.199 C  
BRANCH   8   9
HETATM    9  O   UNL     1     -10.524  11.146  67.339  1.00  0.00    -0.201 OA 
BRANCH   9  10
HETATM   10  C   UNL     1     -10.219  10.601  66.035  1.00  0.00    -0.247 C  
BRANCH  10  11
HETATM   11  C   UNL     1      -9.102   9.554  66.188  1.00  0.00    -0.207 A  
HETATM   12  C   UNL     1      -6.971   7.698  66.428  1.00  0.00    -0.066 A  
HETATM   13  C   UNL     1      -9.329   8.218  66.584  1.00  0.00    -0.192 A  
HETATM   14  C   UNL     1      -7.757   9.928  65.965  1.00  0.00    -0.108 A  
HETATM   15  C   UNL     1      -8.277   7.293  66.673  1.00  0.00    -0.118 A  
HETATM   16 CL   UNL     1      -5.682   6.568  66.572  1.00  0.00    -0.014 Cl 
HETATM   17 CL   UNL     1     -10.887   7.627  67.045  1.00  0.00    -0.348 Cl 
HETATM   18  C   UNL     1      -6.704   9.016  66.092  1.00  0.00    -0.070 A  
ENDBRANCH  10  11
BRANCH  10  19
HETATM   19  C   UNL     1      -9.937  11.742  65.024  1.00  0.00    -0.254 C  
BRANCH  19  20
HETATM   20  N   UNL     1     -10.989  12.734  64.940  1.00  0.00    -0.284 NA 
HETATM   21  C   UNL     1     -10.835  14.049  64.597  1.00  0.00    -0.403 A  
HETATM   22  N   UNL     1     -13.014  13.616  64.996  1.00  0.00    -0.744 NA 
HETATM   23  C   UNL     1     -12.098  14.585  64.687  1.00  0.00    -0.473 A  
HETATM   24  C   UNL     1     -12.321  12.507  65.117  1.00  0.00    -0.429 A  
ENDBRANCH  19  20
ENDBRANCH  10  19
ENDBRANCH   9  10
ENDBRANCH   8   9
ENDBRANCH   5   8
TORSDOF 6
ENDMDL
MODEL      145
REMARK 921   NORMALIZED FREE ENERGY PREDICTED BY IDOCK:   -4.40 KCAL/MOL
REMARK 922        TOTAL FREE ENERGY PREDICTED BY IDOCK:   -7.08 KCAL/MOL
REMARK 923 INTER-LIGAND FREE ENERGY PREDICTED BY IDOCK:   -6.73 KCAL/MOL
REMARK 924 INTRA-LIGAND FREE ENERGY PREDICTED BY IDOCK:   -0.34 KCAL/MOL
REMARK 927      BINDING AFFINITY PREDICTED BY RF-SCORE:    0.00 PKD
ROOT
HETATM    1 CL   UNL     1     -10.727  16.206  65.312  1.00  0.00    -0.416 Cl 
HETATM    2  C   UNL     1     -10.757  14.532  65.704  1.00  0.00    -0.327 A  
HETATM    3  C   UNL     1      -9.625  13.922  66.237  1.00  0.00    -0.274 A  
HETATM    4  C   UNL     1      -9.650  12.558  66.541  1.00  0.00    -0.242 A  
HETATM    5  C   UNL     1     -10.807  11.796  66.314  1.00  0.00    -0.325 A  
HETATM    6  C   UNL     1     -11.940  12.426  65.781  1.00  0.00    -0.437 A  
HETATM    7  C   UNL     1     -11.915  13.790  65.480  1.00  0.00    -0.404 A  
ENDROOT
BRANCH   5   8
HETATM    8  C   UNL     1     -10.809  10.309  66.583  1.00  0.00    -0.045 C  
BRANCH   8   9
HETATM    9  O   UNL     1     -10.082  10.050  67.777  1.00  0.00    -0.166 OA 
BRANCH   9  10
HETATM   10  C   UNL     1     -10.759   9.246  68.768  1.00  0.00    -0.154 C  
BRANCH  10  11
HETATM   11  C   UNL     1     -11.522  10.181  69.724  1.00  0.00    -0.288 A  
HETATM   12  C   UNL     1     -12.894  11.990  71.422  1.00  0.00    -0.288 A  
HETATM   13  C   UNL     1     -12.156   9.745  70.906  1.00  0.00    -0.321 A  
HETATM   14  C   UNL     1     -11.647  11.553  69.407  1.00  0.00    -0.388 A  
HETATM   15  C   UNL     1     -12.809  10.646  71.762  1.00  0.00    -0.549 A  
HETATM   16 CL   UNL     1     -13.725  13.085  72.457  1.00  0.00    -0.624 Cl 
HETATM   17 CL   UNL     1     -12.236   8.081  71.370  1.00  0.00    -0.321 Cl 
HETATM   18  C   UNL     1     -12.331  12.446  70.240  1.00  0.00    -0.264 A  
ENDBRANCH  10  11
BRANCH  10  19
HETATM   19  C   UNL     1      -9.765   8.265  69.440  1.00  0.00    -0.177 C  
BRANCH  19  20
HETATM   20  N   UNL     1      -9.732   6.948  68.838  1.00  0.00    -0.142 NA 
HETATM   21  C   UNL     1     -10.679   5.971  68.978  1.00  0.00    -0.324 A  
HETATM   22  N   UNL     1      -9.030   5.244  67.618  1.00  0.00    -0.109 NA 
HETATM   23  C   UNL     1     -10.196   4.908  68.253  1.00  0.00    -0.032 A  
HETATM   24  C   UNL     1      -8.789   6.487  67.969  1.00  0.00    -0.114 A  
ENDBRANCH  19  20
ENDBRANCH  10  19
ENDBRANCH   9  10
ENDBRANCH   8   9
ENDBRANCH   5   8
TORSDOF 6
ENDMDL
MODEL      146
REMARK 921   NORMALIZED FREE ENERGY PREDICTED BY IDOCK:   -4.40 KCAL/MOL
REMARK 922        TOTAL FREE ENERGY PREDICTED BY IDOCK:   -7.07 KCAL/MOL
REMARK 923 INTER-LIGAND FREE ENERGY PREDICTED BY IDOCK:   -6.12 KCAL/MOL
REMARK 924 INTRA-LIGAND FREE ENERGY PREDICTED BY IDOCK:   -0.94 KCAL/MOL
REMARK 927      BINDING AFFINITY PREDICTED BY RF-SCORE:    0.00 PKD
ROOT
HETATM    1 CL   UNL     1     -11.784   5.700  72.892  1.00  0.00    -0.258 Cl 
HETATM    2  C   UNL     1     -10.963   6.851  71.913  1.00  0.00    -0.235 A  
HETATM    3  C   UNL     1     -10.985   6.726  70.526  1.00  0.00    -0.327 A  
HETATM    4  C   UNL     1     -10.305   7.657  69.736  1.00  0.00    -0.223 A  
HETATM    5  C   UNL     1      -9.599   8.718  70.327  1.00  0.00    -0.198 A  
HETATM    6  C   UNL     1      -9.591   8.832  71.724  1.00  0.00    -0.371 A  
HETATM    7  C   UNL     1     -10.274   7.903  72.512  1.00  0.00    -0.342 A  
ENDROOT
BRANCH   5   8
HETATM    8  C   UNL     1      -8.812   9.683  69.472  1.00  0.00    -0.190 C  
BRANCH   8   9
HETATM    9  O   UNL     1      -9.512  10.919  69.399  1.00  0.00    -0.096 OA 
BRANCH   9  10
HETATM   10  C   UNL     1     -10.221  11.174  68.166  1.00  0.00    -0.181 C  
BRANCH  10  11
HETATM   11  C   UNL     1      -9.783  12.544  67.620  1.00  0.00    -0.196 A  
HETATM   12  C   UNL     1      -8.932  15.093  66.713  1.00  0.00    -0.264 A  
HETATM   13  C   UNL     1     -10.140  13.029  66.344  1.00  0.00    -0.279 A  
HETATM   14  C   UNL     1      -8.943  13.371  68.400  1.00  0.00    -0.136 A  
HETATM   15  C   UNL     1      -9.743  14.304  65.909  1.00  0.00    -0.289 A  
HETATM   16 CL   UNL     1      -8.420  16.639  66.161  1.00  0.00    -0.343 Cl 
HETATM   17 CL   UNL     1     -11.032  12.091  65.198  1.00  0.00    -0.348 Cl 
HETATM   18  C   UNL     1      -8.515  14.626  67.950  1.00  0.00    -0.158 A  
ENDBRANCH  10  11
BRANCH  10  19
HETATM   19  C   UNL     1     -11.746  10.987  68.370  1.00  0.00    -0.259 C  
BRANCH  19  20
HETATM   20  N   UNL     1     -12.192  11.195  69.732  1.00  0.00    -0.315 NA 
HETATM   21  C   UNL     1     -12.110  12.363  70.440  1.00  0.00    -0.297 A  
HETATM   22  N   UNL     1     -13.090  10.770  71.706  1.00  0.00    -0.478 NA 
HETATM   23  C   UNL     1     -12.628  12.059  71.677  1.00  0.00    -0.115 A  
HETATM   24  C   UNL     1     -12.837  10.283  70.512  1.00  0.00    -0.223 A  
ENDBRANCH  19  20
ENDBRANCH  10  19
ENDBRANCH   9  10
ENDBRANCH   8   9
ENDBRANCH   5   8
TORSDOF 6
ENDMDL
MODEL      147
REMARK 921   NORMALIZED FREE ENERGY PREDICTED BY IDOCK:   -4.39 KCAL/MOL
REMARK 922        TOTAL FREE ENERGY PREDICTED BY IDOCK:   -7.06 KCAL/MOL
REMARK 923 INTER-LIGAND FREE ENERGY PREDICTED BY IDOCK:   -6.24 KCAL/MOL
REMARK 924 INTRA-LIGAND FREE ENERGY PREDICTED BY IDOCK:   -0.82 KCAL/MOL
REMARK 927      BINDING AFFINITY PREDICTED BY RF-SCORE:    0.00 PKD
ROOT
HETATM    1 CL   UNL     1      -7.818   6.385  62.617  1.00  0.00    -0.095 Cl 
HETATM    2  C   UNL     1      -8.308   7.843  63.386  1.00  0.00     0.075 A  
HETATM    3  C   UNL     1      -8.272   7.943  64.774  1.00  0.00    -0.112 A  
HETATM    4  C   UNL     1      -8.684   9.126  65.395  1.00  0.00    -0.217 A  
HETATM    5  C   UNL     1      -9.135  10.215  64.631  1.00  0.00    -0.268 A  
HETATM    6  C   UNL     1      -9.161  10.099  63.234  1.00  0.00    -0.293 A  
HETATM    7  C   UNL     1      -8.745   8.918  62.615  1.00  0.00    -0.140 A  
ENDROOT
BRANCH   5   8
HETATM    8  C   UNL     1      -9.641  11.467  65.309  1.00  0.00    -0.228 C  
BRANCH   8   9
HETATM    9  O   UNL     1     -10.624  11.111  66.272  1.00  0.00    -0.253 OA 
BRANCH   9  10
HETATM   10  C   UNL     1     -10.736  11.986  67.416  1.00  0.00    -0.229 C  
BRANCH  10  11
HETATM   11  C   UNL     1     -10.907  11.125  68.680  1.00  0.00    -0.251 A  
HETATM   12  C   UNL     1     -11.325   9.584  71.024  1.00  0.00    -0.352 A  
HETATM   13  C   UNL     1      -9.885  10.318  69.223  1.00  0.00    -0.228 A  
HETATM   14  C   UNL     1     -12.159  11.088  69.336  1.00  0.00    -0.389 A  
HETATM   15  C   UNL     1     -10.084   9.579  70.400  1.00  0.00    -0.329 A  
HETATM   16 CL   UNL     1     -11.573   8.650  72.447  1.00  0.00    -0.426 Cl 
HETATM   17 CL   UNL     1      -8.342  10.122  68.468  1.00  0.00    -0.112 Cl 
HETATM   18  C   UNL     1     -12.369  10.322  70.488  1.00  0.00    -0.371 A  
ENDBRANCH  10  11
BRANCH  10  19
HETATM   19  C   UNL     1     -11.834  13.054  67.176  1.00  0.00    -0.373 C  
BRANCH  19  20
HETATM   20  N   UNL     1     -11.322  14.386  66.928  1.00  0.00    -0.335 NA 
HETATM   21  C   UNL     1     -10.988  14.909  65.709  1.00  0.00    -0.345 A  
HETATM   22  N   UNL     1     -10.653  16.455  67.321  1.00  0.00    -0.313 NA 
HETATM   23  C   UNL     1     -10.530  16.176  65.986  1.00  0.00    -0.338 A  
HETATM   24  C   UNL     1     -11.157  15.367  67.858  1.00  0.00    -0.323 A  
ENDBRANCH  19  20
ENDBRANCH  10  19
ENDBRANCH   9  10
ENDBRANCH   8   9
ENDBRANCH   5   8
TORSDOF 6
ENDMDL
MODEL      148
REMARK 921   NORMALIZED FREE ENERGY PREDICTED BY IDOCK:   -4.39 KCAL/MOL
REMARK 922        TOTAL FREE ENERGY PREDICTED BY IDOCK:   -7.06 KCAL/MOL
REMARK 923 INTER-LIGAND FREE ENERGY PREDICTED BY IDOCK:   -6.14 KCAL/MOL
REMARK 924 INTRA-LIGAND FREE ENERGY PREDICTED BY IDOCK:   -0.92 KCAL/MOL
REMARK 927      BINDING AFFINITY PREDICTED BY RF-SCORE:    0.00 PKD
ROOT
HETATM    1 CL   UNL     1     -10.363  18.921  67.460  1.00  0.00    -0.456 Cl 
HETATM    2  C   UNL     1     -10.662  17.291  67.919  1.00  0.00    -0.351 A  
HETATM    3  C   UNL     1     -10.990  16.989  69.238  1.00  0.00    -0.008 A  
HETATM    4  C   UNL     1     -11.219  15.660  69.609  1.00  0.00    -0.310 A  
HETATM    5  C   UNL     1     -11.120  14.627  68.663  1.00  0.00    -0.276 A  
HETATM    6  C   UNL     1     -10.794  14.949  67.338  1.00  0.00    -0.304 A  
HETATM    7  C   UNL     1     -10.569  16.277  66.969  1.00  0.00    -0.284 A  
ENDROOT
BRANCH   5   8
HETATM    8  C   UNL     1     -11.304  13.187  69.082  1.00  0.00    -0.281 C  
BRANCH   8   9
HETATM    9  O   UNL     1     -10.112  12.464  68.803  1.00  0.00    -0.168 OA 
BRANCH   9  10
HETATM   10  C   UNL     1     -10.283  11.073  68.453  1.00  0.00    -0.185 C  
BRANCH  10  11
HETATM   11  C   UNL     1     -10.014  10.906  66.947  1.00  0.00    -0.232 A  
HETATM   12  C   UNL     1      -9.622  10.635  64.151  1.00  0.00    -0.300 A  
HETATM   13  C   UNL     1      -8.832  10.345  66.420  1.00  0.00    -0.147 A  
HETATM   14  C   UNL     1     -10.968  11.368  66.011  1.00  0.00    -0.286 A  
HETATM   15  C   UNL     1      -8.652  10.184  65.037  1.00  0.00    -0.178 A  
HETATM   16 CL   UNL     1      -9.382  10.466  62.456  1.00  0.00    -0.304 Cl 
HETATM   17 CL   UNL     1      -7.496   9.869  67.408  1.00  0.00    -0.091 Cl 
HETATM   18  C   UNL     1     -10.773  11.243  64.631  1.00  0.00    -0.371 A  
ENDBRANCH  10  11
BRANCH  10  19
HETATM   19  C   UNL     1     -11.656  10.553  68.952  1.00  0.00    -0.196 C  
BRANCH  19  20
HETATM   20  N   UNL     1     -11.626   9.981  70.282  1.00  0.00    -0.275 NA 
HETATM   21  C   UNL     1     -12.644  10.006  71.196  1.00  0.00    -0.381 A  
HETATM   22  N   UNL     1     -10.875   8.896  72.054  1.00  0.00    -0.358 NA 
HETATM   23  C   UNL     1     -12.136   9.370  72.303  1.00  0.00    -0.112 A  
HETATM   24  C   UNL     1     -10.605   9.257  70.821  1.00  0.00    -0.285 A  
ENDBRANCH  19  20
ENDBRANCH  10  19
ENDBRANCH   9  10
ENDBRANCH   8   9
ENDBRANCH   5   8
TORSDOF 6
ENDMDL
MODEL      149
REMARK 921   NORMALIZED FREE ENERGY PREDICTED BY IDOCK:   -4.37 KCAL/MOL
REMARK 922        TOTAL FREE ENERGY PREDICTED BY IDOCK:   -7.03 KCAL/MOL
REMARK 923 INTER-LIGAND FREE ENERGY PREDICTED BY IDOCK:   -6.29 KCAL/MOL
REMARK 924 INTRA-LIGAND FREE ENERGY PREDICTED BY IDOCK:   -0.74 KCAL/MOL
REMARK 927      BINDING AFFINITY PREDICTED BY RF-SCORE:    0.00 PKD
ROOT
HETATM    1 CL   UNL     1     -11.060   5.428  73.389  1.00  0.00    -0.349 Cl 
HETATM    2  C   UNL     1     -10.600   6.297  71.978  1.00  0.00    -0.217 A  
HETATM    3  C   UNL     1      -9.602   7.264  72.053  1.00  0.00    -0.169 A  
HETATM    4  C   UNL     1      -9.240   7.977  70.906  1.00  0.00    -0.163 A  
HETATM    5  C   UNL     1      -9.875   7.727  69.678  1.00  0.00    -0.182 A  
HETATM    6  C   UNL     1     -10.875   6.746  69.620  1.00  0.00    -0.314 A  
HETATM    7  C   UNL     1     -11.233   6.032  70.766  1.00  0.00    -0.340 A  
ENDROOT
BRANCH   5   8
HETATM    8  C   UNL     1      -9.527   8.545  68.457  1.00  0.00    -0.142 C  
BRANCH   8   9
HETATM    9  O   UNL     1      -9.464   9.919  68.817  1.00  0.00    -0.148 OA 
BRANCH   9  10
HETATM   10  C   UNL     1      -9.744  10.865  67.761  1.00  0.00    -0.168 C  
BRANCH  10  11
HETATM   11  C   UNL     1     -10.367  12.127  68.382  1.00  0.00    -0.236 A  
HETATM   12  C   UNL     1     -11.603  14.393  69.557  1.00  0.00    -0.304 A  
HETATM   13  C   UNL     1      -9.802  13.416  68.270  1.00  0.00    -0.235 A  
HETATM   14  C   UNL     1     -11.550  12.019  69.148  1.00  0.00    -0.370 A  
HETATM   15  C   UNL     1     -10.431  14.541  68.826  1.00  0.00    -0.246 A  
HETATM   16 CL   UNL     1     -12.351  15.771  70.265  1.00  0.00    -0.393 Cl 
HETATM   17 CL   UNL     1      -8.281  13.711  67.503  1.00  0.00    -0.173 Cl 
HETATM   18  C   UNL     1     -12.157  13.135  69.736  1.00  0.00    -0.336 A  
ENDBRANCH  10  11
BRANCH  10  19
HETATM   19  C   UNL     1     -10.571  10.191  66.637  1.00  0.00    -0.144 C  
BRANCH  19  20
HETATM   20  N   UNL     1     -10.397  10.792  65.330  1.00  0.00    -0.266 NA 
HETATM   21  C   UNL     1     -10.824  12.034  64.948  1.00  0.00    -0.301 A  
HETATM   22  N   UNL     1      -9.755  11.034  63.230  1.00  0.00    -0.327 NA 
HETATM   23  C   UNL     1     -10.458  12.139  63.627  1.00  0.00    -0.460 A  
HETATM   24  C   UNL     1      -9.713  10.251  64.284  1.00  0.00    -0.308 A  
ENDBRANCH  19  20
ENDBRANCH  10  19
ENDBRANCH   9  10
ENDBRANCH   8   9
ENDBRANCH   5   8
TORSDOF 6
ENDMDL
MODEL      150
REMARK 921   NORMALIZED FREE ENERGY PREDICTED BY IDOCK:   -4.37 KCAL/MOL
REMARK 922        TOTAL FREE ENERGY PREDICTED BY IDOCK:   -7.03 KCAL/MOL
REMARK 923 INTER-LIGAND FREE ENERGY PREDICTED BY IDOCK:   -6.17 KCAL/MOL
REMARK 924 INTRA-LIGAND FREE ENERGY PREDICTED BY IDOCK:   -0.86 KCAL/MOL
REMARK 927      BINDING AFFINITY PREDICTED BY RF-SCORE:    0.00 PKD
ROOT
HETATM    1 CL   UNL     1     -11.006   5.275  73.006  1.00  0.00    -0.324 Cl 
HETATM    2  C   UNL     1     -11.094   6.795  72.206  1.00  0.00    -0.251 A  
HETATM    3  C   UNL     1     -10.867   6.872  70.835  1.00  0.00    -0.277 A  
HETATM    4  C   UNL     1     -10.928   8.112  70.191  1.00  0.00    -0.223 A  
HETATM    5  C   UNL     1     -11.214   9.281  70.915  1.00  0.00    -0.372 A  
HETATM    6  C   UNL     1     -11.444   9.184  72.295  1.00  0.00    -0.104 A  
HETATM    7  C   UNL     1     -11.387   7.945  72.936  1.00  0.00    -0.399 A  
ENDROOT
BRANCH   5   8
HETATM    8  C   UNL     1     -11.213  10.626  70.228  1.00  0.00    -0.285 C  
BRANCH   8   9
HETATM    9  O   UNL     1     -10.647  10.487  68.931  1.00  0.00    -0.189 OA 
BRANCH   9  10
HETATM   10  C   UNL     1      -9.684  11.494  68.549  1.00  0.00    -0.189 C  
BRANCH  10  11
HETATM   11  C   UNL     1     -10.292  12.358  67.430  1.00  0.00    -0.217 A  
HETATM   12  C   UNL     1     -11.489  13.869  65.350  1.00  0.00    -0.312 A  
HETATM   13  C   UNL     1      -9.720  13.564  66.972  1.00  0.00    -0.251 A  
HETATM   14  C   UNL     1     -11.513  11.970  66.832  1.00  0.00    -0.402 A  
HETATM   15  C   UNL     1     -10.297  14.295  65.922  1.00  0.00    -0.325 A  
HETATM   16 CL   UNL     1     -12.210  14.788  64.087  1.00  0.00    -0.438 Cl 
HETATM   17 CL   UNL     1      -8.314  14.268  67.691  1.00  0.00    -0.170 Cl 
HETATM   18  C   UNL     1     -12.110  12.719  65.812  1.00  0.00    -0.505 A  
ENDBRANCH  10  11
BRANCH  10  19
HETATM   19  C   UNL     1      -8.316  10.841  68.226  1.00  0.00    -0.125 C  
BRANCH  19  20
HETATM   20  N   UNL     1      -7.429  10.726  69.365  1.00  0.00    -0.134 NA 
HETATM   21  C   UNL     1      -6.376  11.548  69.656  1.00  0.00    -0.133 A  
HETATM   22  N   UNL     1      -6.568   9.964  71.252  1.00  0.00    -0.326 NA 
HETATM   23  C   UNL     1      -5.829  11.025  70.803  1.00  0.00    -0.065 A  
HETATM   24  C   UNL     1      -7.540   9.823  70.380  1.00  0.00    -0.148 A  
ENDBRANCH  19  20
ENDBRANCH  10  19
ENDBRANCH   9  10
ENDBRANCH   8   9
ENDBRANCH   5   8
TORSDOF 6
ENDMDL
MODEL      151
REMARK 921   NORMALIZED FREE ENERGY PREDICTED BY IDOCK:   -4.37 KCAL/MOL
REMARK 922        TOTAL FREE ENERGY PREDICTED BY IDOCK:   -7.02 KCAL/MOL
REMARK 923 INTER-LIGAND FREE ENERGY PREDICTED BY IDOCK:   -6.24 KCAL/MOL
REMARK 924 INTRA-LIGAND FREE ENERGY PREDICTED BY IDOCK:   -0.78 KCAL/MOL
REMARK 927      BINDING AFFINITY PREDICTED BY RF-SCORE:    0.00 PKD
ROOT
HETATM    1 CL   UNL     1     -12.393  15.679  64.100  1.00  0.00    -0.113 Cl 
HETATM    2  C   UNL     1     -11.689  14.121  64.293  1.00  0.00    -0.345 A  
HETATM    3  C   UNL     1     -12.040  13.089  63.428  1.00  0.00    -0.591 A  
HETATM    4  C   UNL     1     -11.475  11.821  63.596  1.00  0.00    -0.524 A  
HETATM    5  C   UNL     1     -10.558  11.579  64.632  1.00  0.00    -0.369 A  
HETATM    6  C   UNL     1     -10.212  12.631  65.492  1.00  0.00    -0.298 A  
HETATM    7  C   UNL     1     -10.775  13.898  65.319  1.00  0.00    -0.352 A  
ENDROOT
BRANCH   5   8
HETATM    8  C   UNL     1     -10.000  10.192  64.851  1.00  0.00    -0.288 C  
BRANCH   8   9
HETATM    9  O   UNL     1     -10.281   9.781  66.183  1.00  0.00    -0.259 OA 
BRANCH   9  10
HETATM   10  C   UNL     1      -9.143   9.363  66.970  1.00  0.00    -0.134 C  
BRANCH  10  11
HETATM   11  C   UNL     1      -9.252   7.850  67.229  1.00  0.00    -0.167 A  
HETATM   12  C   UNL     1      -9.563   5.070  67.689  1.00  0.00    -0.146 A  
HETATM   13  C   UNL     1      -8.171   7.048  67.653  1.00  0.00    -0.117 A  
HETATM   14  C   UNL     1     -10.480   7.189  67.000  1.00  0.00    -0.392 A  
HETATM   15  C   UNL     1      -8.334   5.678  67.909  1.00  0.00    -0.100 A  
HETATM   16 CL   UNL     1      -9.748   3.383  67.972  1.00  0.00    -0.150 Cl 
HETATM   17 CL   UNL     1      -6.564   7.658  67.834  1.00  0.00    -0.057 Cl 
HETATM   18  C   UNL     1     -10.633   5.815  67.218  1.00  0.00    -0.353 A  
ENDBRANCH  10  11
BRANCH  10  19
HETATM   19  C   UNL     1      -9.001  10.253  68.231  1.00  0.00    -0.132 C  
BRANCH  19  20
HETATM   20  N   UNL     1     -10.207  10.350  69.027  1.00  0.00    -0.204 NA 
HETATM   21  C   UNL     1     -11.233  11.235  68.835  1.00  0.00    -0.253 A  
HETATM   22  N   UNL     1     -11.702   9.892  70.589  1.00  0.00    -0.303 NA 
HETATM   23  C   UNL     1     -12.124  10.962  69.847  1.00  0.00    -0.354 A  
HETATM   24  C   UNL     1     -10.558   9.529  70.056  1.00  0.00    -0.244 A  
ENDBRANCH  19  20
ENDBRANCH  10  19
ENDBRANCH   9  10
ENDBRANCH   8   9
ENDBRANCH   5   8
TORSDOF 6
ENDMDL
MODEL      152
REMARK 921   NORMALIZED FREE ENERGY PREDICTED BY IDOCK:   -4.35 KCAL/MOL
REMARK 922        TOTAL FREE ENERGY PREDICTED BY IDOCK:   -7.00 KCAL/MOL
REMARK 923 INTER-LIGAND FREE ENERGY PREDICTED BY IDOCK:   -6.33 KCAL/MOL
REMARK 924 INTRA-LIGAND FREE ENERGY PREDICTED BY IDOCK:   -0.68 KCAL/MOL
REMARK 927      BINDING AFFINITY PREDICTED BY RF-SCORE:    0.00 PKD
ROOT
HETATM    1 CL   UNL     1     -10.136   6.773  72.224  1.00  0.00    -0.184 Cl 
HETATM    2  C   UNL     1     -10.484   8.048  71.124  1.00  0.00    -0.198 A  
HETATM    3  C   UNL     1     -10.954   9.269  71.601  1.00  0.00    -0.433 A  
HETATM    4  C   UNL     1     -11.248  10.297  70.701  1.00  0.00    -0.406 A  
HETATM    5  C   UNL     1     -11.075  10.111  69.319  1.00  0.00    -0.270 A  
HETATM    6  C   UNL     1     -10.597   8.877  68.857  1.00  0.00    -0.188 A  
HETATM    7  C   UNL     1     -10.300   7.851  69.757  1.00  0.00    -0.219 A  
ENDROOT
BRANCH   5   8
HETATM    8  C   UNL     1     -11.457  11.202  68.347  1.00  0.00    -0.306 C  
BRANCH   8   9
HETATM    9  O   UNL     1     -10.585  12.312  68.526  1.00  0.00    -0.224 OA 
BRANCH   9  10
HETATM   10  C   UNL     1     -10.898  13.493  67.755  1.00  0.00    -0.253 C  
BRANCH  10  11
HETATM   11  C   UNL     1      -9.645  14.384  67.688  1.00  0.00    -0.214 A  
HETATM   12  C   UNL     1      -7.313  15.998  67.670  1.00  0.00    -0.151 A  
HETATM   13  C   UNL     1      -9.326  15.206  66.586  1.00  0.00    -0.267 A  
HETATM   14  C   UNL     1      -8.720  14.371  68.757  1.00  0.00    -0.129 A  
HETATM   15  C   UNL     1      -8.188  16.027  66.592  1.00  0.00    -0.324 A  
HETATM   16 CL   UNL     1      -5.902  16.981  67.657  1.00  0.00    -0.138 Cl 
HETATM   17 CL   UNL     1     -10.260  15.231  65.132  1.00  0.00    -0.394 Cl 
HETATM   18  C   UNL     1      -7.565  15.160  68.746  1.00  0.00    -0.136 A  
ENDBRANCH  10  11
BRANCH  10  19
HETATM   19  C   UNL     1     -12.178  14.174  68.303  1.00  0.00    -0.161 C  
BRANCH  19  20
HETATM   20  N   UNL     1     -12.118  14.504  69.711  1.00  0.00    -0.320 NA 
HETATM   21  C   UNL     1     -11.590  15.644  70.253  1.00  0.00    -0.356 A  
HETATM   22  N   UNL     1     -12.404  14.326  71.895  1.00  0.00    -0.294 NA 
HETATM   23  C   UNL     1     -11.736  15.487  71.611  1.00  0.00    -0.426 A  
HETATM   24  C   UNL     1     -12.644  13.769  70.731  1.00  0.00    -0.340 A  
ENDBRANCH  19  20
ENDBRANCH  10  19
ENDBRANCH   9  10
ENDBRANCH   8   9
ENDBRANCH   5   8
TORSDOF 6
ENDMDL
MODEL      153
REMARK 921   NORMALIZED FREE ENERGY PREDICTED BY IDOCK:   -4.35 KCAL/MOL
REMARK 922        TOTAL FREE ENERGY PREDICTED BY IDOCK:   -7.00 KCAL/MOL
REMARK 923 INTER-LIGAND FREE ENERGY PREDICTED BY IDOCK:   -6.29 KCAL/MOL
REMARK 924 INTRA-LIGAND FREE ENERGY PREDICTED BY IDOCK:   -0.71 KCAL/MOL
REMARK 927      BINDING AFFINITY PREDICTED BY RF-SCORE:    0.00 PKD
ROOT
HETATM    1 CL   UNL     1     -13.167   9.375  72.010  1.00  0.00    -0.484 Cl 
HETATM    2  C   UNL     1     -12.823  10.796  71.105  1.00  0.00    -0.414 A  
HETATM    3  C   UNL     1     -13.170  12.045  71.613  1.00  0.00    -0.361 A  
HETATM    4  C   UNL     1     -12.900  13.196  70.867  1.00  0.00    -0.237 A  
HETATM    5  C   UNL     1     -12.284  13.105  69.608  1.00  0.00    -0.241 A  
HETATM    6  C   UNL     1     -11.937  11.840  69.113  1.00  0.00    -0.356 A  
HETATM    7  C   UNL     1     -12.204  10.691  69.861  1.00  0.00    -0.346 A  
ENDROOT
BRANCH   5   8
HETATM    8  C   UNL     1     -12.054  14.345  68.777  1.00  0.00    -0.241 C  
BRANCH   8   9
HETATM    9  O   UNL     1     -11.016  15.117  69.368  1.00  0.00    -0.239 OA 
BRANCH   9  10
HETATM   10  C   UNL     1      -9.808  15.256  68.588  1.00  0.00    -0.211 C  
BRANCH  10  11
HETATM   11  C   UNL     1      -9.519  16.754  68.389  1.00  0.00    -0.241 A  
HETATM   12  C   UNL     1      -9.091  19.528  67.983  1.00  0.00    -0.326 A  
HETATM   13  C   UNL     1      -8.253  17.342  68.594  1.00  0.00    -0.264 A  
HETATM   14  C   UNL     1     -10.569  17.625  68.019  1.00  0.00    -0.379 A  
HETATM   15  C   UNL     1      -8.035  18.710  68.364  1.00  0.00    -0.351 A  
HETATM   16 CL   UNL     1      -8.827  21.210  67.735  1.00  0.00     0.093 Cl 
HETATM   17 CL   UNL     1      -6.894  16.459  69.195  1.00  0.00    -0.199 Cl 
HETATM   18  C   UNL     1     -10.362  18.996  67.826  1.00  0.00    -0.498 A  
ENDBRANCH  10  11
BRANCH  10  19
HETATM   19  C   UNL     1      -9.901  14.412  67.291  1.00  0.00    -0.247 C  
BRANCH  19  20
HETATM   20  N   UNL     1      -9.289  13.102  67.390  1.00  0.00    -0.205 NA 
HETATM   21  C   UNL     1      -9.219  12.165  66.396  1.00  0.00    -0.207 A  
HETATM   22  N   UNL     1      -8.199  11.385  68.253  1.00  0.00    -0.142 NA 
HETATM   23  C   UNL     1      -8.582  11.091  66.972  1.00  0.00    -0.140 A  
HETATM   24  C   UNL     1      -8.616  12.612  68.468  1.00  0.00    -0.051 A  
ENDBRANCH  19  20
ENDBRANCH  10  19
ENDBRANCH   9  10
ENDBRANCH   8   9
ENDBRANCH   5   8
TORSDOF 6
ENDMDL
MODEL      154
REMARK 921   NORMALIZED FREE ENERGY PREDICTED BY IDOCK:   -4.34 KCAL/MOL
REMARK 922        TOTAL FREE ENERGY PREDICTED BY IDOCK:   -6.99 KCAL/MOL
REMARK 923 INTER-LIGAND FREE ENERGY PREDICTED BY IDOCK:   -6.99 KCAL/MOL
REMARK 924 INTRA-LIGAND FREE ENERGY PREDICTED BY IDOCK:    0.00 KCAL/MOL
REMARK 927      BINDING AFFINITY PREDICTED BY RF-SCORE:    0.00 PKD
ROOT
HETATM    1 CL   UNL     1     -13.684  15.486  72.542  1.00  0.00    -0.622 Cl 
HETATM    2  C   UNL     1     -13.203  13.995  71.832  1.00  0.00    -0.395 A  
HETATM    3  C   UNL     1     -13.596  12.791  72.410  1.00  0.00    -0.507 A  
HETATM    4  C   UNL     1     -13.191  11.582  71.836  1.00  0.00    -0.479 A  
HETATM    5  C   UNL     1     -12.389  11.571  70.683  1.00  0.00    -0.457 A  
HETATM    6  C   UNL     1     -12.005  12.792  70.112  1.00  0.00    -0.371 A  
HETATM    7  C   UNL     1     -12.414  13.999  70.684  1.00  0.00    -0.435 A  
ENDROOT
BRANCH   5   8
HETATM    8  C   UNL     1     -11.900  10.263  70.105  1.00  0.00    -0.263 C  
BRANCH   8   9
HETATM    9  O   UNL     1     -10.553  10.050  70.509  1.00  0.00    -0.292 OA 
BRANCH   9  10
HETATM   10  C   UNL     1     -10.114   8.674  70.545  1.00  0.00    -0.196 C  
BRANCH  10  11
HETATM   11  C   UNL     1      -9.446   8.335  69.201  1.00  0.00    -0.155 A  
HETATM   12  C   UNL     1      -8.142   7.790  66.742  1.00  0.00    -0.115 A  
HETATM   13  C   UNL     1      -9.969   7.402  68.280  1.00  0.00    -0.163 A  
HETATM   14  C   UNL     1      -8.219   8.945  68.856  1.00  0.00    -0.117 A  
HETATM   15  C   UNL     1      -9.338   7.156  67.050  1.00  0.00    -0.181 A  
HETATM   16 CL   UNL     1      -7.355   7.459  65.249  1.00  0.00    -0.073 Cl 
HETATM   17 CL   UNL     1     -11.376   6.450  68.603  1.00  0.00    -0.334 Cl 
HETATM   18  C   UNL     1      -7.569   8.671  67.647  1.00  0.00    -0.098 A  
ENDBRANCH  10  11
BRANCH  10  19
HETATM   19  C   UNL     1     -11.279   7.745  70.971  1.00  0.00    -0.266 C  
BRANCH  19  20
HETATM   20  N   UNL     1     -11.004   6.951  72.151  1.00  0.00    -0.229 NA 
HETATM   21  C   UNL     1     -11.265   5.617  72.307  1.00  0.00    -0.259 A  
HETATM   22  N   UNL     1     -10.293   6.427  74.176  1.00  0.00    -0.335 NA 
HETATM   23  C   UNL     1     -10.861   5.329  73.589  1.00  0.00    -0.294 A  
HETATM   24  C   UNL     1     -10.370   7.382  73.277  1.00  0.00    -0.355 A  
ENDBRANCH  19  20
ENDBRANCH  10  19
ENDBRANCH   9  10
ENDBRANCH   8   9
ENDBRANCH   5   8
TORSDOF 6
ENDMDL
MODEL      155
REMARK 921   NORMALIZED FREE ENERGY PREDICTED BY IDOCK:   -4.32 KCAL/MOL
REMARK 922        TOTAL FREE ENERGY PREDICTED BY IDOCK:   -6.97 KCAL/MOL
REMARK 923 INTER-LIGAND FREE ENERGY PREDICTED BY IDOCK:   -6.22 KCAL/MOL
REMARK 924 INTRA-LIGAND FREE ENERGY PREDICTED BY IDOCK:   -0.75 KCAL/MOL
REMARK 927      BINDING AFFINITY PREDICTED BY RF-SCORE:    0.00 PKD
ROOT
HETATM    1 CL   UNL     1      -7.111   8.561  68.213  1.00  0.00    -0.083 Cl 
HETATM    2  C   UNL     1      -7.822  10.044  67.711  1.00  0.00    -0.094 A  
HETATM    3  C   UNL     1      -7.166  11.248  67.955  1.00  0.00    -0.086 A  
HETATM    4  C   UNL     1      -7.755  12.451  67.556  1.00  0.00    -0.161 A  
HETATM    5  C   UNL     1      -9.003  12.459  66.913  1.00  0.00    -0.212 A  
HETATM    6  C   UNL     1      -9.648  11.237  66.671  1.00  0.00    -0.218 A  
HETATM    7  C   UNL     1      -9.057  10.035  67.066  1.00  0.00    -0.159 A  
ENDROOT
BRANCH   5   8
HETATM    8  C   UNL     1      -9.666  13.765  66.543  1.00  0.00    -0.293 C  
BRANCH   8   9
HETATM    9  O   UNL     1      -9.568  14.665  67.640  1.00  0.00    -0.209 OA 
BRANCH   9  10
HETATM   10  C   UNL     1     -10.167  15.965  67.447  1.00  0.00    -0.270 C  
BRANCH  10  11
HETATM   11  C   UNL     1      -9.180  17.040  67.939  1.00  0.00    -0.239 A  
HETATM   12  C   UNL     1      -7.305  18.939  68.896  1.00  0.00    -0.310 A  
HETATM   13  C   UNL     1      -9.368  18.424  67.742  1.00  0.00    -0.274 A  
HETATM   14  C   UNL     1      -7.990  16.649  68.593  1.00  0.00    -0.236 A  
HETATM   15  C   UNL     1      -8.454  19.365  68.243  1.00  0.00    -0.376 A  
HETATM   16 CL   UNL     1      -6.171  20.095  69.477  1.00  0.00    -0.365 Cl 
HETATM   17 CL   UNL     1     -10.686  19.073  66.830  1.00  0.00    -0.510 Cl 
HETATM   18  C   UNL     1      -7.059  17.584  69.058  1.00  0.00    -0.234 A  
ENDBRANCH  10  11
BRANCH  10  19
HETATM   19  C   UNL     1     -11.580  16.010  68.082  1.00  0.00    -0.183 C  
BRANCH  19  20
HETATM   20  N   UNL     1     -11.657  15.417  69.401  1.00  0.00    -0.317 NA 
HETATM   21  C   UNL     1     -11.533  16.077  70.593  1.00  0.00    -0.402 A  
HETATM   22  N   UNL     1     -11.915  13.884  70.972  1.00  0.00    -0.266 NA 
HETATM   23  C   UNL     1     -11.648  15.097  71.550  1.00  0.00    -0.387 A  
HETATM   24  C   UNL     1     -11.940  14.113  69.679  1.00  0.00    -0.336 A  
ENDBRANCH  19  20
ENDBRANCH  10  19
ENDBRANCH   9  10
ENDBRANCH   8   9
ENDBRANCH   5   8
TORSDOF 6
ENDMDL
MODEL      156
REMARK 921   NORMALIZED FREE ENERGY PREDICTED BY IDOCK:   -4.32 KCAL/MOL
REMARK 922        TOTAL FREE ENERGY PREDICTED BY IDOCK:   -6.96 KCAL/MOL
REMARK 923 INTER-LIGAND FREE ENERGY PREDICTED BY IDOCK:   -5.95 KCAL/MOL
REMARK 924 INTRA-LIGAND FREE ENERGY PREDICTED BY IDOCK:   -1.01 KCAL/MOL
REMARK 927      BINDING AFFINITY PREDICTED BY RF-SCORE:    0.00 PKD
ROOT
HETATM    1 CL   UNL     1      -6.203   7.486  65.271  1.00  0.00    -0.038 Cl 
HETATM    2  C   UNL     1      -7.553   8.475  65.670  1.00  0.00    -0.090 A  
HETATM    3  C   UNL     1      -8.797   7.893  65.895  1.00  0.00    -0.183 A  
HETATM    4  C   UNL     1      -9.894   8.702  66.206  1.00  0.00    -0.320 A  
HETATM    5  C   UNL     1      -9.753  10.097  66.293  1.00  0.00    -0.274 A  
HETATM    6  C   UNL     1      -8.491  10.666  66.068  1.00  0.00    -0.165 A  
HETATM    7  C   UNL     1      -7.396   9.856  65.761  1.00  0.00    -0.111 A  
ENDROOT
BRANCH   5   8
HETATM    8  C   UNL     1     -10.954  10.972  66.565  1.00  0.00    -0.166 C  
BRANCH   8   9
HETATM    9  O   UNL     1     -10.532  12.142  67.254  1.00  0.00    -0.214 OA 
BRANCH   9  10
HETATM   10  C   UNL     1     -10.942  13.400  66.675  1.00  0.00    -0.287 C  
BRANCH  10  11
HETATM   11  C   UNL     1      -9.733  14.352  66.659  1.00  0.00    -0.289 A  
HETATM   12  C   UNL     1      -7.456  16.043  66.710  1.00  0.00    -0.183 A  
HETATM   13  C   UNL     1      -9.689  15.552  65.918  1.00  0.00    -0.357 A  
HETATM   14  C   UNL     1      -8.568  14.015  67.387  1.00  0.00    -0.211 A  
HETATM   15  C   UNL     1      -8.574  16.403  65.968  1.00  0.00    -0.246 A  
HETATM   16 CL   UNL     1      -6.079  17.073  66.740  1.00  0.00    -0.230 Cl 
HETATM   17 CL   UNL     1     -10.959  16.045  64.853  1.00  0.00    -0.451 Cl 
HETATM   18  C   UNL     1      -7.441  14.844  67.406  1.00  0.00    -0.228 A  
ENDBRANCH  10  11
BRANCH  10  19
HETATM   19  C   UNL     1     -12.210  13.937  67.386  1.00  0.00    -0.256 C  
BRANCH  19  20
HETATM   20  N   UNL     1     -11.981  14.403  68.737  1.00  0.00    -0.316 NA 
HETATM   21  C   UNL     1     -11.862  15.707  69.133  1.00  0.00    -0.362 A  
HETATM   22  N   UNL     1     -11.676  14.347  70.925  1.00  0.00    -0.268 NA 
HETATM   23  C   UNL     1     -11.625  15.642  70.486  1.00  0.00    -0.360 A  
HETATM   24  C   UNL     1     -11.918  13.625  69.854  1.00  0.00    -0.348 A  
ENDBRANCH  19  20
ENDBRANCH  10  19
ENDBRANCH   9  10
ENDBRANCH   8   9
ENDBRANCH   5   8
TORSDOF 6
ENDMDL
MODEL      157
REMARK 921   NORMALIZED FREE ENERGY PREDICTED BY IDOCK:   -4.31 KCAL/MOL
REMARK 922        TOTAL FREE ENERGY PREDICTED BY IDOCK:   -6.95 KCAL/MOL
REMARK 923 INTER-LIGAND FREE ENERGY PREDICTED BY IDOCK:   -5.58 KCAL/MOL
REMARK 924 INTRA-LIGAND FREE ENERGY PREDICTED BY IDOCK:   -1.37 KCAL/MOL
REMARK 927      BINDING AFFINITY PREDICTED BY RF-SCORE:    0.00 PKD
ROOT
HETATM    1 CL   UNL     1     -10.274  12.258  65.352  1.00  0.00    -0.289 Cl 
HETATM    2  C   UNL     1     -10.521  11.602  66.923  1.00  0.00    -0.227 A  
HETATM    3  C   UNL     1     -11.757  11.742  67.548  1.00  0.00    -0.312 A  
HETATM    4  C   UNL     1     -11.948  11.219  68.831  1.00  0.00    -0.378 A  
HETATM    5  C   UNL     1     -10.905  10.554  69.495  1.00  0.00    -0.298 A  
HETATM    6  C   UNL     1      -9.668  10.418  68.849  1.00  0.00    -0.203 A  
HETATM    7  C   UNL     1      -9.479  10.938  67.567  1.00  0.00    -0.168 A  
ENDROOT
BRANCH   5   8
HETATM    8  C   UNL     1     -11.096  10.048  70.906  1.00  0.00    -0.314 C  
BRANCH   8   9
HETATM    9  O   UNL     1     -11.812   8.820  70.868  1.00  0.00    -0.282 OA 
BRANCH   9  10
HETATM   10  C   UNL     1     -11.054   7.634  71.194  1.00  0.00    -0.251 C  
BRANCH  10  11
HETATM   11  C   UNL     1     -10.453   7.062  69.899  1.00  0.00    -0.234 A  
HETATM   12  C   UNL     1      -9.448   5.991  67.473  1.00  0.00    -0.112 A  
HETATM   13  C   UNL     1      -9.073   6.834  69.709  1.00  0.00    -0.143 A  
HETATM   14  C   UNL     1     -11.298   6.774  68.803  1.00  0.00    -0.102 A  
HETATM   15  C   UNL     1      -8.581   6.275  68.519  1.00  0.00    -0.114 A  
HETATM   16 CL   UNL     1      -8.835   5.338  66.004  1.00  0.00    -0.136 Cl 
HETATM   17 CL   UNL     1      -7.879   7.269  70.882  1.00  0.00    -0.093 Cl 
HETATM   18  C   UNL     1     -10.803   6.254  67.602  1.00  0.00    -0.433 A  
ENDBRANCH  10  11
BRANCH  10  19
HETATM   19  C   UNL     1     -11.917   6.652  72.026  1.00  0.00    -0.319 C  
BRANCH  19  20
HETATM   20  N   UNL     1     -11.167   5.873  72.990  1.00  0.00    -0.250 NA 
HETATM   21  C   UNL     1     -11.407   4.572  73.340  1.00  0.00    -0.286 A  
HETATM   22  N   UNL     1      -9.617   5.350  74.476  1.00  0.00    -0.150 NA 
HETATM   23  C   UNL     1     -10.463   4.288  74.299  1.00  0.00    -0.253 A  
HETATM   24  C   UNL     1     -10.051   6.280  73.656  1.00  0.00    -0.230 A  
ENDBRANCH  19  20
ENDBRANCH  10  19
ENDBRANCH   9  10
ENDBRANCH   8   9
ENDBRANCH   5   8
TORSDOF 6
ENDMDL
MODEL      158
REMARK 921   NORMALIZED FREE ENERGY PREDICTED BY IDOCK:   -4.31 KCAL/MOL
REMARK 922        TOTAL FREE ENERGY PREDICTED BY IDOCK:   -6.95 KCAL/MOL
REMARK 923 INTER-LIGAND FREE ENERGY PREDICTED BY IDOCK:   -6.22 KCAL/MOL
REMARK 924 INTRA-LIGAND FREE ENERGY PREDICTED BY IDOCK:   -0.73 KCAL/MOL
REMARK 927      BINDING AFFINITY PREDICTED BY RF-SCORE:    0.00 PKD
ROOT
HETATM    1 CL   UNL     1     -11.991  11.262  63.403  1.00  0.00     0.063 Cl 
HETATM    2  C   UNL     1     -11.617  12.852  63.942  1.00  0.00    -0.453 A  
HETATM    3  C   UNL     1     -10.423  13.095  64.615  1.00  0.00    -0.411 A  
HETATM    4  C   UNL     1     -10.130  14.387  65.063  1.00  0.00    -0.322 A  
HETATM    5  C   UNL     1     -11.029  15.442  64.841  1.00  0.00    -0.453 A  
HETATM    6  C   UNL     1     -12.225  15.181  64.158  1.00  0.00    -0.182 A  
HETATM    7  C   UNL     1     -12.515  13.891  63.708  1.00  0.00    -0.150 A  
ENDROOT
BRANCH   5   8
HETATM    8  C   UNL     1     -10.739  16.822  65.384  1.00  0.00    -0.189 C  
BRANCH   8   9
HETATM    9  O   UNL     1      -9.422  16.844  65.922  1.00  0.00    -0.478 OA 
BRANCH   9  10
HETATM   10  C   UNL     1      -9.269  17.512  67.194  1.00  0.00    -0.243 C  
BRANCH  10  11
HETATM   11  C   UNL     1      -8.216  16.756  68.024  1.00  0.00    -0.192 A  
HETATM   12  C   UNL     1      -6.321  15.267  69.517  1.00  0.00    -0.145 A  
HETATM   13  C   UNL     1      -7.307  17.388  68.898  1.00  0.00    -0.244 A  
HETATM   14  C   UNL     1      -8.101  15.353  67.895  1.00  0.00    -0.148 A  
HETATM   15  C   UNL     1      -6.390  16.646  69.660  1.00  0.00    -0.217 A  
HETATM   16 CL   UNL     1      -5.172  14.367  70.428  1.00  0.00    -0.097 Cl 
HETATM   17 CL   UNL     1      -7.202  19.105  69.064  1.00  0.00    -0.376 Cl 
HETATM   18  C   UNL     1      -7.160  14.617  68.625  1.00  0.00    -0.115 A  
ENDBRANCH  10  11
BRANCH  10  19
HETATM   19  C   UNL     1     -10.649  17.705  67.873  1.00  0.00    -0.387 C  
BRANCH  19  20
HETATM   20  N   UNL     1     -11.027  16.628  68.765  1.00  0.00    -0.328 NA 
HETATM   21  C   UNL     1     -11.644  15.461  68.407  1.00  0.00    -0.354 A  
HETATM   22  N   UNL     1     -11.257  15.468  70.631  1.00  0.00    -0.321 NA 
HETATM   23  C   UNL     1     -11.820  14.781  69.589  1.00  0.00    -0.319 A  
HETATM   24  C   UNL     1     -10.765  16.564  70.101  1.00  0.00    -0.164 A  
ENDBRANCH  19  20
ENDBRANCH  10  19
ENDBRANCH   9  10
ENDBRANCH   8   9
ENDBRANCH   5   8
TORSDOF 6
ENDMDL
MODEL      159
REMARK 921   NORMALIZED FREE ENERGY PREDICTED BY IDOCK:   -4.30 KCAL/MOL
REMARK 922        TOTAL FREE ENERGY PREDICTED BY IDOCK:   -6.93 KCAL/MOL
REMARK 923 INTER-LIGAND FREE ENERGY PREDICTED BY IDOCK:   -6.23 KCAL/MOL
REMARK 924 INTRA-LIGAND FREE ENERGY PREDICTED BY IDOCK:   -0.71 KCAL/MOL
REMARK 927      BINDING AFFINITY PREDICTED BY RF-SCORE:    0.00 PKD
ROOT
HETATM    1 CL   UNL     1      -7.272   3.945  70.382  1.00  0.00    -0.041 Cl 
HETATM    2  C   UNL     1      -7.727   5.599  70.255  1.00  0.00    -0.090 A  
HETATM    3  C   UNL     1      -7.639   6.251  69.029  1.00  0.00    -0.096 A  
HETATM    4  C   UNL     1      -7.998   7.599  68.934  1.00  0.00    -0.125 A  
HETATM    5  C   UNL     1      -8.446   8.302  70.064  1.00  0.00    -0.123 A  
HETATM    6  C   UNL     1      -8.533   7.628  71.290  1.00  0.00    -0.118 A  
HETATM    7  C   UNL     1      -8.178   6.280  71.383  1.00  0.00    -0.122 A  
ENDROOT
BRANCH   5   8
HETATM    8  C   UNL     1      -8.770   9.774  69.971  1.00  0.00    -0.209 C  
BRANCH   8   9
HETATM    9  O   UNL     1      -9.459  10.024  68.752  1.00  0.00    -0.150 OA 
BRANCH   9  10
HETATM   10  C   UNL     1     -10.850  10.396  68.875  1.00  0.00    -0.236 C  
BRANCH  10  11
HETATM   11  C   UNL     1     -11.187  11.415  67.773  1.00  0.00    -0.346 A  
HETATM   12  C   UNL     1     -11.863  13.355  65.818  1.00  0.00    -0.377 A  
HETATM   13  C   UNL     1     -10.888  11.220  66.408  1.00  0.00    -0.251 A  
HETATM   14  C   UNL     1     -11.794  12.644  68.119  1.00  0.00    -0.366 A  
HETATM   15  C   UNL     1     -11.251  12.167  65.437  1.00  0.00    -0.381 A  
HETATM   16 CL   UNL     1     -12.274  14.527  64.628  1.00  0.00    -0.480 Cl 
HETATM   17 CL   UNL     1     -10.012   9.849  65.824  1.00  0.00    -0.353 Cl 
HETATM   18  C   UNL     1     -12.121  13.606  67.157  1.00  0.00    -0.404 A  
ENDBRANCH  10  11
BRANCH  10  19
HETATM   19  C   UNL     1     -11.163  10.845  70.325  1.00  0.00    -0.188 C  
BRANCH  19  20
HETATM   20  N   UNL     1     -12.079   9.974  71.032  1.00  0.00    -0.344 NA 
HETATM   21  C   UNL     1     -13.073  10.367  71.885  1.00  0.00    -0.458 A  
HETATM   22  N   UNL     1     -13.073   8.117  71.700  1.00  0.00    -0.338 NA 
HETATM   23  C   UNL     1     -13.642   9.195  72.324  1.00  0.00    -0.489 A  
HETATM   24  C   UNL     1     -12.152   8.619  70.909  1.00  0.00    -0.147 A  
ENDBRANCH  19  20
ENDBRANCH  10  19
ENDBRANCH   9  10
ENDBRANCH   8   9
ENDBRANCH   5   8
TORSDOF 6
ENDMDL
MODEL      160
REMARK 921   NORMALIZED FREE ENERGY PREDICTED BY IDOCK:   -4.29 KCAL/MOL
REMARK 922        TOTAL FREE ENERGY PREDICTED BY IDOCK:   -6.93 KCAL/MOL
REMARK 923 INTER-LIGAND FREE ENERGY PREDICTED BY IDOCK:   -6.71 KCAL/MOL
REMARK 924 INTRA-LIGAND FREE ENERGY PREDICTED BY IDOCK:   -0.22 KCAL/MOL
REMARK 927      BINDING AFFINITY PREDICTED BY RF-SCORE:    0.00 PKD
ROOT
HETATM    1 CL   UNL     1      -7.658   6.419  68.528  1.00  0.00    -0.095 Cl 
HETATM    2  C   UNL     1      -8.651   7.743  68.999  1.00  0.00    -0.135 A  
HETATM    3  C   UNL     1      -8.104   8.797  69.725  1.00  0.00    -0.111 A  
HETATM    4  C   UNL     1      -8.918   9.864  70.117  1.00  0.00    -0.159 A  
HETATM    5  C   UNL     1     -10.282   9.882  69.786  1.00  0.00    -0.278 A  
HETATM    6  C   UNL     1     -10.816   8.814  69.050  1.00  0.00    -0.052 A  
HETATM    7  C   UNL     1     -10.001   7.751  68.656  1.00  0.00    -0.191 A  
ENDROOT
BRANCH   5   8
HETATM    8  C   UNL     1     -11.171  11.005  70.268  1.00  0.00    -0.115 C  
BRANCH   8   9
HETATM    9  O   UNL     1     -11.842  11.579  69.153  1.00  0.00    -0.298 OA 
BRANCH   9  10
HETATM   10  C   UNL     1     -11.594  12.984  68.921  1.00  0.00    -0.311 C  
BRANCH  10  11
HETATM   11  C   UNL     1     -11.883  13.756  70.221  1.00  0.00    -0.342 A  
HETATM   12  C   UNL     1     -12.499  15.109  72.636  1.00  0.00    -0.376 A  
HETATM   13  C   UNL     1     -11.220  14.946  70.588  1.00  0.00    -0.189 A  
HETATM   14  C   UNL     1     -12.832  13.251  71.138  1.00  0.00    -0.363 A  
HETATM   15  C   UNL     1     -11.548  15.631  71.769  1.00  0.00    -0.531 A  
HETATM   16 CL   UNL     1     -12.873  15.934  74.098  1.00  0.00    -0.610 Cl 
HETATM   17 CL   UNL     1      -9.926  15.624  69.665  1.00  0.00    -0.281 Cl 
HETATM   18  C   UNL     1     -13.132  13.912  72.334  1.00  0.00    -0.532 A  
ENDBRANCH  10  11
BRANCH  10  19
HETATM   19  C   UNL     1     -12.364  13.469  67.666  1.00  0.00    -0.003 C  
BRANCH  19  20
HETATM   20  N   UNL     1     -11.619  13.348  66.430  1.00  0.00    -0.331 NA 
HETATM   21  C   UNL     1     -11.713  12.326  65.525  1.00  0.00    -0.377 A  
HETATM   22  N   UNL     1     -10.220  13.855  64.795  1.00  0.00    -0.390 NA 
HETATM   23  C   UNL     1     -10.801  12.640  64.546  1.00  0.00    -0.336 A  
HETATM   24  C   UNL     1     -10.751  14.269  65.923  1.00  0.00    -0.303 A  
ENDBRANCH  19  20
ENDBRANCH  10  19
ENDBRANCH   9  10
ENDBRANCH   8   9
ENDBRANCH   5   8
TORSDOF 6
ENDMDL
MODEL      161
REMARK 921   NORMALIZED FREE ENERGY PREDICTED BY IDOCK:   -4.28 KCAL/MOL
REMARK 922        TOTAL FREE ENERGY PREDICTED BY IDOCK:   -6.90 KCAL/MOL
REMARK 923 INTER-LIGAND FREE ENERGY PREDICTED BY IDOCK:   -6.18 KCAL/MOL
REMARK 924 INTRA-LIGAND FREE ENERGY PREDICTED BY IDOCK:   -0.72 KCAL/MOL
REMARK 927      BINDING AFFINITY PREDICTED BY RF-SCORE:    0.00 PKD
ROOT
HETATM    1 CL   UNL     1     -12.835  11.867  63.336  1.00  0.00    -0.588 Cl 
HETATM    2  C   UNL     1     -11.898  13.003  64.224  1.00  0.00    -0.396 A  
HETATM    3  C   UNL     1     -10.895  12.558  65.081  1.00  0.00    -0.323 A  
HETATM    4  C   UNL     1     -10.145  13.485  65.810  1.00  0.00    -0.298 A  
HETATM    5  C   UNL     1     -10.394  14.862  65.688  1.00  0.00    -0.370 A  
HETATM    6  C   UNL     1     -11.405  15.293  64.816  1.00  0.00    -0.396 A  
HETATM    7  C   UNL     1     -12.151  14.366  64.085  1.00  0.00    -0.405 A  
ENDROOT
BRANCH   5   8
HETATM    8  C   UNL     1      -9.626  15.856  66.526  1.00  0.00    -0.268 C  
BRANCH   8   9
HETATM    9  O   UNL     1      -8.240  15.544  66.467  1.00  0.00    -0.248 OA 
BRANCH   9  10
HETATM   10  C   UNL     1      -7.431  16.044  67.555  1.00  0.00    -0.160 C  
BRANCH  10  11
HETATM   11  C   UNL     1      -6.955  14.851  68.404  1.00  0.00    -0.110 A  
HETATM   12  C   UNL     1      -6.136  12.586  69.900  1.00  0.00    -0.130 A  
HETATM   13  C   UNL     1      -6.204  14.985  69.591  1.00  0.00    -0.134 A  
HETATM   14  C   UNL     1      -7.235  13.533  67.976  1.00  0.00    -0.125 A  
HETATM   15  C   UNL     1      -5.826  13.864  70.347  1.00  0.00    -0.161 A  
HETATM   16 CL   UNL     1      -5.641  11.215  70.813  1.00  0.00    -0.128 Cl 
HETATM   17 CL   UNL     1      -5.642  16.510  70.180  1.00  0.00    -0.197 Cl 
HETATM   18  C   UNL     1      -6.824  12.414  68.709  1.00  0.00    -0.092 A  
ENDBRANCH  10  11
BRANCH  10  19
HETATM   19  C   UNL     1      -8.187  17.157  68.325  1.00  0.00    -0.230 C  
BRANCH  19  20
HETATM   20  N   UNL     1      -7.783  18.502  67.972  1.00  0.00    -0.259 NA 
HETATM   21  C   UNL     1      -7.087  19.372  68.766  1.00  0.00    -0.347 A  
HETATM   22  N   UNL     1      -7.504  20.333  66.766  1.00  0.00    -0.282 NA 
HETATM   23  C   UNL     1      -6.970  20.516  68.013  1.00  0.00    -0.268 A  
HETATM   24  C   UNL     1      -7.963  19.102  66.761  1.00  0.00    -0.269 A  
ENDBRANCH  19  20
ENDBRANCH  10  19
ENDBRANCH   9  10
ENDBRANCH   8   9
ENDBRANCH   5   8
TORSDOF 6
ENDMDL
MODEL      162
REMARK 921   NORMALIZED FREE ENERGY PREDICTED BY IDOCK:   -4.24 KCAL/MOL
REMARK 922        TOTAL FREE ENERGY PREDICTED BY IDOCK:   -6.85 KCAL/MOL
REMARK 923 INTER-LIGAND FREE ENERGY PREDICTED BY IDOCK:   -6.78 KCAL/MOL
REMARK 924 INTRA-LIGAND FREE ENERGY PREDICTED BY IDOCK:   -0.07 KCAL/MOL
REMARK 927      BINDING AFFINITY PREDICTED BY RF-SCORE:    0.00 PKD
ROOT
HETATM    1 CL   UNL     1      -7.709   6.689  62.583  1.00  0.00    -0.094 Cl 
HETATM    2  C   UNL     1      -8.084   8.029  63.594  1.00  0.00    -0.099 A  
HETATM    3  C   UNL     1      -7.872   7.944  64.968  1.00  0.00    -0.120 A  
HETATM    4  C   UNL     1      -8.191   9.031  65.787  1.00  0.00    -0.120 A  
HETATM    5  C   UNL     1      -8.724  10.209  65.237  1.00  0.00    -0.180 A  
HETATM    6  C   UNL     1      -8.927  10.279  63.852  1.00  0.00    -0.259 A  
HETATM    7  C   UNL     1      -8.604   9.194  63.034  1.00  0.00    -0.196 A  
ENDROOT
BRANCH   5   8
HETATM    8  C   UNL     1      -9.128  11.356  66.133  1.00  0.00    -0.207 C  
BRANCH   8   9
HETATM    9  O   UNL     1     -10.522  11.271  66.401  1.00  0.00    -0.241 OA 
BRANCH   9  10
HETATM   10  C   UNL     1     -11.021  12.141  67.441  1.00  0.00    -0.260 C  
BRANCH  10  11
HETATM   11  C   UNL     1     -11.303  11.296  68.696  1.00  0.00    -0.336 A  
HETATM   12  C   UNL     1     -11.786   9.650  70.954  1.00  0.00    -0.334 A  
HETATM   13  C   UNL     1     -11.937  11.799  69.852  1.00  0.00    -0.332 A  
HETATM   14  C   UNL     1     -10.880   9.948  68.741  1.00  0.00    -0.240 A  
HETATM   15  C   UNL     1     -12.203  10.975  70.957  1.00  0.00    -0.456 A  
HETATM   16 CL   UNL     1     -12.084   8.653  72.324  1.00  0.00    -0.445 Cl 
HETATM   17 CL   UNL     1     -12.382  13.459  70.033  1.00  0.00    -0.333 Cl 
HETATM   18  C   UNL     1     -11.110   9.136  69.857  1.00  0.00    -0.175 A  
ENDBRANCH  10  11
BRANCH  10  19
HETATM   19  C   UNL     1     -12.211  12.984  66.917  1.00  0.00    -0.168 C  
BRANCH  19  20
HETATM   20  N   UNL     1     -12.180  13.233  65.490  1.00  0.00    -0.431 NA 
HETATM   21  C   UNL     1     -12.314  12.296  64.503  1.00  0.00    -0.384 A  
HETATM   22  N   UNL     1     -12.060  14.342  63.583  1.00  0.00    -0.467 NA 
HETATM   23  C   UNL     1     -12.187  13.002  63.330  1.00  0.00    -0.472 A  
HETATM   24  C   UNL     1     -12.085  14.453  64.891  1.00  0.00    -0.436 A  
ENDBRANCH  19  20
ENDBRANCH  10  19
ENDBRANCH   9  10
ENDBRANCH   8   9
ENDBRANCH   5   8
TORSDOF 6
ENDMDL
MODEL      163
REMARK 921   NORMALIZED FREE ENERGY PREDICTED BY IDOCK:   -4.23 KCAL/MOL
REMARK 922        TOTAL FREE ENERGY PREDICTED BY IDOCK:   -6.84 KCAL/MOL
REMARK 923 INTER-LIGAND FREE ENERGY PREDICTED BY IDOCK:   -6.44 KCAL/MOL
REMARK 924 INTRA-LIGAND FREE ENERGY PREDICTED BY IDOCK:   -0.39 KCAL/MOL
REMARK 927      BINDING AFFINITY PREDICTED BY RF-SCORE:    0.00 PKD
ROOT
HETATM    1 CL   UNL     1      -9.365  19.965  66.642  1.00  0.00    -0.464 Cl 
HETATM    2  C   UNL     1      -9.431  18.347  67.223  1.00  0.00    -0.278 A  
HETATM    3  C   UNL     1      -8.791  17.330  66.522  1.00  0.00    -0.290 A  
HETATM    4  C   UNL     1      -8.859  16.015  66.992  1.00  0.00    -0.235 A  
HETATM    5  C   UNL     1      -9.569  15.710  68.165  1.00  0.00    -0.196 A  
HETATM    6  C   UNL     1     -10.204  16.748  68.862  1.00  0.00    -0.304 A  
HETATM    7  C   UNL     1     -10.132  18.062  68.393  1.00  0.00    -0.392 A  
ENDROOT
BRANCH   5   8
HETATM    8  C   UNL     1      -9.694  14.280  68.634  1.00  0.00    -0.213 C  
BRANCH   8   9
HETATM    9  O   UNL     1      -9.886  13.435  67.506  1.00  0.00    -0.219 OA 
BRANCH   9  10
HETATM   10  C   UNL     1     -10.719  12.274  67.719  1.00  0.00    -0.217 C  
BRANCH  10  11
HETATM   11  C   UNL     1      -9.982  11.033  67.184  1.00  0.00    -0.218 A  
HETATM   12  C   UNL     1      -8.641   8.785  66.094  1.00  0.00    -0.146 A  
HETATM   13  C   UNL     1      -9.531   9.976  68.003  1.00  0.00    -0.137 A  
HETATM   14  C   UNL     1      -9.688  10.936  65.805  1.00  0.00    -0.270 A  
HETATM   15  C   UNL     1      -8.895   8.849  67.458  1.00  0.00    -0.135 A  
HETATM   16 CL   UNL     1      -7.830   7.418  65.437  1.00  0.00    -0.110 Cl 
HETATM   17 CL   UNL     1      -9.667   9.999  69.726  1.00  0.00    -0.260 Cl 
HETATM   18  C   UNL     1      -9.019   9.831  65.266  1.00  0.00    -0.233 A  
ENDBRANCH  10  11
BRANCH  10  19
HETATM   19  C   UNL     1     -12.138  12.512  67.144  1.00  0.00    -0.065 C  
BRANCH  19  20
HETATM   20  N   UNL     1     -12.153  13.172  65.855  1.00  0.00    -0.428 NA 
HETATM   21  C   UNL     1     -12.300  12.566  64.637  1.00  0.00    -0.474 A  
HETATM   22  N   UNL     1     -12.108  14.798  64.359  1.00  0.00    -0.476 NA 
HETATM   23  C   UNL     1     -12.219  13.590  63.724  1.00  0.00    -0.388 A  
HETATM   24  C   UNL     1     -12.096  14.517  65.642  1.00  0.00    -0.293 A  
ENDBRANCH  19  20
ENDBRANCH  10  19
ENDBRANCH   9  10
ENDBRANCH   8   9
ENDBRANCH   5   8
TORSDOF 6
ENDMDL
MODEL      164
REMARK 921   NORMALIZED FREE ENERGY PREDICTED BY IDOCK:   -4.22 KCAL/MOL
REMARK 922        TOTAL FREE ENERGY PREDICTED BY IDOCK:   -6.82 KCAL/MOL
REMARK 923 INTER-LIGAND FREE ENERGY PREDICTED BY IDOCK:   -6.21 KCAL/MOL
REMARK 924 INTRA-LIGAND FREE ENERGY PREDICTED BY IDOCK:   -0.61 KCAL/MOL
REMARK 927      BINDING AFFINITY PREDICTED BY RF-SCORE:    0.00 PKD
ROOT
HETATM    1 CL   UNL     1      -7.600   6.379  62.711  1.00  0.00    -0.072 Cl 
HETATM    2  C   UNL     1      -8.028   7.676  63.756  1.00  0.00    -0.090 A  
HETATM    3  C   UNL     1      -8.094   7.468  65.131  1.00  0.00    -0.130 A  
HETATM    4  C   UNL     1      -8.455   8.523  65.975  1.00  0.00    -0.150 A  
HETATM    5  C   UNL     1      -8.754   9.790  65.448  1.00  0.00    -0.176 A  
HETATM    6  C   UNL     1      -8.679   9.983  64.062  1.00  0.00    -0.222 A  
HETATM    7  C   UNL     1      -8.314   8.930  63.220  1.00  0.00    -0.180 A  
ENDROOT
BRANCH   5   8
HETATM    8  C   UNL     1      -9.207  10.908  66.357  1.00  0.00    -0.174 C  
BRANCH   8   9
HETATM    9  O   UNL     1     -10.554  10.674  66.749  1.00  0.00    -0.248 OA 
BRANCH   9  10
HETATM   10  C   UNL     1     -11.066  11.528  67.796  1.00  0.00    -0.260 C  
BRANCH  10  11
HETATM   11  C   UNL     1     -10.863  12.996  67.378  1.00  0.00    -0.269 A  
HETATM   12  C   UNL     1     -10.430  15.716  66.703  1.00  0.00    -0.301 A  
HETATM   13  C   UNL     1     -11.464  13.578  66.243  1.00  0.00    -0.326 A  
HETATM   14  C   UNL     1      -9.998  13.823  68.131  1.00  0.00    -0.242 A  
HETATM   15  C   UNL     1     -11.274  14.932  65.927  1.00  0.00    -0.328 A  
HETATM   16 CL   UNL     1     -10.172  17.366  66.292  1.00  0.00    -0.340 Cl 
HETATM   17 CL   UNL     1     -12.426  12.677  65.123  1.00  0.00    -0.560 Cl 
HETATM   18  C   UNL     1      -9.777  15.163  67.795  1.00  0.00    -0.211 A  
ENDBRANCH  10  11
BRANCH  10  19
HETATM   19  C   UNL     1     -10.460  11.129  69.166  1.00  0.00    -0.182 C  
BRANCH  19  20
HETATM   20  N   UNL     1     -11.429  10.630  70.120  1.00  0.00    -0.306 NA 
HETATM   21  C   UNL     1     -11.500   9.354  70.608  1.00  0.00    -0.284 A  
HETATM   22  N   UNL     1     -13.122  10.618  71.540  1.00  0.00    -0.423 NA 
HETATM   23  C   UNL     1     -12.588   9.361  71.448  1.00  0.00    -0.348 A  
HETATM   24  C   UNL     1     -12.387  11.367  70.749  1.00  0.00    -0.386 A  
ENDBRANCH  19  20
ENDBRANCH  10  19
ENDBRANCH   9  10
ENDBRANCH   8   9
ENDBRANCH   5   8
TORSDOF 6
ENDMDL
MODEL      165
REMARK 921   NORMALIZED FREE ENERGY PREDICTED BY IDOCK:   -4.20 KCAL/MOL
REMARK 922        TOTAL FREE ENERGY PREDICTED BY IDOCK:   -6.80 KCAL/MOL
REMARK 923 INTER-LIGAND FREE ENERGY PREDICTED BY IDOCK:   -6.02 KCAL/MOL
REMARK 924 INTRA-LIGAND FREE ENERGY PREDICTED BY IDOCK:   -0.78 KCAL/MOL
REMARK 927      BINDING AFFINITY PREDICTED BY RF-SCORE:    0.00 PKD
ROOT
HETATM    1 CL   UNL     1     -10.482  19.667  67.888  1.00  0.00    -0.564 Cl 
HETATM    2  C   UNL     1      -9.970  18.028  67.987  1.00  0.00    -0.343 A  
HETATM    3  C   UNL     1     -10.866  17.002  67.700  1.00  0.00    -0.244 A  
HETATM    4  C   UNL     1     -10.449  15.671  67.795  1.00  0.00    -0.273 A  
HETATM    5  C   UNL     1      -9.134  15.359  68.178  1.00  0.00    -0.184 A  
HETATM    6  C   UNL     1      -8.244  16.405  68.459  1.00  0.00    -0.201 A  
HETATM    7  C   UNL     1      -8.661  17.734  68.361  1.00  0.00    -0.292 A  
ENDROOT
BRANCH   5   8
HETATM    8  C   UNL     1      -8.706  13.920  68.342  1.00  0.00    -0.173 C  
BRANCH   8   9
HETATM    9  O   UNL     1      -9.862  13.103  68.484  1.00  0.00    -0.218 OA 
BRANCH   9  10
HETATM   10  C   UNL     1      -9.736  11.742  68.016  1.00  0.00    -0.185 C  
BRANCH  10  11
HETATM   11  C   UNL     1      -9.904  10.791  69.214  1.00  0.00    -0.160 A  
HETATM   12  C   UNL     1     -10.108   9.000  71.403  1.00  0.00    -0.329 A  
HETATM   13  C   UNL     1     -11.110  10.636  69.929  1.00  0.00    -0.298 A  
HETATM   14  C   UNL     1      -8.794  10.045  69.674  1.00  0.00    -0.217 A  
HETATM   15  C   UNL     1     -11.218   9.727  70.993  1.00  0.00    -0.451 A  
HETATM   16 CL   UNL     1     -10.238   7.912  72.729  1.00  0.00    -0.350 Cl 
HETATM   17 CL   UNL     1     -12.522  11.579  69.604  1.00  0.00    -0.160 Cl 
HETATM   18  C   UNL     1      -8.891   9.167  70.760  1.00  0.00    -0.291 A  
ENDBRANCH  10  11
BRANCH  10  19
HETATM   19  C   UNL     1      -8.431  11.569  67.197  1.00  0.00    -0.158 C  
BRANCH  19  20
HETATM   20  N   UNL     1      -8.573  10.733  66.023  1.00  0.00    -0.173 NA 
HETATM   21  C   UNL     1      -9.318  11.020  64.912  1.00  0.00    -0.214 A  
HETATM   22  N   UNL     1      -8.289   9.028  64.647  1.00  0.00    -0.164 NA 
HETATM   23  C   UNL     1      -9.164   9.925  64.095  1.00  0.00    -0.262 A  
HETATM   24  C   UNL     1      -7.930   9.554  65.796  1.00  0.00    -0.111 A  
ENDBRANCH  19  20
ENDBRANCH  10  19
ENDBRANCH   9  10
ENDBRANCH   8   9
ENDBRANCH   5   8
TORSDOF 6
ENDMDL
MODEL      166
REMARK 921   NORMALIZED FREE ENERGY PREDICTED BY IDOCK:   -4.18 KCAL/MOL
REMARK 922        TOTAL FREE ENERGY PREDICTED BY IDOCK:   -6.77 KCAL/MOL
REMARK 923 INTER-LIGAND FREE ENERGY PREDICTED BY IDOCK:   -5.67 KCAL/MOL
REMARK 924 INTRA-LIGAND FREE ENERGY PREDICTED BY IDOCK:   -1.09 KCAL/MOL
REMARK 927      BINDING AFFINITY PREDICTED BY RF-SCORE:    0.00 PKD
ROOT
HETATM    1 CL   UNL     1     -11.774  15.938  68.591  1.00  0.00    -0.382 Cl 
HETATM    2  C   UNL     1     -11.343  14.558  67.660  1.00  0.00    -0.337 A  
HETATM    3  C   UNL     1     -12.275  13.981  66.801  1.00  0.00    -0.439 A  
HETATM    4  C   UNL     1     -11.924  12.851  66.056  1.00  0.00    -0.505 A  
HETATM    5  C   UNL     1     -10.641  12.291  66.167  1.00  0.00    -0.281 A  
HETATM    6  C   UNL     1      -9.714  12.887  67.034  1.00  0.00    -0.230 A  
HETATM    7  C   UNL     1     -10.065  14.018  67.775  1.00  0.00    -0.240 A  
ENDROOT
BRANCH   5   8
HETATM    8  C   UNL     1     -10.288  11.032  65.410  1.00  0.00    -0.268 C  
BRANCH   8   9
HETATM    9  O   UNL     1      -9.343  10.284  66.165  1.00  0.00    -0.159 OA 
BRANCH   9  10
HETATM   10  C   UNL     1      -9.683   8.902  66.413  1.00  0.00    -0.262 C  
BRANCH  10  11
HETATM   11  C   UNL     1      -9.944   8.721  67.919  1.00  0.00    -0.231 A  
HETATM   12  C   UNL     1     -10.376   8.488  70.712  1.00  0.00    -0.198 A  
HETATM   13  C   UNL     1     -10.468   7.541  68.487  1.00  0.00    -0.180 A  
HETATM   14  C   UNL     1      -9.692   9.793  68.805  1.00  0.00    -0.165 A  
HETATM   15  C   UNL     1     -10.653   7.416  69.873  1.00  0.00    -0.245 A  
HETATM   16 CL   UNL     1     -10.637   8.341  72.406  1.00  0.00    -0.388 Cl 
HETATM   17 CL   UNL     1     -10.977   6.188  67.539  1.00  0.00    -0.419 Cl 
HETATM   18  C   UNL     1      -9.912   9.683  70.183  1.00  0.00    -0.309 A  
ENDBRANCH  10  11
BRANCH  10  19
HETATM   19  C   UNL     1      -8.614   7.963  65.799  1.00  0.00    -0.147 C  
BRANCH  19  20
HETATM   20  N   UNL     1      -7.412   7.830  66.596  1.00  0.00    -0.087 NA 
HETATM   21  C   UNL     1      -6.997   6.703  67.251  1.00  0.00    -0.078 A  
HETATM   22  N   UNL     1      -5.499   8.363  67.566  1.00  0.00    -0.037 NA 
HETATM   23  C   UNL     1      -5.834   7.074  67.884  1.00  0.00    -0.025 A  
HETATM   24  C   UNL     1      -6.454   8.784  66.768  1.00  0.00    -0.060 A  
ENDBRANCH  19  20
ENDBRANCH  10  19
ENDBRANCH   9  10
ENDBRANCH   8   9
ENDBRANCH   5   8
TORSDOF 6
ENDMDL
MODEL      167
REMARK 921   NORMALIZED FREE ENERGY PREDICTED BY IDOCK:   -4.17 KCAL/MOL
REMARK 922        TOTAL FREE ENERGY PREDICTED BY IDOCK:   -6.77 KCAL/MOL
REMARK 923 INTER-LIGAND FREE ENERGY PREDICTED BY IDOCK:   -5.91 KCAL/MOL
REMARK 924 INTRA-LIGAND FREE ENERGY PREDICTED BY IDOCK:   -0.85 KCAL/MOL
REMARK 927      BINDING AFFINITY PREDICTED BY RF-SCORE:    0.00 PKD
ROOT
HETATM    1 CL   UNL     1     -11.676  15.770  64.229  1.00  0.00    -0.297 Cl 
HETATM    2  C   UNL     1     -11.217  14.146  64.560  1.00  0.00    -0.337 A  
HETATM    3  C   UNL     1     -11.672  13.114  63.744  1.00  0.00    -0.519 A  
HETATM    4  C   UNL     1     -11.307  11.794  64.026  1.00  0.00    -0.461 A  
HETATM    5  C   UNL     1     -10.485  11.499  65.126  1.00  0.00    -0.340 A  
HETATM    6  C   UNL     1     -10.031  12.551  65.935  1.00  0.00    -0.269 A  
HETATM    7  C   UNL     1     -10.394  13.869  65.650  1.00  0.00    -0.337 A  
ENDROOT
BRANCH   5   8
HETATM    8  C   UNL     1     -10.146  10.066  65.465  1.00  0.00    -0.255 C  
BRANCH   8   9
HETATM    9  O   UNL     1     -10.863   9.681  66.631  1.00  0.00    -0.088 OA 
BRANCH   9  10
HETATM   10  C   UNL     1     -10.073   9.125  67.705  1.00  0.00    -0.203 C  
BRANCH  10  11
HETATM   11  C   UNL     1      -9.791   7.644  67.394  1.00  0.00    -0.226 A  
HETATM   12  C   UNL     1      -9.383   4.900  66.808  1.00  0.00    -0.138 A  
HETATM   13  C   UNL     1      -8.512   7.055  67.478  1.00  0.00    -0.122 A  
HETATM   14  C   UNL     1     -10.845   6.809  66.957  1.00  0.00    -0.453 A  
HETATM   15  C   UNL     1      -8.316   5.689  67.218  1.00  0.00    -0.100 A  
HETATM   16 CL   UNL     1      -9.131   3.234  66.457  1.00  0.00    -0.162 Cl 
HETATM   17 CL   UNL     1      -7.084   7.958  67.846  1.00  0.00    -0.084 Cl 
HETATM   18  C   UNL     1     -10.644   5.456  66.660  1.00  0.00    -0.359 A  
ENDBRANCH  10  11
BRANCH  10  19
HETATM   19  C   UNL     1     -10.743   9.408  69.074  1.00  0.00    -0.187 C  
BRANCH  19  20
HETATM   20  N   UNL     1     -10.171   8.667  70.179  1.00  0.00    -0.188 NA 
HETATM   21  C   UNL     1      -9.012   8.969  70.841  1.00  0.00    -0.243 A  
HETATM   22  N   UNL     1      -9.953   7.128  71.750  1.00  0.00    -0.176 NA 
HETATM   23  C   UNL     1      -8.874   7.971  71.778  1.00  0.00    -0.140 A  
HETATM   24  C   UNL     1     -10.729   7.587  70.795  1.00  0.00    -0.229 A  
ENDBRANCH  19  20
ENDBRANCH  10  19
ENDBRANCH   9  10
ENDBRANCH   8   9
ENDBRANCH   5   8
TORSDOF 6
ENDMDL
MODEL      168
REMARK 921   NORMALIZED FREE ENERGY PREDICTED BY IDOCK:   -4.16 KCAL/MOL
REMARK 922        TOTAL FREE ENERGY PREDICTED BY IDOCK:   -6.75 KCAL/MOL
REMARK 923 INTER-LIGAND FREE ENERGY PREDICTED BY IDOCK:   -6.16 KCAL/MOL
REMARK 924 INTRA-LIGAND FREE ENERGY PREDICTED BY IDOCK:   -0.59 KCAL/MOL
REMARK 927      BINDING AFFINITY PREDICTED BY RF-SCORE:    0.00 PKD
ROOT
HETATM    1 CL   UNL     1     -14.222   8.855  73.058  1.00  0.00     0.005 Cl 
HETATM    2  C   UNL     1     -12.791   9.072  72.129  1.00  0.00    -0.410 A  
HETATM    3  C   UNL     1     -11.784   8.112  72.170  1.00  0.00    -0.418 A  
HETATM    4  C   UNL     1     -10.617   8.300  71.423  1.00  0.00    -0.279 A  
HETATM    5  C   UNL     1     -10.450   9.449  70.633  1.00  0.00    -0.354 A  
HETATM    6  C   UNL     1     -11.476  10.404  70.601  1.00  0.00    -0.438 A  
HETATM    7  C   UNL     1     -12.643  10.213  71.344  1.00  0.00    -0.526 A  
ENDROOT
BRANCH   5   8
HETATM    8  C   UNL     1      -9.161   9.679  69.880  1.00  0.00    -0.225 C  
BRANCH   8   9
HETATM    9  O   UNL     1      -9.355  10.719  68.930  1.00  0.00    -0.176 OA 
BRANCH   9  10
HETATM   10  C   UNL     1      -9.275  10.330  67.540  1.00  0.00    -0.141 C  
BRANCH  10  11
HETATM   11  C   UNL     1      -9.971  11.405  66.687  1.00  0.00    -0.239 A  
HETATM   12  C   UNL     1     -11.282  13.439  65.209  1.00  0.00    -0.289 A  
HETATM   13  C   UNL     1     -10.112  11.323  65.286  1.00  0.00    -0.267 A  
HETATM   14  C   UNL     1     -10.473  12.573  67.307  1.00  0.00    -0.232 A  
HETATM   15  C   UNL     1     -10.789  12.316  64.559  1.00  0.00    -0.355 A  
HETATM   16 CL   UNL     1     -12.080  14.669  64.309  1.00  0.00    -0.481 Cl 
HETATM   17 CL   UNL     1      -9.426  10.044  64.346  1.00  0.00    -0.352 Cl 
HETATM   18  C   UNL     1     -11.113  13.581  66.578  1.00  0.00    -0.310 A  
ENDBRANCH  10  11
BRANCH  10  19
HETATM   19  C   UNL     1      -9.797   8.882  67.353  1.00  0.00    -0.193 C  
BRANCH  19  20
HETATM   20  N   UNL     1      -8.752   7.883  67.255  1.00  0.00    -0.130 NA 
HETATM   21  C   UNL     1      -8.888   6.544  67.500  1.00  0.00    -0.112 A  
HETATM   22  N   UNL     1      -6.765   6.994  66.875  1.00  0.00    -0.054 NA 
HETATM   23  C   UNL     1      -7.631   6.023  67.305  1.00  0.00    -0.093 A  
HETATM   24  C   UNL     1      -7.475   8.098  66.830  1.00  0.00    -0.090 A  
ENDBRANCH  19  20
ENDBRANCH  10  19
ENDBRANCH   9  10
ENDBRANCH   8   9
ENDBRANCH   5   8
TORSDOF 6
ENDMDL
MODEL      169
REMARK 921   NORMALIZED FREE ENERGY PREDICTED BY IDOCK:   -4.14 KCAL/MOL
REMARK 922        TOTAL FREE ENERGY PREDICTED BY IDOCK:   -6.73 KCAL/MOL
REMARK 923 INTER-LIGAND FREE ENERGY PREDICTED BY IDOCK:   -5.73 KCAL/MOL
REMARK 924 INTRA-LIGAND FREE ENERGY PREDICTED BY IDOCK:   -0.99 KCAL/MOL
REMARK 927      BINDING AFFINITY PREDICTED BY RF-SCORE:    0.00 PKD
ROOT
HETATM    1 CL   UNL     1      -8.819   6.048  66.022  1.00  0.00    -0.154 Cl 
HETATM    2  C   UNL     1      -8.517   7.726  66.254  1.00  0.00    -0.141 A  
HETATM    3  C   UNL     1      -7.813   8.156  67.375  1.00  0.00    -0.106 A  
HETATM    4  C   UNL     1      -7.581   9.521  67.567  1.00  0.00    -0.095 A  
HETATM    5  C   UNL     1      -8.054  10.464  66.639  1.00  0.00    -0.122 A  
HETATM    6  C   UNL     1      -8.758  10.013  65.513  1.00  0.00    -0.171 A  
HETATM    7  C   UNL     1      -8.985   8.648  65.322  1.00  0.00    -0.150 A  
ENDROOT
BRANCH   5   8
HETATM    8  C   UNL     1      -7.859  11.942  66.883  1.00  0.00    -0.120 C  
BRANCH   8   9
HETATM    9  O   UNL     1      -8.945  12.434  67.657  1.00  0.00    -0.167 OA 
BRANCH   9  10
HETATM   10  C   UNL     1     -10.008  13.077  66.919  1.00  0.00    -0.243 C  
BRANCH  10  11
HETATM   11  C   UNL     1     -10.051  14.565  67.311  1.00  0.00    -0.247 A  
HETATM   12  C   UNL     1     -10.103  17.277  68.139  1.00  0.00    -0.325 A  
HETATM   13  C   UNL     1     -10.450  15.595  66.434  1.00  0.00    -0.305 A  
HETATM   14  C   UNL     1      -9.634  14.959  68.603  1.00  0.00    -0.222 A  
HETATM   15  C   UNL     1     -10.505  16.933  66.854  1.00  0.00    -0.271 A  
HETATM   16 CL   UNL     1     -10.140  18.923  68.638  1.00  0.00    -0.453 Cl 
HETATM   17 CL   UNL     1     -10.845  15.315  64.774  1.00  0.00    -0.419 Cl 
HETATM   18  C   UNL     1      -9.651  16.298  69.010  1.00  0.00    -0.257 A  
ENDBRANCH  10  11
BRANCH  10  19
HETATM   19  C   UNL     1     -11.337  12.298  67.094  1.00  0.00    -0.335 C  
BRANCH  19  20
HETATM   20  N   UNL     1     -11.457  11.607  68.361  1.00  0.00    -0.270 NA 
HETATM   21  C   UNL     1     -11.902  12.147  69.537  1.00  0.00    -0.321 A  
HETATM   22  N   UNL     1     -11.397   9.968  69.841  1.00  0.00    -0.254 NA 
HETATM   23  C   UNL     1     -11.808  11.123  70.450  1.00  0.00    -0.369 A  
HETATM   24  C   UNL     1     -11.218  10.284  68.579  1.00  0.00    -0.214 A  
ENDBRANCH  19  20
ENDBRANCH  10  19
ENDBRANCH   9  10
ENDBRANCH   8   9
ENDBRANCH   5   8
TORSDOF 6
ENDMDL
MODEL      170
REMARK 921   NORMALIZED FREE ENERGY PREDICTED BY IDOCK:   -4.13 KCAL/MOL
REMARK 922        TOTAL FREE ENERGY PREDICTED BY IDOCK:   -6.71 KCAL/MOL
REMARK 923 INTER-LIGAND FREE ENERGY PREDICTED BY IDOCK:   -6.03 KCAL/MOL
REMARK 924 INTRA-LIGAND FREE ENERGY PREDICTED BY IDOCK:   -0.68 KCAL/MOL
REMARK 927      BINDING AFFINITY PREDICTED BY RF-SCORE:    0.00 PKD
ROOT
HETATM    1 CL   UNL     1      -6.318   9.254  69.512  1.00  0.00    -0.042 Cl 
HETATM    2  C   UNL     1      -6.924  10.816  69.122  1.00  0.00    -0.091 A  
HETATM    3  C   UNL     1      -8.052  10.942  68.316  1.00  0.00    -0.124 A  
HETATM    4  C   UNL     1      -8.533  12.214  67.991  1.00  0.00    -0.170 A  
HETATM    5  C   UNL     1      -7.888  13.366  68.470  1.00  0.00    -0.115 A  
HETATM    6  C   UNL     1      -6.756  13.221  69.284  1.00  0.00    -0.066 A  
HETATM    7  C   UNL     1      -6.279  11.949  69.610  1.00  0.00    -0.129 A  
ENDROOT
BRANCH   5   8
HETATM    8  C   UNL     1      -8.372  14.738  68.063  1.00  0.00    -0.143 C  
BRANCH   8   9
HETATM    9  O   UNL     1      -8.257  14.874  66.652  1.00  0.00    -0.137 OA 
BRANCH   9  10
HETATM   10  C   UNL     1      -9.373  15.504  65.984  1.00  0.00    -0.344 C  
BRANCH  10  11
HETATM   11  C   UNL     1      -9.432  16.982  66.410  1.00  0.00    -0.294 A  
HETATM   12  C   UNL     1      -9.650  19.693  67.211  1.00  0.00    -0.346 A  
HETATM   13  C   UNL     1      -8.333  17.863  66.332  1.00  0.00    -0.242 A  
HETATM   14  C   UNL     1     -10.628  17.507  66.950  1.00  0.00    -0.219 A  
HETATM   15  C   UNL     1      -8.450  19.213  66.700  1.00  0.00    -0.319 A  
HETATM   16 CL   UNL     1      -9.778  21.340  67.692  1.00  0.00    -0.145 Cl 
HETATM   17 CL   UNL     1      -6.754  17.356  65.842  1.00  0.00    -0.194 Cl 
HETATM   18  C   UNL     1     -10.735  18.842  67.354  1.00  0.00    -0.519 A  
ENDBRANCH  10  11
BRANCH  10  19
HETATM   19  C   UNL     1     -10.671  14.687  66.211  1.00  0.00    -0.316 C  
BRANCH  19  20
HETATM   20  N   UNL     1     -11.060  13.866  65.084  1.00  0.00    -0.320 NA 
HETATM   21  C   UNL     1     -12.208  13.989  64.351  1.00  0.00    -0.426 A  
HETATM   22  N   UNL     1     -10.953  12.305  63.523  1.00  0.00    -0.454 NA 
HETATM   23  C   UNL     1     -12.141  12.978  63.421  1.00  0.00    -0.515 A  
HETATM   24  C   UNL     1     -10.312  12.878  64.516  1.00  0.00    -0.357 A  
ENDBRANCH  19  20
ENDBRANCH  10  19
ENDBRANCH   9  10
ENDBRANCH   8   9
ENDBRANCH   5   8
TORSDOF 6
ENDMDL
MODEL      171
REMARK 921   NORMALIZED FREE ENERGY PREDICTED BY IDOCK:   -4.12 KCAL/MOL
REMARK 922        TOTAL FREE ENERGY PREDICTED BY IDOCK:   -6.70 KCAL/MOL
REMARK 923 INTER-LIGAND FREE ENERGY PREDICTED BY IDOCK:   -6.01 KCAL/MOL
REMARK 924 INTRA-LIGAND FREE ENERGY PREDICTED BY IDOCK:   -0.69 KCAL/MOL
REMARK 927      BINDING AFFINITY PREDICTED BY RF-SCORE:    0.00 PKD
ROOT
HETATM    1 CL   UNL     1     -10.192   8.625  66.641  1.00  0.00    -0.360 Cl 
HETATM    2  C   UNL     1     -10.346  10.328  66.452  1.00  0.00    -0.195 A  
HETATM    3  C   UNL     1      -9.912  10.939  65.279  1.00  0.00    -0.330 A  
HETATM    4  C   UNL     1     -10.028  12.325  65.136  1.00  0.00    -0.236 A  
HETATM    5  C   UNL     1     -10.577  13.107  66.165  1.00  0.00    -0.288 A  
HETATM    6  C   UNL     1     -11.013  12.475  67.338  1.00  0.00    -0.297 A  
HETATM    7  C   UNL     1     -10.900  11.090  67.478  1.00  0.00    -0.314 A  
ENDROOT
BRANCH   5   8
HETATM    8  C   UNL     1     -10.639  14.611  66.032  1.00  0.00    -0.309 C  
BRANCH   8   9
HETATM    9  O   UNL     1      -9.365  15.097  65.631  1.00  0.00    -0.268 OA 
BRANCH   9  10
HETATM   10  C   UNL     1      -8.961  16.361  66.203  1.00  0.00    -0.332 C  
BRANCH  10  11
HETATM   11  C   UNL     1      -7.998  16.088  67.372  1.00  0.00    -0.184 A  
HETATM   12  C   UNL     1      -6.311  15.547  69.586  1.00  0.00    -0.163 A  
HETATM   13  C   UNL     1      -6.638  16.462  67.370  1.00  0.00    -0.172 A  
HETATM   14  C   UNL     1      -8.462  15.390  68.510  1.00  0.00    -0.163 A  
HETATM   15  C   UNL     1      -5.812  16.221  68.479  1.00  0.00    -0.109 A  
HETATM   16 CL   UNL     1      -5.285  15.224  70.928  1.00  0.00    -0.138 Cl 
HETATM   17 CL   UNL     1      -5.864  17.185  66.003  1.00  0.00     0.026 Cl 
HETATM   18  C   UNL     1      -7.628  15.115  69.600  1.00  0.00    -0.163 A  
ENDBRANCH  10  11
BRANCH  10  19
HETATM   19  C   UNL     1     -10.204  17.223  66.542  1.00  0.00    -0.325 C  
BRANCH  19  20
HETATM   20  N   UNL     1      -9.906  18.615  66.807  1.00  0.00    -0.322 NA 
HETATM   21  C   UNL     1     -10.727  19.513  67.432  1.00  0.00    -0.467 A  
HETATM   22  N   UNL     1      -8.780  20.515  66.882  1.00  0.00    -0.239 NA 
HETATM   23  C   UNL     1     -10.025  20.696  67.422  1.00  0.00    -0.316 A  
HETATM   24  C   UNL     1      -8.727  19.247  66.545  1.00  0.00    -0.345 A  
ENDBRANCH  19  20
ENDBRANCH  10  19
ENDBRANCH   9  10
ENDBRANCH   8   9
ENDBRANCH   5   8
TORSDOF 6
ENDMDL
MODEL      172
REMARK 921   NORMALIZED FREE ENERGY PREDICTED BY IDOCK:   -4.12 KCAL/MOL
REMARK 922        TOTAL FREE ENERGY PREDICTED BY IDOCK:   -6.69 KCAL/MOL
REMARK 923 INTER-LIGAND FREE ENERGY PREDICTED BY IDOCK:   -5.84 KCAL/MOL
REMARK 924 INTRA-LIGAND FREE ENERGY PREDICTED BY IDOCK:   -0.85 KCAL/MOL
REMARK 927      BINDING AFFINITY PREDICTED BY RF-SCORE:    0.00 PKD
ROOT
HETATM    1 CL   UNL     1     -12.363  14.750  64.263  1.00  0.00    -0.472 Cl 
HETATM    2  C   UNL     1     -11.623  13.260  64.701  1.00  0.00    -0.350 A  
HETATM    3  C   UNL     1     -10.924  12.524  63.748  1.00  0.00    -0.496 A  
HETATM    4  C   UNL     1     -10.336  11.308  64.107  1.00  0.00    -0.410 A  
HETATM    5  C   UNL     1     -10.444  10.820  65.419  1.00  0.00    -0.272 A  
HETATM    6  C   UNL     1     -11.147  11.576  66.368  1.00  0.00    -0.328 A  
HETATM    7  C   UNL     1     -11.731  12.793  66.009  1.00  0.00    -0.470 A  
ENDROOT
BRANCH   5   8
HETATM    8  C   UNL     1      -9.862   9.474  65.786  1.00  0.00    -0.293 C  
BRANCH   8   9
HETATM    9  O   UNL     1     -10.263   9.138  67.108  1.00  0.00    -0.220 OA 
BRANCH   9  10
HETATM   10  C   UNL     1      -9.217   8.658  67.983  1.00  0.00    -0.140 C  
BRANCH  10  11
HETATM   11  C   UNL     1      -9.866   7.918  69.166  1.00  0.00    -0.174 A  
HETATM   12  C   UNL     1     -11.007   6.462  71.315  1.00  0.00    -0.271 A  
HETATM   13  C   UNL     1     -10.846   8.490  70.005  1.00  0.00    -0.223 A  
HETATM   14  C   UNL     1      -9.450   6.604  69.482  1.00  0.00    -0.148 A  
HETATM   15  C   UNL     1     -11.432   7.757  71.049  1.00  0.00    -0.298 A  
HETATM   16 CL   UNL     1     -11.704   5.581  72.618  1.00  0.00    -0.310 Cl 
HETATM   17 CL   UNL     1     -11.362  10.134  69.862  1.00  0.00    -0.311 Cl 
HETATM   18  C   UNL     1     -10.006   5.887  70.547  1.00  0.00    -0.243 A  
ENDBRANCH  10  11
BRANCH  10  19
HETATM   19  C   UNL     1      -8.254   9.812  68.359  1.00  0.00    -0.105 C  
BRANCH  19  20
HETATM   20  N   UNL     1      -7.172   9.420  69.238  1.00  0.00    -0.064 NA 
HETATM   21  C   UNL     1      -7.008   9.806  70.540  1.00  0.00    -0.126 A  
HETATM   22  N   UNL     1      -5.336   8.412  69.942  1.00  0.00    -0.026 NA 
HETATM   23  C   UNL     1      -5.836   9.207  70.938  1.00  0.00    -0.046 A  
HETATM   24  C   UNL     1      -6.175   8.540  68.940  1.00  0.00    -0.044 A  
ENDBRANCH  19  20
ENDBRANCH  10  19
ENDBRANCH   9  10
ENDBRANCH   8   9
ENDBRANCH   5   8
TORSDOF 6
ENDMDL
MODEL      173
REMARK 921   NORMALIZED FREE ENERGY PREDICTED BY IDOCK:   -4.10 KCAL/MOL
REMARK 922        TOTAL FREE ENERGY PREDICTED BY IDOCK:   -6.67 KCAL/MOL
REMARK 923 INTER-LIGAND FREE ENERGY PREDICTED BY IDOCK:   -6.49 KCAL/MOL
REMARK 924 INTRA-LIGAND FREE ENERGY PREDICTED BY IDOCK:   -0.18 KCAL/MOL
REMARK 927      BINDING AFFINITY PREDICTED BY RF-SCORE:    0.00 PKD
ROOT
HETATM    1 CL   UNL     1      -5.471  11.931  67.382  1.00  0.00    -0.093 Cl 
HETATM    2  C   UNL     1      -7.054  12.560  67.619  1.00  0.00    -0.139 A  
HETATM    3  C   UNL     1      -7.314  13.397  68.702  1.00  0.00    -0.106 A  
HETATM    4  C   UNL     1      -8.606  13.895  68.898  1.00  0.00     0.098 A  
HETATM    5  C   UNL     1      -9.644  13.558  68.014  1.00  0.00    -0.221 A  
HETATM    6  C   UNL     1      -9.363  12.719  66.927  1.00  0.00    -0.234 A  
HETATM    7  C   UNL     1      -8.072  12.225  66.730  1.00  0.00    -0.025 A  
ENDROOT
BRANCH   5   8
HETATM    8  C   UNL     1     -11.051  14.046  68.267  1.00  0.00    -0.254 C  
BRANCH   8   9
HETATM    9  O   UNL     1     -11.830  12.974  68.783  1.00  0.00    -0.303 OA 
BRANCH   9  10
HETATM   10  C   UNL     1     -12.037  12.973  70.213  1.00  0.00    -0.314 C  
BRANCH  10  11
HETATM   11  C   UNL     1     -12.282  11.526  70.674  1.00  0.00    -0.473 A  
HETATM   12  C   UNL     1     -12.792   8.898  71.612  1.00  0.00    -0.349 A  
HETATM   13  C   UNL     1     -11.707  10.397  70.053  1.00  0.00    -0.286 A  
HETATM   14  C   UNL     1     -13.160  11.276  71.754  1.00  0.00    -0.527 A  
HETATM   15  C   UNL     1     -11.936   9.099  70.537  1.00  0.00    -0.081 A  
HETATM   16 CL   UNL     1     -13.096   7.303  72.180  1.00  0.00    -0.134 Cl 
HETATM   17 CL   UNL     1     -10.734  10.503  68.628  1.00  0.00    -0.226 Cl 
HETATM   18  C   UNL     1     -13.420   9.979  72.213  1.00  0.00    -0.346 A  
ENDBRANCH  10  11
BRANCH  10  19
HETATM   19  C   UNL     1     -13.133  13.998  70.602  1.00  0.00    -0.116 C  
BRANCH  19  20
HETATM   20  N   UNL     1     -12.800  14.815  71.750  1.00  0.00    -0.309 NA 
HETATM   21  C   UNL     1     -12.002  15.927  71.747  1.00  0.00    -0.494 A  
HETATM   22  N   UNL     1     -12.773  15.547  73.835  1.00  0.00    -0.573 NA 
HETATM   23  C   UNL     1     -11.962  16.333  73.061  1.00  0.00    -0.498 A  
HETATM   24  C   UNL     1     -13.284  14.658  73.014  1.00  0.00    -0.485 A  
ENDBRANCH  19  20
ENDBRANCH  10  19
ENDBRANCH   9  10
ENDBRANCH   8   9
ENDBRANCH   5   8
TORSDOF 6
ENDMDL
MODEL      174
REMARK 921   NORMALIZED FREE ENERGY PREDICTED BY IDOCK:   -4.10 KCAL/MOL
REMARK 922        TOTAL FREE ENERGY PREDICTED BY IDOCK:   -6.66 KCAL/MOL
REMARK 923 INTER-LIGAND FREE ENERGY PREDICTED BY IDOCK:   -5.63 KCAL/MOL
REMARK 924 INTRA-LIGAND FREE ENERGY PREDICTED BY IDOCK:   -1.03 KCAL/MOL
REMARK 927      BINDING AFFINITY PREDICTED BY RF-SCORE:    0.00 PKD
ROOT
HETATM    1 CL   UNL     1      -9.559   3.677  66.616  1.00  0.00    -0.203 Cl 
HETATM    2  C   UNL     1      -9.652   5.392  66.535  1.00  0.00    -0.156 A  
HETATM    3  C   UNL     1     -10.689   6.063  67.176  1.00  0.00    -0.409 A  
HETATM    4  C   UNL     1     -10.768   7.456  67.096  1.00  0.00    -0.400 A  
HETATM    5  C   UNL     1      -9.811   8.187  66.373  1.00  0.00    -0.261 A  
HETATM    6  C   UNL     1      -8.770   7.496  65.737  1.00  0.00    -0.142 A  
HETATM    7  C   UNL     1      -8.690   6.104  65.821  1.00  0.00    -0.151 A  
ENDROOT
BRANCH   5   8
HETATM    8  C   UNL     1      -9.937   9.686  66.235  1.00  0.00    -0.264 C  
BRANCH   8   9
HETATM    9  O   UNL     1     -10.928  10.156  67.139  1.00  0.00    -0.235 OA 
BRANCH   9  10
HETATM   10  C   UNL     1     -10.537  11.256  67.991  1.00  0.00    -0.195 C  
BRANCH  10  11
HETATM   11  C   UNL     1      -9.275  10.849  68.772  1.00  0.00    -0.187 A  
HETATM   12  C   UNL     1      -7.015  10.038  70.281  1.00  0.00    -0.150 A  
HETATM   13  C   UNL     1      -7.994  11.387  68.527  1.00  0.00    -0.143 A  
HETATM   14  C   UNL     1      -9.363   9.854  69.773  1.00  0.00    -0.248 A  
HETATM   15  C   UNL     1      -6.882  11.007  69.295  1.00  0.00    -0.110 A  
HETATM   16 CL   UNL     1      -5.642   9.551  71.196  1.00  0.00    -0.058 Cl 
HETATM   17 CL   UNL     1      -7.672  12.499  67.243  1.00  0.00    -0.162 Cl 
HETATM   18  C   UNL     1      -8.247   9.446  70.512  1.00  0.00    -0.221 A  
ENDBRANCH  10  11
BRANCH  10  19
HETATM   19  C   UNL     1     -11.737  11.728  68.850  1.00  0.00    -0.323 C  
BRANCH  19  20
HETATM   20  N   UNL     1     -11.836  13.166  68.991  1.00  0.00    -0.311 NA 
HETATM   21  C   UNL     1     -12.257  13.843  70.103  1.00  0.00    -0.358 A  
HETATM   22  N   UNL     1     -11.695  15.313  68.484  1.00  0.00    -0.346 NA 
HETATM   23  C   UNL     1     -12.207  15.170  69.746  1.00  0.00    -0.289 A  
HETATM   24  C   UNL     1     -11.457  14.091  68.064  1.00  0.00    -0.311 A  
ENDBRANCH  19  20
ENDBRANCH  10  19
ENDBRANCH   9  10
ENDBRANCH   8   9
ENDBRANCH   5   8
TORSDOF 6
ENDMDL
MODEL      175
REMARK 921   NORMALIZED FREE ENERGY PREDICTED BY IDOCK:   -4.09 KCAL/MOL
REMARK 922        TOTAL FREE ENERGY PREDICTED BY IDOCK:   -6.66 KCAL/MOL
REMARK 923 INTER-LIGAND FREE ENERGY PREDICTED BY IDOCK:   -5.57 KCAL/MOL
REMARK 924 INTRA-LIGAND FREE ENERGY PREDICTED BY IDOCK:   -1.09 KCAL/MOL
REMARK 927      BINDING AFFINITY PREDICTED BY RF-SCORE:    0.00 PKD
ROOT
HETATM    1 CL   UNL     1      -7.032   7.952  66.548  1.00  0.00    -0.070 Cl 
HETATM    2  C   UNL     1      -7.045   9.540  67.210  1.00  0.00    -0.086 A  
HETATM    3  C   UNL     1      -7.304   9.726  68.565  1.00  0.00    -0.074 A  
HETATM    4  C   UNL     1      -7.326  11.019  69.095  1.00  0.00    -0.121 A  
HETATM    5  C   UNL     1      -7.091  12.134  68.273  1.00  0.00    -0.084 A  
HETATM    6  C   UNL     1      -6.827  11.928  66.911  1.00  0.00    -0.075 A  
HETATM    7  C   UNL     1      -6.802  10.635  66.384  1.00  0.00    -0.129 A  
ENDROOT
BRANCH   5   8
HETATM    8  C   UNL     1      -7.181  13.532  68.837  1.00  0.00    -0.070 C  
BRANCH   8   9
HETATM    9  O   UNL     1      -8.009  14.323  67.993  1.00  0.00    -0.120 OA 
BRANCH   9  10
HETATM   10  C   UNL     1      -9.420  14.315  68.305  1.00  0.00    -0.209 C  
BRANCH  10  11
HETATM   11  C   UNL     1     -10.189  13.763  67.092  1.00  0.00    -0.244 A  
HETATM   12  C   UNL     1     -11.552  12.818  64.791  1.00  0.00    -0.325 A  
HETATM   13  C   UNL     1     -11.233  12.818  67.190  1.00  0.00    -0.292 A  
HETATM   14  C   UNL     1      -9.828  14.175  65.788  1.00  0.00    -0.297 A  
HETATM   15  C   UNL     1     -11.927  12.374  66.053  1.00  0.00    -0.419 A  
HETATM   16 CL   UNL     1     -12.383  12.244  63.399  1.00  0.00    -0.651 Cl 
HETATM   17 CL   UNL     1     -11.703  12.090  68.685  1.00  0.00    -0.358 Cl 
HETATM   18  C   UNL     1     -10.494  13.703  64.651  1.00  0.00    -0.442 A  
ENDBRANCH  10  11
BRANCH  10  19
HETATM   19  C   UNL     1      -9.870  15.710  68.808  1.00  0.00    -0.213 C  
BRANCH  19  20
HETATM   20  N   UNL     1      -9.311  16.819  68.064  1.00  0.00    -0.225 NA 
HETATM   21  C   UNL     1      -9.902  17.469  67.015  1.00  0.00    -0.295 A  
HETATM   22  N   UNL     1      -7.896  18.405  67.458  1.00  0.00    -0.230 NA 
HETATM   23  C   UNL     1      -8.983  18.415  66.626  1.00  0.00    -0.289 A  
HETATM   24  C   UNL     1      -8.133  17.451  68.329  1.00  0.00    -0.249 A  
ENDBRANCH  19  20
ENDBRANCH  10  19
ENDBRANCH   9  10
ENDBRANCH   8   9
ENDBRANCH   5   8
TORSDOF 6
ENDMDL
MODEL      176
REMARK 921   NORMALIZED FREE ENERGY PREDICTED BY IDOCK:   -4.08 KCAL/MOL
REMARK 922        TOTAL FREE ENERGY PREDICTED BY IDOCK:   -6.64 KCAL/MOL
REMARK 923 INTER-LIGAND FREE ENERGY PREDICTED BY IDOCK:   -6.50 KCAL/MOL
REMARK 924 INTRA-LIGAND FREE ENERGY PREDICTED BY IDOCK:   -0.14 KCAL/MOL
REMARK 927      BINDING AFFINITY PREDICTED BY RF-SCORE:    0.00 PKD
ROOT
HETATM    1 CL   UNL     1      -7.282  21.085  67.263  1.00  0.00    -0.417 Cl 
HETATM    2  C   UNL     1      -8.001  19.588  66.814  1.00  0.00    -0.287 A  
HETATM    3  C   UNL     1      -9.347  19.542  66.462  1.00  0.00    -0.437 A  
HETATM    4  C   UNL     1      -9.930  18.321  66.110  1.00  0.00    -0.313 A  
HETATM    5  C   UNL     1      -9.170  17.140  66.110  1.00  0.00    -0.216 A  
HETATM    6  C   UNL     1      -7.815  17.205  66.463  1.00  0.00    -0.325 A  
HETATM    7  C   UNL     1      -7.233  18.426  66.810  1.00  0.00    -0.231 A  
ENDROOT
BRANCH   5   8
HETATM    8  C   UNL     1      -9.820  15.813  65.793  1.00  0.00    -0.348 C  
BRANCH   8   9
HETATM    9  O   UNL     1     -10.650  15.428  66.881  1.00  0.00    -0.297 OA 
BRANCH   9  10
HETATM   10  C   UNL     1     -10.944  14.017  66.984  1.00  0.00    -0.297 C  
BRANCH  10  11
HETATM   11  C   UNL     1     -11.493  13.730  68.393  1.00  0.00    -0.351 A  
HETATM   12  C   UNL     1     -12.533  13.098  70.955  1.00  0.00    -0.323 A  
HETATM   13  C   UNL     1     -11.585  14.703  69.411  1.00  0.00    -0.305 A  
HETATM   14  C   UNL     1     -11.900  12.419  68.731  1.00  0.00    -0.358 A  
HETATM   15  C   UNL     1     -12.128  14.396  70.669  1.00  0.00    -0.404 A  
HETATM   16 CL   UNL     1     -13.165  12.720  72.509  1.00  0.00    -0.406 Cl 
HETATM   17 CL   UNL     1     -10.994  16.316  69.225  1.00  0.00    -0.301 Cl 
HETATM   18  C   UNL     1     -12.405  12.103  69.997  1.00  0.00    -0.167 A  
ENDBRANCH  10  11
BRANCH  10  19
HETATM   19  C   UNL     1      -9.715  13.175  66.558  1.00  0.00    -0.268 C  
BRANCH  19  20
HETATM   20  N   UNL     1      -8.726  12.998  67.601  1.00  0.00    -0.176 NA 
HETATM   21  C   UNL     1      -8.322  11.806  68.138  1.00  0.00    -0.156 A  
HETATM   22  N   UNL     1      -7.186  13.502  69.104  1.00  0.00    -0.038 NA 
HETATM   23  C   UNL     1      -7.403  12.150  69.101  1.00  0.00     0.069 A  
HETATM   24  C   UNL     1      -7.978  13.983  68.172  1.00  0.00    -0.149 A  
ENDBRANCH  19  20
ENDBRANCH  10  19
ENDBRANCH   9  10
ENDBRANCH   8   9
ENDBRANCH   5   8
TORSDOF 6
ENDMDL
MODEL      177
REMARK 921   NORMALIZED FREE ENERGY PREDICTED BY IDOCK:   -4.07 KCAL/MOL
REMARK 922        TOTAL FREE ENERGY PREDICTED BY IDOCK:   -6.63 KCAL/MOL
REMARK 923 INTER-LIGAND FREE ENERGY PREDICTED BY IDOCK:   -6.02 KCAL/MOL
REMARK 924 INTRA-LIGAND FREE ENERGY PREDICTED BY IDOCK:   -0.61 KCAL/MOL
REMARK 927      BINDING AFFINITY PREDICTED BY RF-SCORE:    0.00 PKD
ROOT
HETATM    1 CL   UNL     1     -11.690   5.152  72.616  1.00  0.00    -0.197 Cl 
HETATM    2  C   UNL     1     -10.941   6.500  71.854  1.00  0.00    -0.250 A  
HETATM    3  C   UNL     1     -11.125   6.719  70.492  1.00  0.00    -0.346 A  
HETATM    4  C   UNL     1     -10.503   7.809  69.875  1.00  0.00    -0.232 A  
HETATM    5  C   UNL     1      -9.693   8.684  70.617  1.00  0.00    -0.221 A  
HETATM    6  C   UNL     1      -9.522   8.451  71.989  1.00  0.00    -0.339 A  
HETATM    7  C   UNL     1     -10.147   7.364  72.604  1.00  0.00    -0.255 A  
ENDROOT
BRANCH   5   8
HETATM    8  C   UNL     1      -8.971   9.822  69.934  1.00  0.00    -0.229 C  
BRANCH   8   9
HETATM    9  O   UNL     1      -9.829  10.401  68.960  1.00  0.00    -0.192 OA 
BRANCH   9  10
HETATM   10  C   UNL     1      -9.472  11.727  68.510  1.00  0.00    -0.163 C  
BRANCH  10  11
HETATM   11  C   UNL     1     -10.214  12.017  67.193  1.00  0.00    -0.221 A  
HETATM   12  C   UNL     1     -11.505  12.490  64.713  1.00  0.00    -0.323 A  
HETATM   13  C   UNL     1     -11.304  12.907  67.088  1.00  0.00    -0.306 A  
HETATM   14  C   UNL     1      -9.832  11.341  66.012  1.00  0.00    -0.267 A  
HETATM   15  C   UNL     1     -11.923  13.163  65.854  1.00  0.00    -0.479 A  
HETATM   16 CL   UNL     1     -12.289  12.782  63.210  1.00  0.00    -0.546 Cl 
HETATM   17 CL   UNL     1     -12.003  13.702  68.455  1.00  0.00    -0.402 Cl 
HETATM   18  C   UNL     1     -10.473  11.566  64.789  1.00  0.00    -0.354 A  
ENDBRANCH  10  11
BRANCH  10  19
HETATM   19  C   UNL     1      -7.931  11.886  68.462  1.00  0.00    -0.137 C  
BRANCH  19  20
HETATM   20  N   UNL     1      -7.464  13.232  68.721  1.00  0.00    -0.089 NA 
HETATM   21  C   UNL     1      -6.411  13.583  69.520  1.00  0.00    -0.089 A  
HETATM   22  N   UNL     1      -7.329  15.435  68.612  1.00  0.00    -0.122 NA 
HETATM   23  C   UNL     1      -6.379  14.957  69.474  1.00  0.00    -0.131 A  
HETATM   24  C   UNL     1      -7.950  14.372  68.154  1.00  0.00    -0.136 A  
ENDBRANCH  19  20
ENDBRANCH  10  19
ENDBRANCH   9  10
ENDBRANCH   8   9
ENDBRANCH   5   8
TORSDOF 6
ENDMDL
MODEL      178
REMARK 921   NORMALIZED FREE ENERGY PREDICTED BY IDOCK:   -4.07 KCAL/MOL
REMARK 922        TOTAL FREE ENERGY PREDICTED BY IDOCK:   -6.62 KCAL/MOL
REMARK 923 INTER-LIGAND FREE ENERGY PREDICTED BY IDOCK:   -5.88 KCAL/MOL
REMARK 924 INTRA-LIGAND FREE ENERGY PREDICTED BY IDOCK:   -0.74 KCAL/MOL
REMARK 927      BINDING AFFINITY PREDICTED BY RF-SCORE:    0.00 PKD
ROOT
HETATM    1 CL   UNL     1     -11.157   5.479  73.099  1.00  0.00    -0.332 Cl 
HETATM    2  C   UNL     1     -10.979   6.434  71.680  1.00  0.00    -0.257 A  
HETATM    3  C   UNL     1     -11.360   5.920  70.444  1.00  0.00    -0.219 A  
HETATM    4  C   UNL     1     -11.201   6.695  69.291  1.00  0.00    -0.326 A  
HETATM    5  C   UNL     1     -10.658   7.988  69.368  1.00  0.00    -0.210 A  
HETATM    6  C   UNL     1     -10.282   8.492  70.622  1.00  0.00    -0.230 A  
HETATM    7  C   UNL     1     -10.446   7.718  71.773  1.00  0.00    -0.259 A  
ENDROOT
BRANCH   5   8
HETATM    8  C   UNL     1     -10.426   8.797  68.113  1.00  0.00    -0.191 C  
BRANCH   8   9
HETATM    9  O   UNL     1     -10.608  10.176  68.407  1.00  0.00    -0.193 OA 
BRANCH   9  10
HETATM   10  C   UNL     1     -10.616  11.069  67.271  1.00  0.00    -0.245 C  
BRANCH  10  11
HETATM   11  C   UNL     1      -9.391  11.996  67.364  1.00  0.00    -0.178 A  
HETATM   12  C   UNL     1      -7.200  13.782  67.580  1.00  0.00    -0.173 A  
HETATM   13  C   UNL     1      -8.124  11.675  66.834  1.00  0.00    -0.164 A  
HETATM   14  C   UNL     1      -9.498  13.229  68.048  1.00  0.00    -0.219 A  
HETATM   15  C   UNL     1      -7.048  12.573  66.915  1.00  0.00     0.159 A  
HETATM   16 CL   UNL     1      -5.869  14.865  67.706  1.00  0.00    -0.142 Cl 
HETATM   17 CL   UNL     1      -7.771  10.149  66.102  1.00  0.00    -0.108 Cl 
HETATM   18  C   UNL     1      -8.415  14.108  68.163  1.00  0.00    -0.173 A  
ENDBRANCH  10  11
BRANCH  10  19
HETATM   19  C   UNL     1     -11.989  11.779  67.151  1.00  0.00     0.107 C  
BRANCH  19  20
HETATM   20  N   UNL     1     -12.162  12.532  65.926  1.00  0.00    -0.624 NA 
HETATM   21  C   UNL     1     -11.822  12.118  64.667  1.00  0.00    -0.328 A  
HETATM   22  N   UNL     1     -12.742  14.177  64.569  1.00  0.00    -0.654 NA 
HETATM   23  C   UNL     1     -12.146  13.176  63.851  1.00  0.00    -0.470 A  
HETATM   24  C   UNL     1     -12.761  13.751  65.812  1.00  0.00    -0.446 A  
ENDBRANCH  19  20
ENDBRANCH  10  19
ENDBRANCH   9  10
ENDBRANCH   8   9
ENDBRANCH   5   8
TORSDOF 6
ENDMDL
MODEL      179
REMARK 921   NORMALIZED FREE ENERGY PREDICTED BY IDOCK:   -4.06 KCAL/MOL
REMARK 922        TOTAL FREE ENERGY PREDICTED BY IDOCK:   -6.61 KCAL/MOL
REMARK 923 INTER-LIGAND FREE ENERGY PREDICTED BY IDOCK:   -5.53 KCAL/MOL
REMARK 924 INTRA-LIGAND FREE ENERGY PREDICTED BY IDOCK:   -1.08 KCAL/MOL
REMARK 927      BINDING AFFINITY PREDICTED BY RF-SCORE:    0.00 PKD
ROOT
HETATM    1 CL   UNL     1     -12.160  11.641  69.006  1.00  0.00    -0.343 Cl 
HETATM    2  C   UNL     1     -11.779  10.445  70.182  1.00  0.00    -0.312 A  
HETATM    3  C   UNL     1     -12.763   9.993  71.057  1.00  0.00    -0.455 A  
HETATM    4  C   UNL     1     -12.445   9.031  72.020  1.00  0.00    -0.460 A  
HETATM    5  C   UNL     1     -11.142   8.515  72.113  1.00  0.00    -0.436 A  
HETATM    6  C   UNL     1     -10.164   8.978  71.221  1.00  0.00    -0.384 A  
HETATM    7  C   UNL     1     -10.485   9.937  70.257  1.00  0.00    -0.348 A  
ENDROOT
BRANCH   5   8
HETATM    8  C   UNL     1     -10.787   7.524  73.197  1.00  0.00    -0.395 C  
BRANCH   8   9
HETATM    9  O   UNL     1     -10.647   6.232  72.619  1.00  0.00    -0.200 OA 
BRANCH   9  10
HETATM   10  C   UNL     1      -9.293   5.795  72.368  1.00  0.00    -0.143 C  
BRANCH  10  11
HETATM   11  C   UNL     1      -9.118   5.578  70.854  1.00  0.00    -0.164 A  
HETATM   12  C   UNL     1      -8.906   5.159  68.058  1.00  0.00    -0.102 A  
HETATM   13  C   UNL     1      -7.865   5.545  70.207  1.00  0.00    -0.093 A  
HETATM   14  C   UNL     1     -10.259   5.439  70.032  1.00  0.00    -0.349 A  
HETATM   15  C   UNL     1      -7.760   5.307  68.828  1.00  0.00    -0.083 A  
HETATM   16 CL   UNL     1      -8.773   4.902  66.362  1.00  0.00    -0.113 Cl 
HETATM   17 CL   UNL     1      -6.375   5.849  71.030  1.00  0.00    -0.038 Cl 
HETATM   18  C   UNL     1     -10.157   5.241  68.650  1.00  0.00    -0.238 A  
ENDBRANCH  10  11
BRANCH  10  19
HETATM   19  C   UNL     1      -8.940   4.582  73.266  1.00  0.00    -0.115 C  
BRANCH  19  20
HETATM   20  N   UNL     1      -9.792   3.428  73.067  1.00  0.00    -0.130 NA 
HETATM   21  C   UNL     1      -9.545   2.375  72.229  1.00  0.00    -0.112 A  
HETATM   22  N   UNL     1     -11.500   2.046  73.310  1.00  0.00    -0.153 NA 
HETATM   23  C   UNL     1     -10.642   1.557  72.362  1.00  0.00    -0.146 A  
HETATM   24  C   UNL     1     -10.949   3.161  73.736  1.00  0.00    -0.220 A  
ENDBRANCH  19  20
ENDBRANCH  10  19
ENDBRANCH   9  10
ENDBRANCH   8   9
ENDBRANCH   5   8
TORSDOF 6
ENDMDL
MODEL      180
REMARK 921   NORMALIZED FREE ENERGY PREDICTED BY IDOCK:   -4.06 KCAL/MOL
REMARK 922        TOTAL FREE ENERGY PREDICTED BY IDOCK:   -6.61 KCAL/MOL
REMARK 923 INTER-LIGAND FREE ENERGY PREDICTED BY IDOCK:   -6.10 KCAL/MOL
REMARK 924 INTRA-LIGAND FREE ENERGY PREDICTED BY IDOCK:   -0.51 KCAL/MOL
REMARK 927      BINDING AFFINITY PREDICTED BY RF-SCORE:    0.00 PKD
ROOT
HETATM    1 CL   UNL     1      -6.322   8.786  66.838  1.00  0.00    -0.059 Cl 
HETATM    2  C   UNL     1      -6.733  10.429  67.136  1.00  0.00    -0.078 A  
HETATM    3  C   UNL     1      -5.730  11.389  67.240  1.00  0.00    -0.079 A  
HETATM    4  C   UNL     1      -6.069  12.721  67.496  1.00  0.00    -0.152 A  
HETATM    5  C   UNL     1      -7.413  13.100  67.650  1.00  0.00    -0.164 A  
HETATM    6  C   UNL     1      -8.411  12.122  67.539  1.00  0.00    -0.166 A  
HETATM    7  C   UNL     1      -8.070  10.792  67.279  1.00  0.00    -0.117 A  
ENDROOT
BRANCH   5   8
HETATM    8  C   UNL     1      -7.770  14.528  67.991  1.00  0.00    -0.135 C  
BRANCH   8   9
HETATM    9  O   UNL     1      -9.134  14.759  67.662  1.00  0.00    -0.178 OA 
BRANCH   9  10
HETATM   10  C   UNL     1      -9.377  15.703  66.595  1.00  0.00    -0.265 C  
BRANCH  10  11
HETATM   11  C   UNL     1      -8.712  17.042  66.961  1.00  0.00    -0.240 A  
HETATM   12  C   UNL     1      -7.414  19.493  67.552  1.00  0.00    -0.244 A  
HETATM   13  C   UNL     1      -9.073  17.814  68.085  1.00  0.00    -0.274 A  
HETATM   14  C   UNL     1      -7.707  17.575  66.122  1.00  0.00    -0.304 A  
HETATM   15  C   UNL     1      -8.409  19.012  68.394  1.00  0.00    -0.383 A  
HETATM   16 CL   UNL     1      -6.627  20.978  67.916  1.00  0.00    -0.371 Cl 
HETATM   17 CL   UNL     1     -10.382  17.393  69.133  1.00  0.00    -0.328 Cl 
HETATM   18  C   UNL     1      -7.071  18.789  66.408  1.00  0.00    -0.258 A  
ENDBRANCH  10  11
BRANCH  10  19
HETATM   19  C   UNL     1     -10.890  15.771  66.267  1.00  0.00    -0.232 C  
BRANCH  19  20
HETATM   20  N   UNL     1     -11.356  14.716  65.391  1.00  0.00    -0.335 NA 
HETATM   21  C   UNL     1     -11.215  13.371  65.599  1.00  0.00    -0.292 A  
HETATM   22  N   UNL     1     -12.328  13.731  63.668  1.00  0.00    -0.729 NA 
HETATM   23  C   UNL     1     -11.782  12.784  64.493  1.00  0.00    -0.366 A  
HETATM   24  C   UNL     1     -12.078  14.883  64.248  1.00  0.00    -0.353 A  
ENDBRANCH  19  20
ENDBRANCH  10  19
ENDBRANCH   9  10
ENDBRANCH   8   9
ENDBRANCH   5   8
TORSDOF 6
ENDMDL
MODEL      181
REMARK 921   NORMALIZED FREE ENERGY PREDICTED BY IDOCK:   -4.06 KCAL/MOL
REMARK 922        TOTAL FREE ENERGY PREDICTED BY IDOCK:   -6.61 KCAL/MOL
REMARK 923 INTER-LIGAND FREE ENERGY PREDICTED BY IDOCK:   -5.61 KCAL/MOL
REMARK 924 INTRA-LIGAND FREE ENERGY PREDICTED BY IDOCK:   -1.01 KCAL/MOL
REMARK 927      BINDING AFFINITY PREDICTED BY RF-SCORE:    0.00 PKD
ROOT
HETATM    1 CL   UNL     1      -9.598   7.808  73.566  1.00  0.00    -0.349 Cl 
HETATM    2  C   UNL     1      -9.866   8.199  71.913  1.00  0.00    -0.212 A  
HETATM    3  C   UNL     1     -10.706   9.256  71.576  1.00  0.00    -0.425 A  
HETATM    4  C   UNL     1     -10.931   9.561  70.230  1.00  0.00    -0.317 A  
HETATM    5  C   UNL     1     -10.317   8.810  69.214  1.00  0.00    -0.221 A  
HETATM    6  C   UNL     1      -9.470   7.752  69.571  1.00  0.00    -0.160 A  
HETATM    7  C   UNL     1      -9.244   7.450  70.916  1.00  0.00    -0.154 A  
ENDROOT
BRANCH   5   8
HETATM    8  C   UNL     1     -10.614   9.102  67.762  1.00  0.00    -0.227 C  
BRANCH   8   9
HETATM    9  O   UNL     1      -9.413   9.496  67.110  1.00  0.00    -0.142 OA 
BRANCH   9  10
HETATM   10  C   UNL     1      -9.310  10.895  66.765  1.00  0.00    -0.165 C  
BRANCH  10  11
HETATM   11  C   UNL     1      -8.300  11.563  67.716  1.00  0.00    -0.136 A  
HETATM   12  C   UNL     1      -6.419  12.695  69.511  1.00  0.00    -0.078 A  
HETATM   13  C   UNL     1      -8.109  12.959  67.800  1.00  0.00    -0.166 A  
HETATM   14  C   UNL     1      -7.475  10.760  68.536  1.00  0.00    -0.100 A  
HETATM   15  C   UNL     1      -7.199  13.519  68.711  1.00  0.00    -0.096 A  
HETATM   16 CL   UNL     1      -5.282  13.385  70.602  1.00  0.00    -0.117 Cl 
HETATM   17 CL   UNL     1      -8.919  14.082  66.765  1.00  0.00    -0.244 Cl 
HETATM   18  C   UNL     1      -6.540  11.317  69.416  1.00  0.00    -0.116 A  
ENDBRANCH  10  11
BRANCH  10  19
HETATM   19  C   UNL     1     -10.716  11.545  66.713  1.00  0.00    -0.270 C  
BRANCH  19  20
HETATM   20  N   UNL     1     -11.161  11.889  65.379  1.00  0.00    -0.314 NA 
HETATM   21  C   UNL     1     -12.336  12.510  65.054  1.00  0.00    -0.453 A  
HETATM   22  N   UNL     1     -11.141  12.111  63.180  1.00  0.00    -0.298 NA 
HETATM   23  C   UNL     1     -12.321  12.591  63.681  1.00  0.00    -0.522 A  
HETATM   24  C   UNL     1     -10.452  11.719  64.228  1.00  0.00    -0.325 A  
ENDBRANCH  19  20
ENDBRANCH  10  19
ENDBRANCH   9  10
ENDBRANCH   8   9
ENDBRANCH   5   8
TORSDOF 6
ENDMDL
MODEL      182
REMARK 921   NORMALIZED FREE ENERGY PREDICTED BY IDOCK:   -4.06 KCAL/MOL
REMARK 922        TOTAL FREE ENERGY PREDICTED BY IDOCK:   -6.61 KCAL/MOL
REMARK 923 INTER-LIGAND FREE ENERGY PREDICTED BY IDOCK:   -5.55 KCAL/MOL
REMARK 924 INTRA-LIGAND FREE ENERGY PREDICTED BY IDOCK:   -1.06 KCAL/MOL
REMARK 927      BINDING AFFINITY PREDICTED BY RF-SCORE:    0.00 PKD
ROOT
HETATM    1 CL   UNL     1     -14.142   8.855  72.808  1.00  0.00    -0.346 Cl 
HETATM    2  C   UNL     1     -12.782   8.395  71.861  1.00  0.00    -0.355 A  
HETATM    3  C   UNL     1     -11.741   9.297  71.656  1.00  0.00    -0.462 A  
HETATM    4  C   UNL     1     -10.644   8.923  70.874  1.00  0.00    -0.295 A  
HETATM    5  C   UNL     1     -10.583   7.647  70.291  1.00  0.00    -0.233 A  
HETATM    6  C   UNL     1     -11.638   6.750  70.511  1.00  0.00    -0.426 A  
HETATM    7  C   UNL     1     -12.731   7.123  71.296  1.00  0.00    -0.412 A  
ENDROOT
BRANCH   5   8
HETATM    8  C   UNL     1      -9.427   7.270  69.394  1.00  0.00    -0.154 C  
BRANCH   8   9
HETATM    9  O   UNL     1      -9.811   7.454  68.037  1.00  0.00    -0.141 OA 
BRANCH   9  10
HETATM   10  C   UNL     1      -8.904   8.229  67.222  1.00  0.00    -0.130 C  
BRANCH  10  11
HETATM   11  C   UNL     1      -9.451   9.662  67.104  1.00  0.00    -0.185 A  
HETATM   12  C   UNL     1     -10.559  12.265  66.911  1.00  0.00    -0.224 A  
HETATM   13  C   UNL     1      -8.682  10.760  66.663  1.00  0.00    -0.147 A  
HETATM   14  C   UNL     1     -10.783   9.937  67.489  1.00  0.00    -0.333 A  
HETATM   15  C   UNL     1      -9.240  12.042  66.539  1.00  0.00    -0.216 A  
HETATM   16 CL   UNL     1     -11.229  13.845  66.790  1.00  0.00    -0.317 Cl 
HETATM   17 CL   UNL     1      -6.996  10.640  66.298  1.00  0.00    -0.127 Cl 
HETATM   18  C   UNL     1     -11.329  11.222  67.402  1.00  0.00    -0.349 A  
ENDBRANCH  10  11
BRANCH  10  19
HETATM   19  C   UNL     1      -8.626   7.502  65.881  1.00  0.00    -0.151 C  
BRANCH  19  20
HETATM   20  N   UNL     1      -8.527   6.062  65.996  1.00  0.00    -0.133 NA 
HETATM   21  C   UNL     1      -9.391   5.147  65.461  1.00  0.00    -0.113 A  
HETATM   22  N   UNL     1      -7.727   4.078  66.550  1.00  0.00    -0.089 NA 
HETATM   23  C   UNL     1      -8.900   3.926  65.861  1.00  0.00    -0.125 A  
HETATM   24  C   UNL     1      -7.514   5.374  66.593  1.00  0.00    -0.087 A  
ENDBRANCH  19  20
ENDBRANCH  10  19
ENDBRANCH   9  10
ENDBRANCH   8   9
ENDBRANCH   5   8
TORSDOF 6
ENDMDL
MODEL      183
REMARK 921   NORMALIZED FREE ENERGY PREDICTED BY IDOCK:   -4.06 KCAL/MOL
REMARK 922        TOTAL FREE ENERGY PREDICTED BY IDOCK:   -6.61 KCAL/MOL
REMARK 923 INTER-LIGAND FREE ENERGY PREDICTED BY IDOCK:   -5.73 KCAL/MOL
REMARK 924 INTRA-LIGAND FREE ENERGY PREDICTED BY IDOCK:   -0.88 KCAL/MOL
REMARK 927      BINDING AFFINITY PREDICTED BY RF-SCORE:    0.00 PKD
ROOT
HETATM    1 CL   UNL     1      -7.494   3.000  72.716  1.00  0.00    -0.048 Cl 
HETATM    2  C   UNL     1      -8.516   4.075  71.844  1.00  0.00    -0.099 A  
HETATM    3  C   UNL     1      -8.705   5.376  72.300  1.00  0.00    -0.129 A  
HETATM    4  C   UNL     1      -9.548   6.241  71.595  1.00  0.00    -0.167 A  
HETATM    5  C   UNL     1     -10.206   5.809  70.432  1.00  0.00    -0.288 A  
HETATM    6  C   UNL     1     -10.000   4.496  69.985  1.00  0.00    -0.280 A  
HETATM    7  C   UNL     1      -9.156   3.634  70.688  1.00  0.00    -0.184 A  
ENDROOT
BRANCH   5   8
HETATM    8  C   UNL     1     -11.166   6.726  69.710  1.00  0.00    -0.315 C  
BRANCH   8   9
HETATM    9  O   UNL     1     -10.496   7.936  69.380  1.00  0.00    -0.218 OA 
BRANCH   9  10
HETATM   10  C   UNL     1     -10.298   8.185  67.971  1.00  0.00    -0.211 C  
BRANCH  10  11
HETATM   11  C   UNL     1     -10.700   9.639  67.666  1.00  0.00    -0.324 A  
HETATM   12  C   UNL     1     -11.496  12.321  67.203  1.00  0.00    -0.352 A  
HETATM   13  C   UNL     1     -10.448  10.280  66.435  1.00  0.00    -0.163 A  
HETATM   14  C   UNL     1     -11.325  10.416  68.669  1.00  0.00    -0.277 A  
HETATM   15  C   UNL     1     -10.869  11.598  66.197  1.00  0.00    -0.343 A  
HETATM   16 CL   UNL     1     -11.979  13.947  66.917  1.00  0.00    -0.450 Cl 
HETATM   17 CL   UNL     1      -9.560   9.535  65.153  1.00  0.00    -0.328 Cl 
HETATM   18  C   UNL     1     -11.710  11.742  68.445  1.00  0.00    -0.389 A  
ENDBRANCH  10  11
BRANCH  10  19
HETATM   19  C   UNL     1     -11.008   7.099  67.124  1.00  0.00    -0.272 C  
BRANCH  19  20
HETATM   20  N   UNL     1     -10.119   6.092  66.583  1.00  0.00    -0.178 NA 
HETATM   21  C   UNL     1     -10.485   4.865  66.101  1.00  0.00    -0.302 A  
HETATM   22  N   UNL     1      -8.251   5.125  65.906  1.00  0.00    -0.113 NA 
HETATM   23  C   UNL     1      -9.303   4.266  65.733  1.00  0.00    -0.164 A  
HETATM   24  C   UNL     1      -8.776   6.226  66.394  1.00  0.00    -0.137 A  
ENDBRANCH  19  20
ENDBRANCH  10  19
ENDBRANCH   9  10
ENDBRANCH   8   9
ENDBRANCH   5   8
TORSDOF 6
ENDMDL
MODEL      184
REMARK 921   NORMALIZED FREE ENERGY PREDICTED BY IDOCK:   -4.05 KCAL/MOL
REMARK 922        TOTAL FREE ENERGY PREDICTED BY IDOCK:   -6.60 KCAL/MOL
REMARK 923 INTER-LIGAND FREE ENERGY PREDICTED BY IDOCK:   -6.25 KCAL/MOL
REMARK 924 INTRA-LIGAND FREE ENERGY PREDICTED BY IDOCK:   -0.35 KCAL/MOL
REMARK 927      BINDING AFFINITY PREDICTED BY RF-SCORE:    0.00 PKD
ROOT
HETATM    1 CL   UNL     1      -6.650  19.144  66.971  1.00  0.00    -0.196 Cl 
HETATM    2  C   UNL     1      -7.414  17.659  67.379  1.00  0.00    -0.194 A  
HETATM    3  C   UNL     1      -7.860  16.807  66.372  1.00  0.00    -0.353 A  
HETATM    4  C   UNL     1      -8.493  15.607  66.708  1.00  0.00    -0.307 A  
HETATM    5  C   UNL     1      -8.684  15.252  68.054  1.00  0.00    -0.160 A  
HETATM    6  C   UNL     1      -8.225  16.119  69.056  1.00  0.00    -0.244 A  
HETATM    7  C   UNL     1      -7.590  17.316  68.717  1.00  0.00    -0.256 A  
ENDROOT
BRANCH   5   8
HETATM    8  C   UNL     1      -9.427  13.986  68.413  1.00  0.00    -0.213 C  
BRANCH   8   9
HETATM    9  O   UNL     1     -10.120  13.511  67.266  1.00  0.00    -0.231 OA 
BRANCH   9  10
HETATM   10  C   UNL     1     -11.539  13.292  67.431  1.00  0.00    -0.353 C  
BRANCH  10  11
HETATM   11  C   UNL     1     -11.948  13.748  68.842  1.00  0.00    -0.394 A  
HETATM   12  C   UNL     1     -12.716  14.481  71.472  1.00  0.00    -0.339 A  
HETATM   13  C   UNL     1     -12.100  15.100  69.215  1.00  0.00    -0.244 A  
HETATM   14  C   UNL     1     -12.151  12.784  69.857  1.00  0.00    -0.329 A  
HETATM   15  C   UNL     1     -12.510  15.461  70.509  1.00  0.00    -0.468 A  
HETATM   16 CL   UNL     1     -13.186  14.930  73.065  1.00  0.00    -0.569 Cl 
HETATM   17 CL   UNL     1     -11.744  16.414  68.150  1.00  0.00    -0.009 Cl 
HETATM   18  C   UNL     1     -12.522  13.145  71.157  1.00  0.00    -0.378 A  
ENDBRANCH  10  11
BRANCH  10  19
HETATM   19  C   UNL     1     -11.908  11.832  67.063  1.00  0.00    -0.044 C  
BRANCH  19  20
HETATM   20  N   UNL     1     -10.769  10.945  66.941  1.00  0.00    -0.265 NA 
HETATM   21  C   UNL     1     -10.127  10.306  67.966  1.00  0.00    -0.162 A  
HETATM   22  N   UNL     1      -9.163   9.753  66.001  1.00  0.00    -0.167 NA 
HETATM   23  C   UNL     1      -9.105   9.613  67.362  1.00  0.00    -0.130 A  
HETATM   24  C   UNL     1     -10.190  10.540  65.775  1.00  0.00    -0.243 A  
ENDBRANCH  19  20
ENDBRANCH  10  19
ENDBRANCH   9  10
ENDBRANCH   8   9
ENDBRANCH   5   8
TORSDOF 6
ENDMDL
MODEL      185
REMARK 921   NORMALIZED FREE ENERGY PREDICTED BY IDOCK:   -4.02 KCAL/MOL
REMARK 922        TOTAL FREE ENERGY PREDICTED BY IDOCK:   -6.56 KCAL/MOL
REMARK 923 INTER-LIGAND FREE ENERGY PREDICTED BY IDOCK:   -5.54 KCAL/MOL
REMARK 924 INTRA-LIGAND FREE ENERGY PREDICTED BY IDOCK:   -1.02 KCAL/MOL
REMARK 927      BINDING AFFINITY PREDICTED BY RF-SCORE:    0.00 PKD
ROOT
HETATM    1 CL   UNL     1      -9.175   7.742  73.911  1.00  0.00    -0.318 Cl 
HETATM    2  C   UNL     1      -9.566   8.249  72.314  1.00  0.00    -0.285 A  
HETATM    3  C   UNL     1     -10.744   8.952  72.078  1.00  0.00    -0.389 A  
HETATM    4  C   UNL     1     -11.064   9.351  70.777  1.00  0.00    -0.365 A  
HETATM    5  C   UNL     1     -10.209   9.047  69.705  1.00  0.00    -0.211 A  
HETATM    6  C   UNL     1      -9.025   8.342  69.961  1.00  0.00    -0.138 A  
HETATM    7  C   UNL     1      -8.704   7.948  71.263  1.00  0.00    -0.149 A  
ENDROOT
BRANCH   5   8
HETATM    8  C   UNL     1     -10.591   9.422  68.292  1.00  0.00    -0.210 C  
BRANCH   8   9
HETATM    9  O   UNL     1      -9.513  10.129  67.690  1.00  0.00    -0.146 OA 
BRANCH   9  10
HETATM   10  C   UNL     1      -9.339  11.499  68.114  1.00  0.00    -0.185 C  
BRANCH  10  11
HETATM   11  C   UNL     1     -10.169  12.409  67.191  1.00  0.00    -0.226 A  
HETATM   12  C   UNL     1     -11.620  14.071  65.410  1.00  0.00    -0.328 A  
HETATM   13  C   UNL     1     -11.316  13.114  67.611  1.00  0.00    -0.298 A  
HETATM   14  C   UNL     1      -9.810  12.537  65.829  1.00  0.00    -0.244 A  
HETATM   15  C   UNL     1     -12.016  13.960  66.736  1.00  0.00    -0.472 A  
HETATM   16 CL   UNL     1     -12.501  15.083  64.333  1.00  0.00    -0.329 Cl 
HETATM   17 CL   UNL     1     -11.988  12.956  69.196  1.00  0.00    -0.333 Cl 
HETATM   18  C   UNL     1     -10.530  13.350  64.947  1.00  0.00    -0.404 A  
ENDBRANCH  10  11
BRANCH  10  19
HETATM   19  C   UNL     1      -7.832  11.845  68.222  1.00  0.00    -0.141 C  
BRANCH  19  20
HETATM   20  N   UNL     1      -6.954  10.866  67.616  1.00  0.00    -0.080 NA 
HETATM   21  C   UNL     1      -6.606  10.800  66.295  1.00  0.00    -0.132 A  
HETATM   22  N   UNL     1      -5.573   9.150  67.439  1.00  0.00    -0.041 NA 
HETATM   23  C   UNL     1      -5.788   9.698  66.203  1.00  0.00    -0.061 A  
HETATM   24  C   UNL     1      -6.266   9.890  68.273  1.00  0.00    -0.050 A  
ENDBRANCH  19  20
ENDBRANCH  10  19
ENDBRANCH   9  10
ENDBRANCH   8   9
ENDBRANCH   5   8
TORSDOF 6
ENDMDL
MODEL      186
REMARK 921   NORMALIZED FREE ENERGY PREDICTED BY IDOCK:   -4.01 KCAL/MOL
REMARK 922        TOTAL FREE ENERGY PREDICTED BY IDOCK:   -6.54 KCAL/MOL
REMARK 923 INTER-LIGAND FREE ENERGY PREDICTED BY IDOCK:   -5.28 KCAL/MOL
REMARK 924 INTRA-LIGAND FREE ENERGY PREDICTED BY IDOCK:   -1.26 KCAL/MOL
REMARK 927      BINDING AFFINITY PREDICTED BY RF-SCORE:    0.00 PKD
ROOT
HETATM    1 CL   UNL     1      -8.534   3.582  68.594  1.00  0.00    -0.094 Cl 
HETATM    2  C   UNL     1      -9.023   5.081  67.907  1.00  0.00    -0.108 A  
HETATM    3  C   UNL     1      -8.068   5.960  67.404  1.00  0.00    -0.102 A  
HETATM    4  C   UNL     1      -8.469   7.183  66.859  1.00  0.00    -0.123 A  
HETATM    5  C   UNL     1      -9.828   7.535  66.815  1.00  0.00    -0.295 A  
HETATM    6  C   UNL     1     -10.778   6.636  67.322  1.00  0.00    -0.427 A  
HETATM    7  C   UNL     1     -10.375   5.413  67.863  1.00  0.00    -0.222 A  
ENDROOT
BRANCH   5   8
HETATM    8  C   UNL     1     -10.252   8.885  66.285  1.00  0.00    -0.133 C  
BRANCH   8   9
HETATM    9  O   UNL     1      -9.494   9.899  66.932  1.00  0.00    -0.154 OA 
BRANCH   9  10
HETATM   10  C   UNL     1     -10.199  10.684  67.918  1.00  0.00    -0.177 C  
BRANCH  10  11
HETATM   11  C   UNL     1     -10.344  12.122  67.391  1.00  0.00    -0.220 A  
HETATM   12  C   UNL     1     -10.539  14.748  66.338  1.00  0.00    -0.300 A  
HETATM   13  C   UNL     1     -11.086  13.127  68.048  1.00  0.00    -0.263 A  
HETATM   14  C   UNL     1      -9.746  12.480  66.161  1.00  0.00    -0.259 A  
HETATM   15  C   UNL     1     -11.156  14.434  67.542  1.00  0.00    -0.312 A  
HETATM   16 CL   UNL     1     -10.658  16.343  65.704  1.00  0.00    -0.366 Cl 
HETATM   17 CL   UNL     1     -12.007  12.829  69.480  1.00  0.00    -0.360 Cl 
HETATM   18  C   UNL     1      -9.849  13.773  65.635  1.00  0.00    -0.216 A  
ENDBRANCH  10  11
BRANCH  10  19
HETATM   19  C   UNL     1      -9.523  10.542  69.306  1.00  0.00    -0.173 C  
BRANCH  19  20
HETATM   20  N   UNL     1      -9.830   9.304  69.992  1.00  0.00    -0.191 NA 
HETATM   21  C   UNL     1     -11.076   8.858  70.339  1.00  0.00    -0.239 A  
HETATM   22  N   UNL     1      -9.522   7.346  70.969  1.00  0.00    -0.158 NA 
HETATM   23  C   UNL     1     -10.853   7.666  70.987  1.00  0.00    -0.242 A  
HETATM   24  C   UNL     1      -8.934   8.338  70.341  1.00  0.00    -0.146 A  
ENDBRANCH  19  20
ENDBRANCH  10  19
ENDBRANCH   9  10
ENDBRANCH   8   9
ENDBRANCH   5   8
TORSDOF 6
ENDMDL
MODEL      187
REMARK 921   NORMALIZED FREE ENERGY PREDICTED BY IDOCK:   -4.00 KCAL/MOL
REMARK 922        TOTAL FREE ENERGY PREDICTED BY IDOCK:   -6.53 KCAL/MOL
REMARK 923 INTER-LIGAND FREE ENERGY PREDICTED BY IDOCK:   -6.11 KCAL/MOL
REMARK 924 INTRA-LIGAND FREE ENERGY PREDICTED BY IDOCK:   -0.42 KCAL/MOL
REMARK 927      BINDING AFFINITY PREDICTED BY RF-SCORE:    0.00 PKD
ROOT
HETATM    1 CL   UNL     1     -12.264  13.732  63.415  1.00  0.00    -0.323 Cl 
HETATM    2  C   UNL     1     -11.300  12.873  64.552  1.00  0.00    -0.341 A  
HETATM    3  C   UNL     1     -10.752  13.541  65.643  1.00  0.00    -0.284 A  
HETATM    4  C   UNL     1      -9.959  12.841  66.557  1.00  0.00    -0.256 A  
HETATM    5  C   UNL     1      -9.707  11.470  66.384  1.00  0.00    -0.231 A  
HETATM    6  C   UNL     1     -10.270  10.812  65.281  1.00  0.00    -0.351 A  
HETATM    7  C   UNL     1     -11.066  11.512  64.371  1.00  0.00    -0.359 A  
ENDROOT
BRANCH   5   8
HETATM    8  C   UNL     1      -8.796  10.732  67.337  1.00  0.00    -0.129 C  
BRANCH   8   9
HETATM    9  O   UNL     1      -9.139  11.079  68.672  1.00  0.00    -0.166 OA 
BRANCH   9  10
HETATM   10  C   UNL     1     -10.203  10.308  69.273  1.00  0.00    -0.227 C  
BRANCH  10  11
HETATM   11  C   UNL     1     -10.031   8.833  68.869  1.00  0.00    -0.200 A  
HETATM   12  C   UNL     1      -9.800   6.127  68.053  1.00  0.00    -0.127 A  
HETATM   13  C   UNL     1      -9.121   7.951  69.489  1.00  0.00    -0.149 A  
HETATM   14  C   UNL     1     -10.784   8.311  67.792  1.00  0.00    -0.165 A  
HETATM   15  C   UNL     1      -9.030   6.604  69.105  1.00  0.00    -0.131 A  
HETATM   16 CL   UNL     1      -9.660   4.483  67.564  1.00  0.00    -0.195 Cl 
HETATM   17 CL   UNL     1      -8.014   8.456  70.717  1.00  0.00    -0.097 Cl 
HETATM   18  C   UNL     1     -10.665   6.978  67.382  1.00  0.00    -0.383 A  
ENDBRANCH  10  11
BRANCH  10  19
HETATM   19  C   UNL     1     -11.581  10.938  68.945  1.00  0.00    -0.309 C  
BRANCH  19  20
HETATM   20  N   UNL     1     -12.139  11.735  70.018  1.00  0.00    -0.323 NA 
HETATM   21  C   UNL     1     -12.795  11.261  71.121  1.00  0.00    -0.352 A  
HETATM   22  N   UNL     1     -12.670  13.513  71.218  1.00  0.00    -0.358 NA 
HETATM   23  C   UNL     1     -13.157  12.386  71.824  1.00  0.00    -0.342 A  
HETATM   24  C   UNL     1     -12.040  13.088  70.147  1.00  0.00    -0.307 A  
ENDBRANCH  19  20
ENDBRANCH  10  19
ENDBRANCH   9  10
ENDBRANCH   8   9
ENDBRANCH   5   8
TORSDOF 6
ENDMDL
MODEL      188
REMARK 921   NORMALIZED FREE ENERGY PREDICTED BY IDOCK:   -3.99 KCAL/MOL
REMARK 922        TOTAL FREE ENERGY PREDICTED BY IDOCK:   -6.52 KCAL/MOL
REMARK 923 INTER-LIGAND FREE ENERGY PREDICTED BY IDOCK:   -5.58 KCAL/MOL
REMARK 924 INTRA-LIGAND FREE ENERGY PREDICTED BY IDOCK:   -0.93 KCAL/MOL
REMARK 927      BINDING AFFINITY PREDICTED BY RF-SCORE:    0.00 PKD
ROOT
HETATM    1 CL   UNL     1     -10.713   2.280  73.058  1.00  0.00    -0.249 Cl 
HETATM    2  C   UNL     1     -10.317   3.948  72.920  1.00  0.00    -0.168 A  
HETATM    3  C   UNL     1      -8.996   4.334  72.713  1.00  0.00    -0.118 A  
HETATM    4  C   UNL     1      -8.677   5.692  72.615  1.00  0.00    -0.123 A  
HETATM    5  C   UNL     1      -9.679   6.671  72.724  1.00  0.00    -0.166 A  
HETATM    6  C   UNL     1     -11.005   6.265  72.928  1.00  0.00    -0.283 A  
HETATM    7  C   UNL     1     -11.322   4.908  73.022  1.00  0.00    -0.354 A  
ENDROOT
BRANCH   5   8
HETATM    8  C   UNL     1      -9.321   8.139  72.683  1.00  0.00    -0.272 C  
BRANCH   8   9
HETATM    9  O   UNL     1      -9.943   8.739  71.554  1.00  0.00    -0.242 OA 
BRANCH   9  10
HETATM   10  C   UNL     1      -9.055   9.201  70.513  1.00  0.00    -0.241 C  
BRANCH  10  11
HETATM   11  C   UNL     1      -9.784  10.272  69.683  1.00  0.00    -0.216 A  
HETATM   12  C   UNL     1     -11.224  12.208  68.193  1.00  0.00    -0.267 A  
HETATM   13  C   UNL     1      -9.137  11.124  68.762  1.00  0.00    -0.139 A  
HETATM   14  C   UNL     1     -11.173  10.467  69.858  1.00  0.00    -0.374 A  
HETATM   15  C   UNL     1      -9.856  12.061  68.003  1.00  0.00    -0.199 A  
HETATM   16 CL   UNL     1     -12.095  13.382  67.285  1.00  0.00    -0.386 Cl 
HETATM   17 CL   UNL     1      -7.424  11.131  68.532  1.00  0.00    -0.104 Cl 
HETATM   18  C   UNL     1     -11.884  11.428  69.130  1.00  0.00    -0.413 A  
ENDBRANCH  10  11
BRANCH  10  19
HETATM   19  C   UNL     1      -8.488   8.001  69.713  1.00  0.00    -0.127 C  
BRANCH  19  20
HETATM   20  N   UNL     1      -9.426   7.415  68.778  1.00  0.00    -0.144 NA 
HETATM   21  C   UNL     1      -9.405   7.551  67.417  1.00  0.00    -0.140 A  
HETATM   22  N   UNL     1     -11.130   6.227  68.023  1.00  0.00    -0.329 NA 
HETATM   23  C   UNL     1     -10.500   6.846  66.977  1.00  0.00    -0.304 A  
HETATM   24  C   UNL     1     -10.446   6.567  69.092  1.00  0.00    -0.221 A  
ENDBRANCH  19  20
ENDBRANCH  10  19
ENDBRANCH   9  10
ENDBRANCH   8   9
ENDBRANCH   5   8
TORSDOF 6
ENDMDL
MODEL      189
REMARK 921   NORMALIZED FREE ENERGY PREDICTED BY IDOCK:   -3.93 KCAL/MOL
REMARK 922        TOTAL FREE ENERGY PREDICTED BY IDOCK:   -6.44 KCAL/MOL
REMARK 923 INTER-LIGAND FREE ENERGY PREDICTED BY IDOCK:   -5.50 KCAL/MOL
REMARK 924 INTRA-LIGAND FREE ENERGY PREDICTED BY IDOCK:   -0.93 KCAL/MOL
REMARK 927      BINDING AFFINITY PREDICTED BY RF-SCORE:    0.00 PKD
ROOT
HETATM    1 CL   UNL     1      -5.126  14.750  71.663  1.00  0.00    -0.153 Cl 
HETATM    2  C   UNL     1      -6.274  14.342  70.449  1.00  0.00    -0.173 A  
HETATM    3  C   UNL     1      -7.050  15.338  69.864  1.00  0.00    -0.102 A  
HETATM    4  C   UNL     1      -7.991  15.000  68.887  1.00  0.00    -0.169 A  
HETATM    5  C   UNL     1      -8.161  13.663  68.490  1.00  0.00    -0.118 A  
HETATM    6  C   UNL     1      -7.367  12.673  69.086  1.00  0.00     0.134 A  
HETATM    7  C   UNL     1      -6.425  13.013  70.059  1.00  0.00     0.092 A  
ENDROOT
BRANCH   5   8
HETATM    8  C   UNL     1      -9.223  13.294  67.481  1.00  0.00    -0.213 C  
BRANCH   8   9
HETATM    9  O   UNL     1     -10.415  12.937  68.169  1.00  0.00    -0.223 OA 
BRANCH   9  10
HETATM   10  C   UNL     1     -11.479  13.915  68.141  1.00  0.00    -0.312 C  
BRANCH  10  11
HETATM   11  C   UNL     1     -11.895  14.233  69.588  1.00  0.00    -0.370 A  
HETATM   12  C   UNL     1     -12.630  14.927  72.237  1.00  0.00    -0.334 A  
HETATM   13  C   UNL     1     -12.300  13.255  70.520  1.00  0.00    -0.316 A  
HETATM   14  C   UNL     1     -11.921  15.577  70.028  1.00  0.00    -0.385 A  
HETATM   15  C   UNL     1     -12.634  13.596  71.840  1.00  0.00    -0.252 A  
HETATM   16 CL   UNL     1     -13.074  15.344  73.846  1.00  0.00    -0.414 Cl 
HETATM   17 CL   UNL     1     -12.475  11.584  70.112  1.00  0.00    -0.277 Cl 
HETATM   18  C   UNL     1     -12.292  15.922  71.332  1.00  0.00    -0.485 A  
ENDBRANCH  10  11
BRANCH  10  19
HETATM   19  C   UNL     1     -12.620  13.446  67.202  1.00  0.00     0.310 C  
BRANCH  19  20
HETATM   20  N   UNL     1     -12.380  13.710  65.798  1.00  0.00    -0.463 NA 
HETATM   21  C   UNL     1     -11.877  14.866  65.267  1.00  0.00    -0.217 A  
HETATM   22  N   UNL     1     -12.264  13.374  63.617  1.00  0.00    -0.682 NA 
HETATM   23  C   UNL     1     -11.861  14.650  63.910  1.00  0.00     0.067 A  
HETATM   24  C   UNL     1     -12.545  12.824  64.776  1.00  0.00    -0.446 A  
ENDBRANCH  19  20
ENDBRANCH  10  19
ENDBRANCH   9  10
ENDBRANCH   8   9
ENDBRANCH   5   8
TORSDOF 6
ENDMDL
MODEL      190
REMARK 921   NORMALIZED FREE ENERGY PREDICTED BY IDOCK:   -3.93 KCAL/MOL
REMARK 922        TOTAL FREE ENERGY PREDICTED BY IDOCK:   -6.43 KCAL/MOL
REMARK 923 INTER-LIGAND FREE ENERGY PREDICTED BY IDOCK:   -6.17 KCAL/MOL
REMARK 924 INTRA-LIGAND FREE ENERGY PREDICTED BY IDOCK:   -0.26 KCAL/MOL
REMARK 927      BINDING AFFINITY PREDICTED BY RF-SCORE:    0.00 PKD
ROOT
HETATM    1 CL   UNL     1     -11.019  10.062  66.411  1.00  0.00     0.060 Cl 
HETATM    2  C   UNL     1     -10.917  11.755  66.127  1.00  0.00    -0.307 A  
HETATM    3  C   UNL     1     -10.105  12.241  65.107  1.00  0.00    -0.284 A  
HETATM    4  C   UNL     1     -10.015  13.620  64.889  1.00  0.00    -0.183 A  
HETATM    5  C   UNL     1     -10.736  14.519  65.692  1.00  0.00    -0.335 A  
HETATM    6  C   UNL     1     -11.552  14.012  66.713  1.00  0.00    -0.406 A  
HETATM    7  C   UNL     1     -11.644  12.635  66.926  1.00  0.00    -0.438 A  
ENDROOT
BRANCH   5   8
HETATM    8  C   UNL     1     -10.585  16.009  65.496  1.00  0.00    -0.398 C  
BRANCH   8   9
HETATM    9  O   UNL     1      -9.205  16.325  65.360  1.00  0.00    -0.316 OA 
BRANCH   9  10
HETATM   10  C   UNL     1      -8.614  17.060  66.455  1.00  0.00    -0.276 C  
BRANCH  10  11
HETATM   11  C   UNL     1      -9.308  16.641  67.762  1.00  0.00    -0.222 A  
HETATM   12  C   UNL     1     -10.524  15.776  70.174  1.00  0.00    -0.278 A  
HETATM   13  C   UNL     1     -10.391  17.342  68.334  1.00  0.00    -0.379 A  
HETATM   14  C   UNL     1      -8.833  15.518  68.477  1.00  0.00    -0.186 A  
HETATM   15  C   UNL     1     -11.011  16.895  69.512  1.00  0.00    -0.053 A  
HETATM   16 CL   UNL     1     -11.267  15.253  71.634  1.00  0.00    -0.429 Cl 
HETATM   17 CL   UNL     1     -11.002  18.822  67.681  1.00  0.00    -0.366 Cl 
HETATM   18  C   UNL     1      -9.426  15.094  69.672  1.00  0.00    -0.104 A  
ENDBRANCH  10  11
BRANCH  10  19
HETATM   19  C   UNL     1      -8.617  18.580  66.149  1.00  0.00    -0.126 C  
BRANCH  19  20
HETATM   20  N   UNL     1      -7.549  19.316  66.793  1.00  0.00    -0.232 NA 
HETATM   21  C   UNL     1      -6.208  19.143  66.587  1.00  0.00    -0.177 A  
HETATM   22  N   UNL     1      -6.540  20.799  68.085  1.00  0.00    -0.291 NA 
HETATM   23  C   UNL     1      -5.603  20.039  67.436  1.00  0.00    -0.171 A  
HETATM   24  C   UNL     1      -7.701  20.358  67.659  1.00  0.00    -0.277 A  
ENDBRANCH  19  20
ENDBRANCH  10  19
ENDBRANCH   9  10
ENDBRANCH   8   9
ENDBRANCH   5   8
TORSDOF 6
ENDMDL
MODEL      191
REMARK 921   NORMALIZED FREE ENERGY PREDICTED BY IDOCK:   -3.92 KCAL/MOL
REMARK 922        TOTAL FREE ENERGY PREDICTED BY IDOCK:   -6.42 KCAL/MOL
REMARK 923 INTER-LIGAND FREE ENERGY PREDICTED BY IDOCK:   -5.99 KCAL/MOL
REMARK 924 INTRA-LIGAND FREE ENERGY PREDICTED BY IDOCK:   -0.43 KCAL/MOL
REMARK 927      BINDING AFFINITY PREDICTED BY RF-SCORE:    0.00 PKD
ROOT
HETATM    1 CL   UNL     1      -9.837  19.363  68.950  1.00  0.00    -0.510 Cl 
HETATM    2  C   UNL     1      -9.842  17.900  68.045  1.00  0.00    -0.320 A  
HETATM    3  C   UNL     1     -10.119  17.928  66.682  1.00  0.00    -0.362 A  
HETATM    4  C   UNL     1     -10.135  16.734  65.953  1.00  0.00    -0.324 A  
HETATM    5  C   UNL     1      -9.876  15.507  66.585  1.00  0.00    -0.268 A  
HETATM    6  C   UNL     1      -9.595  15.498  67.958  1.00  0.00    -0.203 A  
HETATM    7  C   UNL     1      -9.575  16.691  68.684  1.00  0.00    -0.248 A  
ENDROOT
BRANCH   5   8
HETATM    8  C   UNL     1      -9.959  14.214  65.808  1.00  0.00    -0.309 C  
BRANCH   8   9
HETATM    9  O   UNL     1     -10.942  13.376  66.400  1.00  0.00    -0.287 OA 
BRANCH   9  10
HETATM   10  C   UNL     1     -10.456  12.154  66.997  1.00  0.00    -0.220 C  
BRANCH  10  11
HETATM   11  C   UNL     1      -9.455  11.497  66.030  1.00  0.00    -0.249 A  
HETATM   12  C   UNL     1      -7.530  10.299  64.327  1.00  0.00    -0.072 A  
HETATM   13  C   UNL     1      -9.757  11.171  64.692  1.00  0.00    -0.262 A  
HETATM   14  C   UNL     1      -8.163  11.152  66.490  1.00  0.00    -0.167 A  
HETATM   15  C   UNL     1      -8.794  10.606  63.841  1.00  0.00    -0.171 A  
HETATM   16 CL   UNL     1      -6.365   9.574  63.289  1.00  0.00    -0.097 Cl 
HETATM   17 CL   UNL     1     -11.331  11.380  64.007  1.00  0.00    -0.381 Cl 
HETATM   18  C   UNL     1      -7.215  10.553  65.653  1.00  0.00    -0.124 A  
ENDBRANCH  10  11
BRANCH  10  19
HETATM   19  C   UNL     1     -11.641  11.261  67.446  1.00  0.00    -0.130 C  
BRANCH  19  20
HETATM   20  N   UNL     1     -11.687  11.006  68.871  1.00  0.00    -0.318 NA 
HETATM   21  C   UNL     1     -12.520  11.608  69.773  1.00  0.00    -0.025 A  
HETATM   22  N   UNL     1     -11.212  10.102  70.830  1.00  0.00    -0.341 NA 
HETATM   23  C   UNL     1     -12.171  11.066  70.988  1.00  0.00    -0.351 A  
HETATM   24  C   UNL     1     -10.958  10.070  69.542  1.00  0.00    -0.253 A  
ENDBRANCH  19  20
ENDBRANCH  10  19
ENDBRANCH   9  10
ENDBRANCH   8   9
ENDBRANCH   5   8
TORSDOF 6
ENDMDL
MODEL      192
REMARK 921   NORMALIZED FREE ENERGY PREDICTED BY IDOCK:   -3.91 KCAL/MOL
REMARK 922        TOTAL FREE ENERGY PREDICTED BY IDOCK:   -6.40 KCAL/MOL
REMARK 923 INTER-LIGAND FREE ENERGY PREDICTED BY IDOCK:   -5.86 KCAL/MOL
REMARK 924 INTRA-LIGAND FREE ENERGY PREDICTED BY IDOCK:   -0.55 KCAL/MOL
REMARK 927      BINDING AFFINITY PREDICTED BY RF-SCORE:    0.00 PKD
ROOT
HETATM    1 CL   UNL     1     -14.386   8.614  72.296  1.00  0.00    -0.525 Cl 
HETATM    2  C   UNL     1     -12.831   8.684  71.565  1.00  0.00    -0.319 A  
HETATM    3  C   UNL     1     -12.141   7.508  71.286  1.00  0.00    -0.351 A  
HETATM    4  C   UNL     1     -10.871   7.572  70.704  1.00  0.00    -0.251 A  
HETATM    5  C   UNL     1     -10.285   8.811  70.398  1.00  0.00    -0.228 A  
HETATM    6  C   UNL     1     -10.997   9.986  70.681  1.00  0.00    -0.392 A  
HETATM    7  C   UNL     1     -12.267   9.920  71.259  1.00  0.00    -0.480 A  
ENDROOT
BRANCH   5   8
HETATM    8  C   UNL     1      -8.887   8.877  69.829  1.00  0.00    -0.144 C  
BRANCH   8   9
HETATM    9  O   UNL     1      -8.741   7.872  68.834  1.00  0.00    -0.134 OA 
BRANCH   9  10
HETATM   10  C   UNL     1      -9.364   8.147  67.560  1.00  0.00    -0.140 C  
BRANCH  10  11
HETATM   11  C   UNL     1      -9.406   6.846  66.740  1.00  0.00    -0.190 A  
HETATM   12  C   UNL     1      -9.579   4.422  65.278  1.00  0.00    -0.182 A  
HETATM   13  C   UNL     1      -8.355   6.413  65.904  1.00  0.00    -0.143 A  
HETATM   14  C   UNL     1     -10.564   6.035  66.773  1.00  0.00    -0.359 A  
HETATM   15  C   UNL     1      -8.429   5.197  65.205  1.00  0.00    -0.144 A  
HETATM   16 CL   UNL     1      -9.678   2.950  64.393  1.00  0.00    -0.151 Cl 
HETATM   17 CL   UNL     1      -6.930   7.351  65.623  1.00  0.00    -0.059 Cl 
HETATM   18  C   UNL     1     -10.654   4.843  66.045  1.00  0.00    -0.312 A  
ENDBRANCH  10  11
BRANCH  10  19
HETATM   19  C   UNL     1      -8.678   9.354  66.871  1.00  0.00    -0.127 C  
BRANCH  19  20
HETATM   20  N   UNL     1      -9.564  10.469  66.606  1.00  0.00    -0.168 NA 
HETATM   21  C   UNL     1     -10.832  10.627  67.094  1.00  0.00    -0.270 A  
HETATM   22  N   UNL     1     -10.282  12.402  65.812  1.00  0.00    -0.256 NA 
HETATM   23  C   UNL     1     -11.273  11.809  66.547  1.00  0.00    -0.321 A  
HETATM   24  C   UNL     1      -9.257  11.585  65.887  1.00  0.00    -0.210 A  
ENDBRANCH  19  20
ENDBRANCH  10  19
ENDBRANCH   9  10
ENDBRANCH   8   9
ENDBRANCH   5   8
TORSDOF 6
ENDMDL
MODEL      193
REMARK 921   NORMALIZED FREE ENERGY PREDICTED BY IDOCK:   -3.89 KCAL/MOL
REMARK 922        TOTAL FREE ENERGY PREDICTED BY IDOCK:   -6.38 KCAL/MOL
REMARK 923 INTER-LIGAND FREE ENERGY PREDICTED BY IDOCK:   -6.09 KCAL/MOL
REMARK 924 INTRA-LIGAND FREE ENERGY PREDICTED BY IDOCK:   -0.28 KCAL/MOL
REMARK 927      BINDING AFFINITY PREDICTED BY RF-SCORE:    0.00 PKD
ROOT
HETATM    1 CL   UNL     1      -9.281   3.359  66.575  1.00  0.00    -0.173 Cl 
HETATM    2  C   UNL     1      -9.200   4.759  67.571  1.00  0.00    -0.127 A  
HETATM    3  C   UNL     1      -9.924   4.810  68.759  1.00  0.00    -0.182 A  
HETATM    4  C   UNL     1      -9.865   5.955  69.559  1.00  0.00    -0.216 A  
HETATM    5  C   UNL     1      -9.082   7.056  69.175  1.00  0.00    -0.136 A  
HETATM    6  C   UNL     1      -8.355   6.986  67.978  1.00  0.00    -0.119 A  
HETATM    7  C   UNL     1      -8.412   5.840  67.182  1.00  0.00    -0.107 A  
ENDROOT
BRANCH   5   8
HETATM    8  C   UNL     1      -9.072   8.316  70.008  1.00  0.00    -0.150 C  
BRANCH   8   9
HETATM    9  O   UNL     1      -9.683   9.367  69.271  1.00  0.00    -0.162 OA 
BRANCH   9  10
HETATM   10  C   UNL     1     -10.929   9.871  69.802  1.00  0.00    -0.268 C  
BRANCH  10  11
HETATM   11  C   UNL     1     -11.063  11.356  69.419  1.00  0.00    -0.301 A  
HETATM   12  C   UNL     1     -11.395  14.100  68.785  1.00  0.00    -0.278 A  
HETATM   13  C   UNL     1     -10.317  11.970  68.390  1.00  0.00    -0.214 A  
HETATM   14  C   UNL     1     -11.945  12.188  70.145  1.00  0.00    -0.394 A  
HETATM   15  C   UNL     1     -10.505  13.321  68.057  1.00  0.00    -0.248 A  
HETATM   16 CL   UNL     1     -11.596  15.763  68.395  1.00  0.00    -0.369 Cl 
HETATM   17 CL   UNL     1      -9.085  11.144  67.501  1.00  0.00    -0.145 Cl 
HETATM   18  C   UNL     1     -12.104  13.544  69.839  1.00  0.00    -0.408 A  
ENDBRANCH  10  11
BRANCH  10  19
HETATM   19  C   UNL     1     -11.040   9.555  71.315  1.00  0.00    -0.379 C  
BRANCH  19  20
HETATM   20  N   UNL     1     -12.253   8.856  71.688  1.00  0.00    -0.322 NA 
HETATM   21  C   UNL     1     -12.551   7.550  71.410  1.00  0.00    -0.351 A  
HETATM   22  N   UNL     1     -14.237   8.484  72.585  1.00  0.00    -0.397 NA 
HETATM   23  C   UNL     1     -13.807   7.359  71.934  1.00  0.00    -0.245 A  
HETATM   24  C   UNL     1     -13.269   9.360  72.442  1.00  0.00    -0.403 A  
ENDBRANCH  19  20
ENDBRANCH  10  19
ENDBRANCH   9  10
ENDBRANCH   8   9
ENDBRANCH   5   8
TORSDOF 6
ENDMDL
MODEL      194
REMARK 921   NORMALIZED FREE ENERGY PREDICTED BY IDOCK:   -3.88 KCAL/MOL
REMARK 922        TOTAL FREE ENERGY PREDICTED BY IDOCK:   -6.37 KCAL/MOL
REMARK 923 INTER-LIGAND FREE ENERGY PREDICTED BY IDOCK:   -5.50 KCAL/MOL
REMARK 924 INTRA-LIGAND FREE ENERGY PREDICTED BY IDOCK:   -0.88 KCAL/MOL
REMARK 927      BINDING AFFINITY PREDICTED BY RF-SCORE:    0.00 PKD
ROOT
HETATM    1 CL   UNL     1      -8.458   3.281  67.295  1.00  0.00    -0.099 Cl 
HETATM    2  C   UNL     1      -9.082   4.879  67.179  1.00  0.00    -0.119 A  
HETATM    3  C   UNL     1      -8.304   5.890  66.620  1.00  0.00    -0.110 A  
HETATM    4  C   UNL     1      -8.811   7.191  66.541  1.00  0.00    -0.154 A  
HETATM    5  C   UNL     1     -10.097   7.488  67.021  1.00  0.00    -0.332 A  
HETATM    6  C   UNL     1     -10.868   6.458  67.577  1.00  0.00    -0.438 A  
HETATM    7  C   UNL     1     -10.362   5.158  67.652  1.00  0.00    -0.173 A  
ENDROOT
BRANCH   5   8
HETATM    8  C   UNL     1     -10.614   8.907  66.993  1.00  0.00    -0.209 C  
BRANCH   8   9
HETATM    9  O   UNL     1      -9.948   9.666  67.994  1.00  0.00    -0.150 OA 
BRANCH   9  10
HETATM   10  C   UNL     1     -10.681   9.879  69.220  1.00  0.00    -0.224 C  
BRANCH  10  11
HETATM   11  C   UNL     1     -11.055  11.369  69.319  1.00  0.00    -0.313 A  
HETATM   12  C   UNL     1     -11.665  14.136  69.423  1.00  0.00    -0.313 A  
HETATM   13  C   UNL     1     -11.970  11.887  70.259  1.00  0.00    -0.330 A  
HETATM   14  C   UNL     1     -10.497  12.292  68.404  1.00  0.00    -0.244 A  
HETATM   15  C   UNL     1     -12.248  13.261  70.330  1.00  0.00    -0.391 A  
HETATM   16 CL   UNL     1     -12.035  15.815  69.492  1.00  0.00    -0.364 Cl 
HETATM   17 CL   UNL     1     -12.862  10.886  71.351  1.00  0.00    -0.527 Cl 
HETATM   18  C   UNL     1     -10.803  13.656  68.449  1.00  0.00    -0.274 A  
ENDBRANCH  10  11
BRANCH  10  19
HETATM   19  C   UNL     1      -9.898   9.302  70.427  1.00  0.00    -0.241 C  
BRANCH  19  20
HETATM   20  N   UNL     1      -8.478   9.146  70.193  1.00  0.00    -0.156 NA 
HETATM   21  C   UNL     1      -7.571  10.157  70.025  1.00  0.00    -0.152 A  
HETATM   22  N   UNL     1      -6.519   8.162  69.916  1.00  0.00    -0.038 NA 
HETATM   23  C   UNL     1      -6.372   9.519  69.806  1.00  0.00    -0.045 A  
HETATM   24  C   UNL     1      -7.792   7.969  70.175  1.00  0.00    -0.099 A  
ENDBRANCH  19  20
ENDBRANCH  10  19
ENDBRANCH   9  10
ENDBRANCH   8   9
ENDBRANCH   5   8
TORSDOF 6
ENDMDL
MODEL      195
REMARK 921   NORMALIZED FREE ENERGY PREDICTED BY IDOCK:   -3.88 KCAL/MOL
REMARK 922        TOTAL FREE ENERGY PREDICTED BY IDOCK:   -6.37 KCAL/MOL
REMARK 923 INTER-LIGAND FREE ENERGY PREDICTED BY IDOCK:   -6.64 KCAL/MOL
REMARK 924 INTRA-LIGAND FREE ENERGY PREDICTED BY IDOCK:    0.26 KCAL/MOL
REMARK 927      BINDING AFFINITY PREDICTED BY RF-SCORE:    0.00 PKD
ROOT
HETATM    1 CL   UNL     1      -8.119   7.496  69.888  1.00  0.00    -0.126 Cl 
HETATM    2  C   UNL     1      -8.524   8.858  68.920  1.00  0.00    -0.131 A  
HETATM    3  C   UNL     1      -9.419   8.718  67.863  1.00  0.00    -0.160 A  
HETATM    4  C   UNL     1      -9.734   9.826  67.070  1.00  0.00    -0.233 A  
HETATM    5  C   UNL     1      -9.155  11.079  67.329  1.00  0.00    -0.142 A  
HETATM    6  C   UNL     1      -8.259  11.203  68.400  1.00  0.00    -0.144 A  
HETATM    7  C   UNL     1      -7.948  10.097  69.193  1.00  0.00    -0.124 A  
ENDROOT
BRANCH   5   8
HETATM    8  C   UNL     1      -9.448  12.257  66.430  1.00  0.00    -0.237 C  
BRANCH   8   9
HETATM    9  O   UNL     1     -10.285  13.175  67.122  1.00  0.00    -0.241 OA 
BRANCH   9  10
HETATM   10  C   UNL     1      -9.642  13.976  68.139  1.00  0.00    -0.220 C  
BRANCH  10  11
HETATM   11  C   UNL     1     -10.691  14.366  69.195  1.00  0.00    -0.254 A  
HETATM   12  C   UNL     1     -12.566  15.179  71.161  1.00  0.00    -0.367 A  
HETATM   13  C   UNL     1     -11.747  13.522  69.599  1.00  0.00    -0.314 A  
HETATM   14  C   UNL     1     -10.646  15.650  69.785  1.00  0.00    -0.308 A  
HETATM   15  C   UNL     1     -12.657  13.914  70.595  1.00  0.00    -0.405 A  
HETATM   16 CL   UNL     1     -13.704  15.667  72.356  1.00  0.00    -0.611 Cl 
HETATM   17 CL   UNL     1     -12.048  11.981  68.876  1.00  0.00    -0.280 Cl 
HETATM   18  C   UNL     1     -11.575  16.056  70.749  1.00  0.00    -0.431 A  
ENDBRANCH  10  11
BRANCH  10  19
HETATM   19  C   UNL     1      -8.870  15.154  67.492  1.00  0.00    -0.182 C  
BRANCH  19  20
HETATM   20  N   UNL     1      -9.663  15.954  66.582  1.00  0.00    -0.241 NA 
HETATM   21  C   UNL     1      -9.927  17.291  66.701  1.00  0.00    -0.294 A  
HETATM   22  N   UNL     1     -10.894  16.488  64.826  1.00  0.00    -0.728 NA 
HETATM   23  C   UNL     1     -10.733  17.586  65.627  1.00  0.00    -0.089 A  
HETATM   24  C   UNL     1     -10.217  15.527  65.412  1.00  0.00    -0.377 A  
ENDBRANCH  19  20
ENDBRANCH  10  19
ENDBRANCH   9  10
ENDBRANCH   8   9
ENDBRANCH   5   8
TORSDOF 6
ENDMDL
MODEL      196
REMARK 921   NORMALIZED FREE ENERGY PREDICTED BY IDOCK:   -3.86 KCAL/MOL
REMARK 922        TOTAL FREE ENERGY PREDICTED BY IDOCK:   -6.35 KCAL/MOL
REMARK 923 INTER-LIGAND FREE ENERGY PREDICTED BY IDOCK:   -5.60 KCAL/MOL
REMARK 924 INTRA-LIGAND FREE ENERGY PREDICTED BY IDOCK:   -0.75 KCAL/MOL
REMARK 927      BINDING AFFINITY PREDICTED BY RF-SCORE:    0.00 PKD
ROOT
HETATM    1 CL   UNL     1      -5.533   2.348  70.580  1.00  0.00    -0.011 Cl 
HETATM    2  C   UNL     1      -7.015   3.153  70.919  1.00  0.00    -0.033 A  
HETATM    3  C   UNL     1      -7.005   4.478  71.346  1.00  0.00    -0.042 A  
HETATM    4  C   UNL     1      -8.211   5.123  71.632  1.00  0.00    -0.116 A  
HETATM    5  C   UNL     1      -9.434   4.447  71.495  1.00  0.00    -0.215 A  
HETATM    6  C   UNL     1      -9.427   3.114  71.060  1.00  0.00    -0.228 A  
HETATM    7  C   UNL     1      -8.221   2.472  70.770  1.00  0.00    -0.069 A  
ENDROOT
BRANCH   5   8
HETATM    8  C   UNL     1     -10.731   5.128  71.868  1.00  0.00    -0.149 C  
BRANCH   8   9
HETATM    9  O   UNL     1     -10.520   6.532  71.928  1.00  0.00    -0.203 OA 
BRANCH   9  10
HETATM   10  C   UNL     1     -10.741   7.259  70.699  1.00  0.00    -0.235 C  
BRANCH  10  11
HETATM   11  C   UNL     1     -11.458   8.580  71.029  1.00  0.00    -0.313 A  
HETATM   12  C   UNL     1     -12.853  10.956  71.697  1.00  0.00    -0.449 A  
HETATM   13  C   UNL     1     -11.095   9.827  70.478  1.00  0.00    -0.321 A  
HETATM   14  C   UNL     1     -12.518   8.585  71.965  1.00  0.00    -0.417 A  
HETATM   15  C   UNL     1     -11.806  10.998  70.786  1.00  0.00    -0.383 A  
HETATM   16 CL   UNL     1     -13.699  12.400  72.097  1.00  0.00    -0.418 Cl 
HETATM   17 CL   UNL     1      -9.729  10.033  69.438  1.00  0.00    -0.225 Cl 
HETATM   18  C   UNL     1     -13.202   9.758  72.302  1.00  0.00    -0.468 A  
ENDBRANCH  10  11
BRANCH  10  19
HETATM   19  C   UNL     1     -11.446   6.355  69.655  1.00  0.00    -0.378 C  
BRANCH  19  20
HETATM   20  N   UNL     1     -10.723   6.213  68.408  1.00  0.00    -0.265 NA 
HETATM   21  C   UNL     1     -10.059   5.096  67.981  1.00  0.00    -0.128 A  
HETATM   22  N   UNL     1      -9.896   6.722  66.423  1.00  0.00    -0.091 NA 
HETATM   23  C   UNL     1      -9.514   5.454  66.770  1.00  0.00    -0.139 A  
HETATM   24  C   UNL     1     -10.644   7.145  67.417  1.00  0.00    -0.302 A  
ENDBRANCH  19  20
ENDBRANCH  10  19
ENDBRANCH   9  10
ENDBRANCH   8   9
ENDBRANCH   5   8
TORSDOF 6
ENDMDL
MODEL      197
REMARK 921   NORMALIZED FREE ENERGY PREDICTED BY IDOCK:   -3.86 KCAL/MOL
REMARK 922        TOTAL FREE ENERGY PREDICTED BY IDOCK:   -6.35 KCAL/MOL
REMARK 923 INTER-LIGAND FREE ENERGY PREDICTED BY IDOCK:   -5.59 KCAL/MOL
REMARK 924 INTRA-LIGAND FREE ENERGY PREDICTED BY IDOCK:   -0.75 KCAL/MOL
REMARK 927      BINDING AFFINITY PREDICTED BY RF-SCORE:    0.00 PKD
ROOT
HETATM    1 CL   UNL     1      -7.321   4.256  65.657  1.00  0.00    -0.075 Cl 
HETATM    2  C   UNL     1      -7.559   5.903  66.092  1.00  0.00    -0.090 A  
HETATM    3  C   UNL     1      -6.831   6.457  67.140  1.00  0.00    -0.066 A  
HETATM    4  C   UNL     1      -7.038   7.793  67.499  1.00  0.00    -0.083 A  
HETATM    5  C   UNL     1      -7.975   8.581  66.811  1.00  0.00    -0.094 A  
HETATM    6  C   UNL     1      -8.697   8.008  65.755  1.00  0.00    -0.175 A  
HETATM    7  C   UNL     1      -8.487   6.675  65.396  1.00  0.00    -0.112 A  
ENDROOT
BRANCH   5   8
HETATM    8  C   UNL     1      -8.243  10.004  67.244  1.00  0.00    -0.117 C  
BRANCH   8   9
HETATM    9  O   UNL     1      -9.002   9.991  68.446  1.00  0.00    -0.118 OA 
BRANCH   9  10
HETATM   10  C   UNL     1     -10.201  10.796  68.446  1.00  0.00    -0.175 C  
BRANCH  10  11
HETATM   11  C   UNL     1     -11.127  10.301  69.571  1.00  0.00    -0.310 A  
HETATM   12  C   UNL     1     -12.857   9.496  71.669  1.00  0.00    -0.393 A  
HETATM   13  C   UNL     1     -11.252   8.946  69.944  1.00  0.00    -0.065 A  
HETATM   14  C   UNL     1     -11.943  11.226  70.263  1.00  0.00    -0.466 A  
HETATM   15  C   UNL     1     -12.086   8.552  71.002  1.00  0.00    -0.231 A  
HETATM   16 CL   UNL     1     -13.903   9.003  72.943  1.00  0.00    -0.295 Cl 
HETATM   17 CL   UNL     1     -10.449   7.664  69.107  1.00  0.00    -0.220 Cl 
HETATM   18  C   UNL     1     -12.803  10.829  71.292  1.00  0.00    -0.540 A  
ENDBRANCH  10  11
BRANCH  10  19
HETATM   19  C   UNL     1     -10.827  10.835  67.028  1.00  0.00    -0.252 C  
BRANCH  19  20
HETATM   20  N   UNL     1     -11.164  12.165  66.565  1.00  0.00    -0.311 NA 
HETATM   21  C   UNL     1     -10.797  13.344  67.154  1.00  0.00    -0.276 A  
HETATM   22  N   UNL     1     -12.006  13.765  65.294  1.00  0.00    -0.355 NA 
HETATM   23  C   UNL     1     -11.373  14.319  66.375  1.00  0.00    -0.343 A  
HETATM   24  C   UNL     1     -11.841  12.468  65.422  1.00  0.00    -0.428 A  
ENDBRANCH  19  20
ENDBRANCH  10  19
ENDBRANCH   9  10
ENDBRANCH   8   9
ENDBRANCH   5   8
TORSDOF 6
ENDMDL
MODEL      198
REMARK 921   NORMALIZED FREE ENERGY PREDICTED BY IDOCK:   -3.85 KCAL/MOL
REMARK 922        TOTAL FREE ENERGY PREDICTED BY IDOCK:   -6.33 KCAL/MOL
REMARK 923 INTER-LIGAND FREE ENERGY PREDICTED BY IDOCK:   -4.98 KCAL/MOL
REMARK 924 INTRA-LIGAND FREE ENERGY PREDICTED BY IDOCK:   -1.35 KCAL/MOL
REMARK 927      BINDING AFFINITY PREDICTED BY RF-SCORE:    0.00 PKD
ROOT
HETATM    1 CL   UNL     1     -13.779   8.982  72.371  1.00  0.00    -0.520 Cl 
HETATM    2  C   UNL     1     -12.356   8.157  71.871  1.00  0.00    -0.332 A  
HETATM    3  C   UNL     1     -11.106   8.628  72.262  1.00  0.00    -0.395 A  
HETATM    4  C   UNL     1      -9.951   7.962  71.842  1.00  0.00    -0.234 A  
HETATM    5  C   UNL     1     -10.040   6.821  71.026  1.00  0.00    -0.206 A  
HETATM    6  C   UNL     1     -11.307   6.358  70.645  1.00  0.00    -0.419 A  
HETATM    7  C   UNL     1     -12.459   7.023  71.069  1.00  0.00    -0.373 A  
ENDROOT
BRANCH   5   8
HETATM    8  C   UNL     1      -8.788   6.143  70.521  1.00  0.00    -0.146 C  
BRANCH   8   9
HETATM    9  O   UNL     1      -8.844   6.057  69.103  1.00  0.00    -0.118 OA 
BRANCH   9  10
HETATM   10  C   UNL     1      -8.092   7.055  68.377  1.00  0.00    -0.124 C  
BRANCH  10  11
HETATM   11  C   UNL     1      -8.945   8.332  68.269  1.00  0.00    -0.136 A  
HETATM   12  C   UNL     1     -10.439  10.739  68.133  1.00  0.00    -0.185 A  
HETATM   13  C   UNL     1     -10.218   8.375  67.664  1.00  0.00    -0.236 A  
HETATM   14  C   UNL     1      -8.434   9.556  68.759  1.00  0.00    -0.122 A  
HETATM   15  C   UNL     1     -10.970   9.560  67.625  1.00  0.00    -0.150 A  
HETATM   16 CL   UNL     1     -11.350  12.196  68.051  1.00  0.00    -0.326 Cl 
HETATM   17 CL   UNL     1     -10.931   7.011  66.878  1.00  0.00    -0.395 Cl 
HETATM   18  C   UNL     1      -9.167  10.747  68.685  1.00  0.00    -0.184 A  
ENDBRANCH  10  11
BRANCH  10  19
HETATM   19  C   UNL     1      -7.577   6.476  67.035  1.00  0.00    -0.095 C  
BRANCH  19  20
HETATM   20  N   UNL     1      -7.237   5.069  67.088  1.00  0.00    -0.076 NA 
HETATM   21  C   UNL     1      -7.968   4.040  66.560  1.00  0.00    -0.097 A  
HETATM   22  N   UNL     1      -6.094   3.229  67.524  1.00  0.00    -0.027 NA 
HETATM   23  C   UNL     1      -7.262   2.906  66.887  1.00  0.00    -0.058 A  
HETATM   24  C   UNL     1      -6.094   4.540  67.608  1.00  0.00    -0.028 A  
ENDBRANCH  19  20
ENDBRANCH  10  19
ENDBRANCH   9  10
ENDBRANCH   8   9
ENDBRANCH   5   8
TORSDOF 6
ENDMDL
MODEL      199
REMARK 921   NORMALIZED FREE ENERGY PREDICTED BY IDOCK:   -3.85 KCAL/MOL
REMARK 922        TOTAL FREE ENERGY PREDICTED BY IDOCK:   -6.33 KCAL/MOL
REMARK 923 INTER-LIGAND FREE ENERGY PREDICTED BY IDOCK:   -5.51 KCAL/MOL
REMARK 924 INTRA-LIGAND FREE ENERGY PREDICTED BY IDOCK:   -0.82 KCAL/MOL
REMARK 927      BINDING AFFINITY PREDICTED BY RF-SCORE:    0.00 PKD
ROOT
HETATM    1 CL   UNL     1      -9.573   9.938  62.526  1.00  0.00    -0.174 Cl 
HETATM    2  C   UNL     1      -9.321  10.653  64.070  1.00  0.00    -0.266 A  
HETATM    3  C   UNL     1     -10.184  11.647  64.524  1.00  0.00    -0.337 A  
HETATM    4  C   UNL     1      -9.968  12.234  65.775  1.00  0.00    -0.273 A  
HETATM    5  C   UNL     1      -8.887  11.832  66.576  1.00  0.00    -0.183 A  
HETATM    6  C   UNL     1      -8.030  10.827  66.105  1.00  0.00    -0.157 A  
HETATM    7  C   UNL     1      -8.250  10.239  64.858  1.00  0.00    -0.157 A  
ENDROOT
BRANCH   5   8
HETATM    8  C   UNL     1      -8.619  12.515  67.897  1.00  0.00    -0.179 C  
BRANCH   8   9
HETATM    9  O   UNL     1      -8.022  13.782  67.654  1.00  0.00    -0.146 OA 
BRANCH   9  10
HETATM   10  C   UNL     1      -7.726  14.577  68.824  1.00  0.00    -0.140 C  
BRANCH  10  11
HETATM   11  C   UNL     1      -8.411  15.947  68.676  1.00  0.00    -0.200 A  
HETATM   12  C   UNL     1      -9.573  18.518  68.391  1.00  0.00    -0.354 A  
HETATM   13  C   UNL     1      -9.795  16.153  68.855  1.00  0.00    -0.239 A  
HETATM   14  C   UNL     1      -7.645  17.075  68.302  1.00  0.00    -0.213 A  
HETATM   15  C   UNL     1     -10.365  17.432  68.743  1.00  0.00    -0.357 A  
HETATM   16 CL   UNL     1     -10.282  20.076  68.222  1.00  0.00    -0.558 Cl 
HETATM   17 CL   UNL     1     -10.906  14.864  69.163  1.00  0.00    -0.242 Cl 
HETATM   18  C   UNL     1      -8.219  18.343  68.153  1.00  0.00    -0.303 A  
ENDBRANCH  10  11
BRANCH  10  19
HETATM   19  C   UNL     1      -6.197  14.614  69.080  1.00  0.00    -0.105 C  
BRANCH  19  20
HETATM   20  N   UNL     1      -5.795  14.052  70.352  1.00  0.00    -0.145 NA 
HETATM   21  C   UNL     1      -5.471  14.754  71.481  1.00  0.00    -0.060 A  
HETATM   22  N   UNL     1      -5.318  12.539  71.891  1.00  0.00    -0.382 NA 
HETATM   23  C   UNL     1      -5.131  13.794  72.405  1.00  0.00    -0.186 A  
HETATM   24  C   UNL     1      -5.742  12.725  70.662  1.00  0.00    -0.156 A  
ENDBRANCH  19  20
ENDBRANCH  10  19
ENDBRANCH   9  10
ENDBRANCH   8   9
ENDBRANCH   5   8
TORSDOF 6
ENDMDL
MODEL      200
REMARK 921   NORMALIZED FREE ENERGY PREDICTED BY IDOCK:   -3.83 KCAL/MOL
REMARK 922        TOTAL FREE ENERGY PREDICTED BY IDOCK:   -6.30 KCAL/MOL
REMARK 923 INTER-LIGAND FREE ENERGY PREDICTED BY IDOCK:   -5.67 KCAL/MOL
REMARK 924 INTRA-LIGAND FREE ENERGY PREDICTED BY IDOCK:   -0.63 KCAL/MOL
REMARK 927      BINDING AFFINITY PREDICTED BY RF-SCORE:    0.00 PKD
ROOT
HETATM    1 CL   UNL     1      -8.152   7.657  67.502  1.00  0.00    -0.119 Cl 
HETATM    2  C   UNL     1      -9.059   9.113  67.623  1.00  0.00    -0.122 A  
HETATM    3  C   UNL     1      -8.454  10.270  68.107  1.00  0.00    -0.123 A  
HETATM    4  C   UNL     1      -9.199  11.448  68.216  1.00  0.00    -0.183 A  
HETATM    5  C   UNL     1     -10.553  11.476  67.844  1.00  0.00    -0.224 A  
HETATM    6  C   UNL     1     -11.145  10.303  67.355  1.00  0.00    -0.261 A  
HETATM    7  C   UNL     1     -10.398   9.128  67.243  1.00  0.00    -0.338 A  
ENDROOT
BRANCH   5   8
HETATM    8  C   UNL     1     -11.371  12.733  68.025  1.00  0.00    -0.292 C  
BRANCH   8   9
HETATM    9  O   UNL     1     -11.587  13.335  66.755  1.00  0.00    -0.330 OA 
BRANCH   9  10
HETATM   10  C   UNL     1     -10.400  13.733  66.033  1.00  0.00    -0.308 C  
BRANCH  10  11
HETATM   11  C   UNL     1     -10.103  15.210  66.350  1.00  0.00    -0.286 A  
HETATM   12  C   UNL     1      -9.494  17.897  67.020  1.00  0.00    -0.272 A  
HETATM   13  C   UNL     1     -10.694  16.292  65.665  1.00  0.00    -0.286 A  
HETATM   14  C   UNL     1      -9.159  15.534  67.351  1.00  0.00    -0.207 A  
HETATM   15  C   UNL     1     -10.415  17.622  66.018  1.00  0.00    -0.278 A  
HETATM   16 CL   UNL     1      -9.129  19.529  67.426  1.00  0.00    -0.359 Cl 
HETATM   17 CL   UNL     1     -11.752  16.084  64.313  1.00  0.00    -0.282 Cl 
HETATM   18  C   UNL     1      -8.850  16.859  67.677  1.00  0.00    -0.215 A  
ENDBRANCH  10  11
BRANCH  10  19
HETATM   19  C   UNL     1     -10.538  13.383  64.530  1.00  0.00    -0.425 C  
BRANCH  19  20
HETATM   20  N   UNL     1      -9.921  12.128  64.154  1.00  0.00    -0.281 NA 
HETATM   21  C   UNL     1      -8.817  11.564  64.733  1.00  0.00     0.344 A  
HETATM   22  N   UNL     1      -9.585  10.221  63.088  1.00  0.00    -0.297 NA 
HETATM   23  C   UNL     1      -8.601  10.407  64.022  1.00  0.00    -0.175 A  
HETATM   24  C   UNL     1     -10.380  11.260  63.209  1.00  0.00    -0.347 A  
ENDBRANCH  19  20
ENDBRANCH  10  19
ENDBRANCH   9  10
ENDBRANCH   8   9
ENDBRANCH   5   8
TORSDOF 6
ENDMDL
MODEL      201
REMARK 921   NORMALIZED FREE ENERGY PREDICTED BY IDOCK:   -3.82 KCAL/MOL
REMARK 922        TOTAL FREE ENERGY PREDICTED BY IDOCK:   -6.28 KCAL/MOL
REMARK 923 INTER-LIGAND FREE ENERGY PREDICTED BY IDOCK:   -5.58 KCAL/MOL
REMARK 924 INTRA-LIGAND FREE ENERGY PREDICTED BY IDOCK:   -0.71 KCAL/MOL
REMARK 927      BINDING AFFINITY PREDICTED BY RF-SCORE:    0.00 PKD
ROOT
HETATM    1 CL   UNL     1     -12.152  13.421  67.187  1.00  0.00    -0.398 Cl 
HETATM    2  C   UNL     1     -11.115  14.779  67.386  1.00  0.00    -0.324 A  
HETATM    3  C   UNL     1     -10.834  15.257  68.663  1.00  0.00    -0.253 A  
HETATM    4  C   UNL     1     -10.002  16.369  68.819  1.00  0.00    -0.246 A  
HETATM    5  C   UNL     1      -9.447  17.010  67.699  1.00  0.00    -0.236 A  
HETATM    6  C   UNL     1      -9.737  16.512  66.421  1.00  0.00    -0.305 A  
HETATM    7  C   UNL     1     -10.566  15.399  66.267  1.00  0.00    -0.311 A  
ENDROOT
BRANCH   5   8
HETATM    8  C   UNL     1      -8.601  18.250  67.868  1.00  0.00    -0.258 C  
BRANCH   8   9
HETATM    9  O   UNL     1      -7.544  17.973  68.778  1.00  0.00    -0.289 OA 
BRANCH   9  10
HETATM   10  C   UNL     1      -6.234  17.800  68.193  1.00  0.00    -0.173 C  
BRANCH  10  11
HETATM   11  C   UNL     1      -6.110  18.735  66.977  1.00  0.00    -0.175 A  
HETATM   12  C   UNL     1      -5.875  20.368  64.671  1.00  0.00    -0.241 A  
HETATM   13  C   UNL     1      -6.008  20.139  67.076  1.00  0.00    -0.170 A  
HETATM   14  C   UNL     1      -6.138  18.192  65.672  1.00  0.00    -0.265 A  
HETATM   15  C   UNL     1      -5.860  20.944  65.935  1.00  0.00    -0.276 A  
HETATM   16 CL   UNL     1      -5.729  21.362  63.274  1.00  0.00    -0.293 Cl 
HETATM   17 CL   UNL     1      -6.111  20.985  68.580  1.00  0.00    -0.335 Cl 
HETATM   18  C   UNL     1      -6.030  18.998  64.532  1.00  0.00    -0.272 A  
ENDBRANCH  10  11
BRANCH  10  19
HETATM   19  C   UNL     1      -5.958  16.300  67.918  1.00  0.00    -0.127 C  
BRANCH  19  20
HETATM   20  N   UNL     1      -5.909  15.477  69.109  1.00  0.00    -0.104 NA 
HETATM   21  C   UNL     1      -6.390  14.202  69.231  1.00  0.00    -0.112 A  
HETATM   22  N   UNL     1      -5.458  14.856  71.181  1.00  0.00    -0.123 NA 
HETATM   23  C   UNL     1      -6.142  13.859  70.539  1.00  0.00    -0.142 A  
HETATM   24  C   UNL     1      -5.309  15.807  70.287  1.00  0.00    -0.146 A  
ENDBRANCH  19  20
ENDBRANCH  10  19
ENDBRANCH   9  10
ENDBRANCH   8   9
ENDBRANCH   5   8
TORSDOF 6
ENDMDL
MODEL      202
REMARK 921   NORMALIZED FREE ENERGY PREDICTED BY IDOCK:   -3.82 KCAL/MOL
REMARK 922        TOTAL FREE ENERGY PREDICTED BY IDOCK:   -6.28 KCAL/MOL
REMARK 923 INTER-LIGAND FREE ENERGY PREDICTED BY IDOCK:   -5.22 KCAL/MOL
REMARK 924 INTRA-LIGAND FREE ENERGY PREDICTED BY IDOCK:   -1.06 KCAL/MOL
REMARK 927      BINDING AFFINITY PREDICTED BY RF-SCORE:    0.00 PKD
ROOT
HETATM    1 CL   UNL     1      -9.612   3.062  64.250  1.00  0.00    -0.145 Cl 
HETATM    2  C   UNL     1      -9.490   4.278  65.460  1.00  0.00    -0.176 A  
HETATM    3  C   UNL     1     -10.643   4.869  65.969  1.00  0.00    -0.312 A  
HETATM    4  C   UNL     1     -10.538   5.866  66.944  1.00  0.00    -0.384 A  
HETATM    5  C   UNL     1      -9.280   6.278  67.413  1.00  0.00    -0.116 A  
HETATM    6  C   UNL     1      -8.129   5.669  66.893  1.00  0.00    -0.102 A  
HETATM    7  C   UNL     1      -8.236   4.670  65.922  1.00  0.00    -0.111 A  
ENDROOT
BRANCH   5   8
HETATM    8  C   UNL     1      -9.168   7.401  68.418  1.00  0.00    -0.138 C  
BRANCH   8   9
HETATM    9  O   UNL     1      -8.547   6.910  69.599  1.00  0.00    -0.132 OA 
BRANCH   9  10
HETATM   10  C   UNL     1      -9.352   6.037  70.421  1.00  0.00    -0.160 C  
BRANCH  10  11
HETATM   11  C   UNL     1     -10.551   6.836  70.962  1.00  0.00    -0.252 A  
HETATM   12  C   UNL     1     -12.826   8.251  71.890  1.00  0.00    -0.344 A  
HETATM   13  C   UNL     1     -10.430   7.913  71.865  1.00  0.00    -0.228 A  
HETATM   14  C   UNL     1     -11.863   6.469  70.584  1.00  0.00    -0.398 A  
HETATM   15  C   UNL     1     -11.555   8.632  72.300  1.00  0.00    -0.424 A  
HETATM   16 CL   UNL     1     -14.204   9.114  72.453  1.00  0.00    -0.436 Cl 
HETATM   17 CL   UNL     1      -8.920   8.400  72.551  1.00  0.00    -0.304 Cl 
HETATM   18  C   UNL     1     -12.988   7.161  71.048  1.00  0.00    -0.231 A  
ENDBRANCH  10  11
BRANCH  10  19
HETATM   19  C   UNL     1      -8.473   5.337  71.489  1.00  0.00    -0.122 C  
BRANCH  19  20
HETATM   20  N   UNL     1      -9.213   4.500  72.411  1.00  0.00    -0.124 NA 
HETATM   21  C   UNL     1      -9.858   3.333  72.105  1.00  0.00    -0.167 A  
HETATM   22  N   UNL     1     -10.085   3.774  74.307  1.00  0.00    -0.140 NA 
HETATM   23  C   UNL     1     -10.431   2.929  73.287  1.00  0.00    -0.157 A  
HETATM   24  C   UNL     1      -9.330   4.696  73.755  1.00  0.00    -0.120 A  
ENDBRANCH  19  20
ENDBRANCH  10  19
ENDBRANCH   9  10
ENDBRANCH   8   9
ENDBRANCH   5   8
TORSDOF 6
ENDMDL
MODEL      203
REMARK 921   NORMALIZED FREE ENERGY PREDICTED BY IDOCK:   -3.79 KCAL/MOL
REMARK 922        TOTAL FREE ENERGY PREDICTED BY IDOCK:   -6.25 KCAL/MOL
REMARK 923 INTER-LIGAND FREE ENERGY PREDICTED BY IDOCK:   -4.92 KCAL/MOL
REMARK 924 INTRA-LIGAND FREE ENERGY PREDICTED BY IDOCK:   -1.33 KCAL/MOL
REMARK 927      BINDING AFFINITY PREDICTED BY RF-SCORE:    0.00 PKD
ROOT
HETATM    1 CL   UNL     1      -9.102   8.784  67.677  1.00  0.00    -0.141 Cl 
HETATM    2  C   UNL     1      -8.370  10.337  67.783  1.00  0.00    -0.110 A  
HETATM    3  C   UNL     1      -8.147  11.080  66.627  1.00  0.00    -0.155 A  
HETATM    4  C   UNL     1      -7.539  12.336  66.717  1.00  0.00     0.098 A  
HETATM    5  C   UNL     1      -7.149  12.855  67.963  1.00  0.00    -0.111 A  
HETATM    6  C   UNL     1      -7.385  12.094  69.118  1.00  0.00     0.069 A  
HETATM    7  C   UNL     1      -7.996  10.842  69.026  1.00  0.00    -0.137 A  
ENDROOT
BRANCH   5   8
HETATM    8  C   UNL     1      -6.434  14.182  68.049  1.00  0.00    -0.149 C  
BRANCH   8   9
HETATM    9  O   UNL     1      -6.924  15.043  67.029  1.00  0.00    -0.202 OA 
BRANCH   9  10
HETATM   10  C   UNL     1      -7.974  15.955  67.421  1.00  0.00    -0.161 C  
BRANCH  10  11
HETATM   11  C   UNL     1      -9.322  15.390  66.938  1.00  0.00    -0.255 A  
HETATM   12  C   UNL     1     -11.775  14.373  65.943  1.00  0.00    -0.369 A  
HETATM   13  C   UNL     1     -10.356  14.979  67.806  1.00  0.00    -0.245 A  
HETATM   14  C   UNL     1      -9.554  15.224  65.554  1.00  0.00    -0.243 A  
HETATM   15  C   UNL     1     -11.581  14.504  67.312  1.00  0.00    -0.405 A  
HETATM   16 CL   UNL     1     -13.266  13.758  65.344  1.00  0.00    -0.233 Cl 
HETATM   17 CL   UNL     1     -10.188  14.967  69.527  1.00  0.00    -0.221 Cl 
HETATM   18  C   UNL     1     -10.761  14.714  65.061  1.00  0.00    -0.448 A  
ENDBRANCH  10  11
BRANCH  10  19
HETATM   19  C   UNL     1      -7.643  17.395  66.955  1.00  0.00    -0.219 C  
BRANCH  19  20
HETATM   20  N   UNL     1      -7.054  18.230  67.981  1.00  0.00    -0.222 NA 
HETATM   21  C   UNL     1      -7.546  19.424  68.434  1.00  0.00    -0.321 A  
HETATM   22  N   UNL     1      -5.656  18.905  69.554  1.00  0.00    -0.210 NA 
HETATM   23  C   UNL     1      -6.635  19.844  69.373  1.00  0.00    -0.340 A  
HETATM   24  C   UNL     1      -5.948  17.933  68.720  1.00  0.00    -0.192 A  
ENDBRANCH  19  20
ENDBRANCH  10  19
ENDBRANCH   9  10
ENDBRANCH   8   9
ENDBRANCH   5   8
TORSDOF 6
ENDMDL
MODEL      204
REMARK 921   NORMALIZED FREE ENERGY PREDICTED BY IDOCK:   -3.79 KCAL/MOL
REMARK 922        TOTAL FREE ENERGY PREDICTED BY IDOCK:   -6.24 KCAL/MOL
REMARK 923 INTER-LIGAND FREE ENERGY PREDICTED BY IDOCK:   -5.36 KCAL/MOL
REMARK 924 INTRA-LIGAND FREE ENERGY PREDICTED BY IDOCK:   -0.89 KCAL/MOL
REMARK 927      BINDING AFFINITY PREDICTED BY RF-SCORE:    0.00 PKD
ROOT
HETATM    1 CL   UNL     1      -9.665   4.403  66.737  1.00  0.00    -0.219 Cl 
HETATM    2  C   UNL     1      -9.697   6.116  66.577  1.00  0.00    -0.145 A  
HETATM    3  C   UNL     1      -8.679   6.769  65.889  1.00  0.00    -0.147 A  
HETATM    4  C   UNL     1      -8.703   8.162  65.773  1.00  0.00    -0.183 A  
HETATM    5  C   UNL     1      -9.745   8.909  66.347  1.00  0.00    -0.332 A  
HETATM    6  C   UNL     1     -10.765   8.235  67.033  1.00  0.00    -0.225 A  
HETATM    7  C   UNL     1     -10.741   6.843  67.144  1.00  0.00    -0.436 A  
ENDROOT
BRANCH   5   8
HETATM    8  C   UNL     1      -9.732  10.418  66.276  1.00  0.00    -0.205 C  
BRANCH   8   9
HETATM    9  O   UNL     1     -10.393  10.944  67.420  1.00  0.00    -0.193 OA 
BRANCH   9  10
HETATM   10  C   UNL     1      -9.570  11.705  68.332  1.00  0.00    -0.195 C  
BRANCH  10  11
HETATM   11  C   UNL     1      -9.912  13.198  68.176  1.00  0.00    -0.234 A  
HETATM   12  C   UNL     1     -10.453  15.959  67.825  1.00  0.00    -0.287 A  
HETATM   13  C   UNL     1     -10.957  13.839  68.875  1.00  0.00    -0.252 A  
HETATM   14  C   UNL     1      -9.184  13.990  67.260  1.00  0.00    -0.231 A  
HETATM   15  C   UNL     1     -11.204  15.212  68.723  1.00  0.00    -0.293 A  
HETATM   16 CL   UNL     1     -10.782  17.635  67.617  1.00  0.00    -0.359 Cl 
HETATM   17 CL   UNL     1     -12.046  12.994  69.919  1.00  0.00    -0.371 Cl 
HETATM   18  C   UNL     1      -9.455  15.351  67.079  1.00  0.00    -0.232 A  
ENDBRANCH  10  11
BRANCH  10  19
HETATM   19  C   UNL     1      -8.076  11.336  68.149  1.00  0.00    -0.134 C  
BRANCH  19  20
HETATM   20  N   UNL     1      -7.525  10.541  69.227  1.00  0.00    -0.110 NA 
HETATM   21  C   UNL     1      -7.815   9.231  69.495  1.00  0.00    -0.086 A  
HETATM   22  N   UNL     1      -6.299   9.996  70.983  1.00  0.00    -0.297 NA 
HETATM   23  C   UNL     1      -7.079   8.932  70.617  1.00  0.00    -0.071 A  
HETATM   24  C   UNL     1      -6.570  10.941  70.112  1.00  0.00    -0.120 A  
ENDBRANCH  19  20
ENDBRANCH  10  19
ENDBRANCH   9  10
ENDBRANCH   8   9
ENDBRANCH   5   8
TORSDOF 6
ENDMDL
MODEL      205
REMARK 921   NORMALIZED FREE ENERGY PREDICTED BY IDOCK:   -3.78 KCAL/MOL
REMARK 922        TOTAL FREE ENERGY PREDICTED BY IDOCK:   -6.24 KCAL/MOL
REMARK 923 INTER-LIGAND FREE ENERGY PREDICTED BY IDOCK:   -5.46 KCAL/MOL
REMARK 924 INTRA-LIGAND FREE ENERGY PREDICTED BY IDOCK:   -0.77 KCAL/MOL
REMARK 927      BINDING AFFINITY PREDICTED BY RF-SCORE:    0.00 PKD
ROOT
HETATM    1 CL   UNL     1     -12.166  15.215  64.084  1.00  0.00    -0.339 Cl 
HETATM    2  C   UNL     1     -11.430  13.704  64.447  1.00  0.00    -0.386 A  
HETATM    3  C   UNL     1     -11.684  12.596  63.643  1.00  0.00    -0.597 A  
HETATM    4  C   UNL     1     -11.093  11.366  63.950  1.00  0.00    -0.410 A  
HETATM    5  C   UNL     1     -10.246  11.238  65.063  1.00  0.00    -0.339 A  
HETATM    6  C   UNL     1      -9.997  12.365  65.859  1.00  0.00    -0.271 A  
HETATM    7  C   UNL     1     -10.585  13.593  65.549  1.00  0.00    -0.300 A  
ENDROOT
BRANCH   5   8
HETATM    8  C   UNL     1      -9.662   9.894  65.429  1.00  0.00    -0.306 C  
BRANCH   8   9
HETATM    9  O   UNL     1     -10.393   9.349  66.520  1.00  0.00    -0.251 OA 
BRANCH   9  10
HETATM   10  C   UNL     1      -9.611   8.931  67.660  1.00  0.00    -0.148 C  
BRANCH  10  11
HETATM   11  C   UNL     1      -8.872   7.629  67.302  1.00  0.00    -0.122 A  
HETATM   12  C   UNL     1      -7.416   5.286  66.647  1.00  0.00    -0.087 A  
HETATM   13  C   UNL     1      -9.526   6.431  66.944  1.00  0.00    -0.143 A  
HETATM   14  C   UNL     1      -7.461   7.587  67.362  1.00  0.00    -0.104 A  
HETATM   15  C   UNL     1      -8.803   5.281  66.591  1.00  0.00    -0.113 A  
HETATM   16 CL   UNL     1      -6.535   3.864  66.245  1.00  0.00    -0.036 Cl 
HETATM   17 CL   UNL     1     -11.246   6.256  66.967  1.00  0.00    -0.363 Cl 
HETATM   18  C   UNL     1      -6.740   6.429  67.047  1.00  0.00    -0.060 A  
ENDBRANCH  10  11
BRANCH  10  19
HETATM   19  C   UNL     1     -10.495   8.874  68.932  1.00  0.00    -0.205 C  
BRANCH  19  20
HETATM   20  N   UNL     1      -9.812   8.377  70.108  1.00  0.00    -0.179 NA 
HETATM   21  C   UNL     1      -8.779   8.990  70.763  1.00  0.00    -0.224 A  
HETATM   22  N   UNL     1      -9.308   7.061  71.811  1.00  0.00    -0.145 NA 
HETATM   23  C   UNL     1      -8.452   8.130  71.785  1.00  0.00    -0.144 A  
HETATM   24  C   UNL     1     -10.131   7.250  70.805  1.00  0.00    -0.190 A  
ENDBRANCH  19  20
ENDBRANCH  10  19
ENDBRANCH   9  10
ENDBRANCH   8   9
ENDBRANCH   5   8
TORSDOF 6
ENDMDL
MODEL      206
REMARK 921   NORMALIZED FREE ENERGY PREDICTED BY IDOCK:   -3.77 KCAL/MOL
REMARK 922        TOTAL FREE ENERGY PREDICTED BY IDOCK:   -6.22 KCAL/MOL
REMARK 923 INTER-LIGAND FREE ENERGY PREDICTED BY IDOCK:   -5.50 KCAL/MOL
REMARK 924 INTRA-LIGAND FREE ENERGY PREDICTED BY IDOCK:   -0.72 KCAL/MOL
REMARK 927      BINDING AFFINITY PREDICTED BY RF-SCORE:    0.00 PKD
ROOT
HETATM    1 CL   UNL     1      -9.375   3.579  67.822  1.00  0.00    -0.237 Cl 
HETATM    2  C   UNL     1      -9.538   5.207  67.293  1.00  0.00    -0.142 A  
HETATM    3  C   UNL     1      -8.441   5.877  66.760  1.00  0.00    -0.109 A  
HETATM    4  C   UNL     1      -8.575   7.206  66.344  1.00  0.00    -0.137 A  
HETATM    5  C   UNL     1      -9.807   7.871  66.461  1.00  0.00    -0.272 A  
HETATM    6  C   UNL     1     -10.903   7.179  66.996  1.00  0.00    -0.382 A  
HETATM    7  C   UNL     1     -10.768   5.851  67.408  1.00  0.00    -0.370 A  
ENDROOT
BRANCH   5   8
HETATM    8  C   UNL     1      -9.931   9.325  66.071  1.00  0.00    -0.255 C  
BRANCH   8   9
HETATM    9  O   UNL     1      -9.242  10.124  67.025  1.00  0.00    -0.144 OA 
BRANCH   9  10
HETATM   10  C   UNL     1      -9.056   9.531  68.330  1.00  0.00    -0.127 C  
BRANCH  10  11
HETATM   11  C   UNL     1     -10.165  10.044  69.266  1.00  0.00    -0.229 A  
HETATM   12  C   UNL     1     -12.199  11.088  70.943  1.00  0.00    -0.367 A  
HETATM   13  C   UNL     1     -10.718   9.281  70.316  1.00  0.00    -0.243 A  
HETATM   14  C   UNL     1     -10.710  11.333  69.065  1.00  0.00    -0.257 A  
HETATM   15  C   UNL     1     -11.703   9.810  71.165  1.00  0.00    -0.465 A  
HETATM   16 CL   UNL     1     -13.431  11.719  71.964  1.00  0.00    -0.461 Cl 
HETATM   17 CL   UNL     1     -10.282   7.634  70.611  1.00  0.00    -0.198 Cl 
HETATM   18  C   UNL     1     -11.720  11.846  69.886  1.00  0.00    -0.383 A  
ENDBRANCH  10  11
BRANCH  10  19
HETATM   19  C   UNL     1      -7.604   9.754  68.823  1.00  0.00    -0.076 C  
BRANCH  19  20
HETATM   20  N   UNL     1      -6.905  10.827  68.146  1.00  0.00    -0.067 NA 
HETATM   21  C   UNL     1      -7.054  12.166  68.383  1.00  0.00    -0.089 A  
HETATM   22  N   UNL     1      -5.507  11.846  66.771  1.00  0.00    -0.277 NA 
HETATM   23  C   UNL     1      -6.213  12.777  67.484  1.00  0.00    -0.159 A  
HETATM   24  C   UNL     1      -5.926  10.680  67.209  1.00  0.00    -0.054 A  
ENDBRANCH  19  20
ENDBRANCH  10  19
ENDBRANCH   9  10
ENDBRANCH   8   9
ENDBRANCH   5   8
TORSDOF 6
ENDMDL
MODEL      207
REMARK 921   NORMALIZED FREE ENERGY PREDICTED BY IDOCK:   -3.77 KCAL/MOL
REMARK 922        TOTAL FREE ENERGY PREDICTED BY IDOCK:   -6.22 KCAL/MOL
REMARK 923 INTER-LIGAND FREE ENERGY PREDICTED BY IDOCK:   -5.06 KCAL/MOL
REMARK 924 INTRA-LIGAND FREE ENERGY PREDICTED BY IDOCK:   -1.16 KCAL/MOL
REMARK 927      BINDING AFFINITY PREDICTED BY RF-SCORE:    0.00 PKD
ROOT
HETATM    1 CL   UNL     1     -13.641   9.349  72.641  1.00  0.00    -0.425 Cl 
HETATM    2  C   UNL     1     -12.435   8.287  72.029  1.00  0.00    -0.351 A  
HETATM    3  C   UNL     1     -11.150   8.312  72.565  1.00  0.00    -0.439 A  
HETATM    4  C   UNL     1     -10.170   7.456  72.056  1.00  0.00    -0.221 A  
HETATM    5  C   UNL     1     -10.468   6.570  71.007  1.00  0.00    -0.260 A  
HETATM    6  C   UNL     1     -11.768   6.554  70.482  1.00  0.00    -0.438 A  
HETATM    7  C   UNL     1     -12.747   7.408  70.995  1.00  0.00    -0.247 A  
ENDROOT
BRANCH   5   8
HETATM    8  C   UNL     1      -9.389   5.693  70.416  1.00  0.00    -0.160 C  
BRANCH   8   9
HETATM    9  O   UNL     1      -9.936   4.941  69.341  1.00  0.00    -0.195 OA 
BRANCH   9  10
HETATM   10  C   UNL     1      -9.238   5.038  68.080  1.00  0.00    -0.120 C  
BRANCH  10  11
HETATM   11  C   UNL     1      -9.276   6.502  67.607  1.00  0.00    -0.113 A  
HETATM   12  C   UNL     1      -9.454   9.184  66.703  1.00  0.00    -0.185 A  
HETATM   13  C   UNL     1      -8.153   7.356  67.607  1.00  0.00    -0.114 A  
HETATM   14  C   UNL     1     -10.500   7.066  67.180  1.00  0.00    -0.383 A  
HETATM   15  C   UNL     1      -8.235   8.674  67.131  1.00  0.00    -0.107 A  
HETATM   16 CL   UNL     1      -9.557  10.810  66.152  1.00  0.00    -0.221 Cl 
HETATM   17 CL   UNL     1      -6.614   6.883  68.238  1.00  0.00    -0.056 Cl 
HETATM   18  C   UNL     1     -10.592   8.392  66.741  1.00  0.00    -0.227 A  
ENDBRANCH  10  11
BRANCH  10  19
HETATM   19  C   UNL     1      -9.785   3.993  67.075  1.00  0.00    -0.178 C  
BRANCH  19  20
HETATM   20  N   UNL     1      -9.182   4.061  65.760  1.00  0.00    -0.142 NA 
HETATM   21  C   UNL     1      -7.843   4.043  65.483  1.00  0.00    -0.090 A  
HETATM   22  N   UNL     1      -9.019   4.166  63.559  1.00  0.00    -0.122 NA 
HETATM   23  C   UNL     1      -7.767   4.159  64.115  1.00  0.00    -0.083 A  
HETATM   24  C   UNL     1      -9.850   4.080  64.572  1.00  0.00    -0.186 A  
ENDBRANCH  19  20
ENDBRANCH  10  19
ENDBRANCH   9  10
ENDBRANCH   8   9
ENDBRANCH   5   8
TORSDOF 6
ENDMDL
MODEL      208
REMARK 921   NORMALIZED FREE ENERGY PREDICTED BY IDOCK:   -3.77 KCAL/MOL
REMARK 922        TOTAL FREE ENERGY PREDICTED BY IDOCK:   -6.21 KCAL/MOL
REMARK 923 INTER-LIGAND FREE ENERGY PREDICTED BY IDOCK:   -6.03 KCAL/MOL
REMARK 924 INTRA-LIGAND FREE ENERGY PREDICTED BY IDOCK:   -0.19 KCAL/MOL
REMARK 927      BINDING AFFINITY PREDICTED BY RF-SCORE:    0.00 PKD
ROOT
HETATM    1 CL   UNL     1      -9.223   3.482  64.326  1.00  0.00    -0.124 Cl 
HETATM    2  C   UNL     1      -9.399   4.709  65.518  1.00  0.00    -0.158 A  
HETATM    3  C   UNL     1     -10.311   4.544  66.557  1.00  0.00    -0.159 A  
HETATM    4  C   UNL     1     -10.459   5.550  67.515  1.00  0.00    -0.269 A  
HETATM    5  C   UNL     1      -9.699   6.729  67.439  1.00  0.00    -0.164 A  
HETATM    6  C   UNL     1      -8.782   6.877  66.389  1.00  0.00    -0.147 A  
HETATM    7  C   UNL     1      -8.632   5.869  65.434  1.00  0.00    -0.138 A  
ENDROOT
BRANCH   5   8
HETATM    8  C   UNL     1      -9.910   7.841  68.439  1.00  0.00    -0.168 C  
BRANCH   8   9
HETATM    9  O   UNL     1     -10.956   7.476  69.330  1.00  0.00    -0.162 OA 
BRANCH   9  10
HETATM   10  C   UNL     1     -10.881   8.037  70.659  1.00  0.00    -0.234 C  
BRANCH  10  11
HETATM   11  C   UNL     1     -11.363   9.497  70.606  1.00  0.00    -0.364 A  
HETATM   12  C   UNL     1     -12.169  12.210  70.433  1.00  0.00    -0.294 A  
HETATM   13  C   UNL     1     -12.366  10.023  71.447  1.00  0.00    -0.415 A  
HETATM   14  C   UNL     1     -10.818  10.378  69.644  1.00  0.00    -0.320 A  
HETATM   15  C   UNL     1     -12.743  11.374  71.381  1.00  0.00    -0.489 A  
HETATM   16 CL   UNL     1     -12.660  13.856  70.333  1.00  0.00    -0.376 Cl 
HETATM   17 CL   UNL     1     -13.248   9.054  72.576  1.00  0.00    -0.500 Cl 
HETATM   18  C   UNL     1     -11.221  11.715  69.551  1.00  0.00    -0.282 A  
ENDBRANCH  10  11
BRANCH  10  19
HETATM   19  C   UNL     1      -9.470   7.816  71.261  1.00  0.00    -0.153 C  
BRANCH  19  20
HETATM   20  N   UNL     1      -9.470   7.141  72.542  1.00  0.00    -0.141 NA 
HETATM   21  C   UNL     1      -8.478   6.337  73.033  1.00  0.00    -0.117 A  
HETATM   22  N   UNL     1     -10.147   6.496  74.545  1.00  0.00    -0.354 NA 
HETATM   23  C   UNL     1      -8.944   5.911  74.254  1.00  0.00    -0.124 A  
HETATM   24  C   UNL     1     -10.426   7.251  73.507  1.00  0.00    -0.374 A  
ENDBRANCH  19  20
ENDBRANCH  10  19
ENDBRANCH   9  10
ENDBRANCH   8   9
ENDBRANCH   5   8
TORSDOF 6
ENDMDL
MODEL      209
REMARK 921   NORMALIZED FREE ENERGY PREDICTED BY IDOCK:   -3.76 KCAL/MOL
REMARK 922        TOTAL FREE ENERGY PREDICTED BY IDOCK:   -6.21 KCAL/MOL
REMARK 923 INTER-LIGAND FREE ENERGY PREDICTED BY IDOCK:   -5.49 KCAL/MOL
REMARK 924 INTRA-LIGAND FREE ENERGY PREDICTED BY IDOCK:   -0.72 KCAL/MOL
REMARK 927      BINDING AFFINITY PREDICTED BY RF-SCORE:    0.00 PKD
ROOT
HETATM    1 CL   UNL     1     -10.332  17.744  68.804  1.00  0.00    -0.362 Cl 
HETATM    2  C   UNL     1     -10.910  16.129  68.933  1.00  0.00    -0.305 A  
HETATM    3  C   UNL     1     -11.300  15.437  67.789  1.00  0.00    -0.308 A  
HETATM    4  C   UNL     1     -11.782  14.130  67.901  1.00  0.00    -0.402 A  
HETATM    5  C   UNL     1     -11.879  13.508  69.157  1.00  0.00    -0.386 A  
HETATM    6  C   UNL     1     -11.479  14.218  70.298  1.00  0.00    -0.226 A  
HETATM    7  C   UNL     1     -10.993  15.523  70.184  1.00  0.00    -0.336 A  
ENDROOT
BRANCH   5   8
HETATM    8  C   UNL     1     -12.462  12.120  69.280  1.00  0.00     0.306 C  
BRANCH   8   9
HETATM    9  O   UNL     1     -11.528  11.175  68.772  1.00  0.00    -0.246 OA 
BRANCH   9  10
HETATM   10  C   UNL     1     -10.974  10.252  69.736  1.00  0.00    -0.289 C  
BRANCH  10  11
HETATM   11  C   UNL     1     -10.259   9.119  68.978  1.00  0.00    -0.219 A  
HETATM   12  C   UNL     1      -9.039   7.007  67.532  1.00  0.00    -0.122 A  
HETATM   13  C   UNL     1      -8.920   8.743  69.213  1.00  0.00    -0.144 A  
HETATM   14  C   UNL     1     -10.943   8.422  67.956  1.00  0.00     0.122 A  
HETATM   15  C   UNL     1      -8.326   7.678  68.518  1.00  0.00    -0.129 A  
HETATM   16 CL   UNL     1      -8.296   5.724  66.660  1.00  0.00    -0.109 Cl 
HETATM   17 CL   UNL     1      -7.887   9.585  70.315  1.00  0.00    -0.162 Cl 
HETATM   18  C   UNL     1     -10.340   7.385  67.235  1.00  0.00    -0.356 A  
ENDBRANCH  10  11
BRANCH  10  19
HETATM   19  C   UNL     1     -12.063   9.804  70.744  1.00  0.00    -0.279 C  
BRANCH  19  20
HETATM   20  N   UNL     1     -11.755   8.572  71.441  1.00  0.00    -0.283 NA 
HETATM   21  C   UNL     1     -12.372   7.365  71.261  1.00  0.00    -0.346 A  
HETATM   22  N   UNL     1     -10.744   7.165  72.813  1.00  0.00    -0.264 NA 
HETATM   23  C   UNL     1     -11.760   6.521  72.158  1.00  0.00    -0.311 A  
HETATM   24  C   UNL     1     -10.748   8.391  72.342  1.00  0.00    -0.335 A  
ENDBRANCH  19  20
ENDBRANCH  10  19
ENDBRANCH   9  10
ENDBRANCH   8   9
ENDBRANCH   5   8
TORSDOF 6
ENDMDL
MODEL      210
REMARK 921   NORMALIZED FREE ENERGY PREDICTED BY IDOCK:   -3.76 KCAL/MOL
REMARK 922        TOTAL FREE ENERGY PREDICTED BY IDOCK:   -6.20 KCAL/MOL
REMARK 923 INTER-LIGAND FREE ENERGY PREDICTED BY IDOCK:   -5.60 KCAL/MOL
REMARK 924 INTRA-LIGAND FREE ENERGY PREDICTED BY IDOCK:   -0.60 KCAL/MOL
REMARK 927      BINDING AFFINITY PREDICTED BY RF-SCORE:    0.00 PKD
ROOT
HETATM    1 CL   UNL     1     -13.206  15.202  70.761  1.00  0.00    -0.449 Cl 
HETATM    2  C   UNL     1     -12.890  13.515  70.877  1.00  0.00    -0.226 A  
HETATM    3  C   UNL     1     -12.050  12.901  69.953  1.00  0.00    -0.335 A  
HETATM    4  C   UNL     1     -11.807  11.527  70.043  1.00  0.00    -0.435 A  
HETATM    5  C   UNL     1     -12.403  10.760  71.058  1.00  0.00    -0.509 A  
HETATM    6  C   UNL     1     -13.242  11.396  71.984  1.00  0.00    -0.432 A  
HETATM    7  C   UNL     1     -13.481  12.769  71.894  1.00  0.00    -0.452 A  
ENDROOT
BRANCH   5   8
HETATM    8  C   UNL     1     -12.189   9.266  71.113  1.00  0.00    -0.301 C  
BRANCH   8   9
HETATM    9  O   UNL     1     -10.821   9.000  71.392  1.00  0.00    -0.274 OA 
BRANCH   9  10
HETATM   10  C   UNL     1     -10.197   7.978  70.583  1.00  0.00    -0.196 C  
BRANCH  10  11
HETATM   11  C   UNL     1      -9.061   7.331  71.395  1.00  0.00    -0.144 A  
HETATM   12  C   UNL     1      -6.901   6.153  72.805  1.00  0.00    -0.074 A  
HETATM   13  C   UNL     1      -9.240   6.758  72.672  1.00  0.00    -0.139 A  
HETATM   14  C   UNL     1      -7.745   7.330  70.879  1.00  0.00    -0.092 A  
HETATM   15  C   UNL     1      -8.176   6.148  73.356  1.00  0.00    -0.112 A  
HETATM   16 CL   UNL     1      -5.593   5.435  73.662  1.00  0.00    -0.023 Cl 
HETATM   17 CL   UNL     1     -10.745   6.806  73.521  1.00  0.00    -0.337 Cl 
HETATM   18  C   UNL     1      -6.676   6.757  71.577  1.00  0.00    -0.061 A  
ENDBRANCH  10  11
BRANCH  10  19
HETATM   19  C   UNL     1      -9.792   8.553  69.201  1.00  0.00    -0.186 C  
BRANCH  19  20
HETATM   20  N   UNL     1      -9.778   7.575  68.133  1.00  0.00    -0.151 NA 
HETATM   21  C   UNL     1     -10.416   6.365  68.135  1.00  0.00    -0.218 A  
HETATM   22  N   UNL     1      -9.334   6.652  66.175  1.00  0.00    -0.109 NA 
HETATM   23  C   UNL     1     -10.084   5.792  66.930  1.00  0.00    -0.192 A  
HETATM   24  C   UNL     1      -9.187   7.728  66.914  1.00  0.00    -0.152 A  
ENDBRANCH  19  20
ENDBRANCH  10  19
ENDBRANCH   9  10
ENDBRANCH   8   9
ENDBRANCH   5   8
TORSDOF 6
ENDMDL
MODEL      211
REMARK 921   NORMALIZED FREE ENERGY PREDICTED BY IDOCK:   -3.73 KCAL/MOL
REMARK 922        TOTAL FREE ENERGY PREDICTED BY IDOCK:   -6.17 KCAL/MOL
REMARK 923 INTER-LIGAND FREE ENERGY PREDICTED BY IDOCK:   -4.66 KCAL/MOL
REMARK 924 INTRA-LIGAND FREE ENERGY PREDICTED BY IDOCK:   -1.51 KCAL/MOL
REMARK 927      BINDING AFFINITY PREDICTED BY RF-SCORE:    0.00 PKD
ROOT
HETATM    1 CL   UNL     1      -6.175   9.970  67.304  1.00  0.00    -0.061 Cl 
HETATM    2  C   UNL     1      -7.513   9.815  68.373  1.00  0.00    -0.083 A  
HETATM    3  C   UNL     1      -8.811   9.867  67.874  1.00  0.00    -0.129 A  
HETATM    4  C   UNL     1      -9.896   9.754  68.749  1.00  0.00    -0.176 A  
HETATM    5  C   UNL     1      -9.687   9.591  70.129  1.00  0.00    -0.289 A  
HETATM    6  C   UNL     1      -8.373   9.537  70.614  1.00  0.00    -0.159 A  
HETATM    7  C   UNL     1      -7.291   9.646  69.738  1.00  0.00    -0.104 A  
ENDROOT
BRANCH   5   8
HETATM    8  C   UNL     1     -10.861   9.535  71.078  1.00  0.00    -0.353 C  
BRANCH   8   9
HETATM    9  O   UNL     1     -11.600   8.344  70.837  1.00  0.00    -0.277 OA 
BRANCH   9  10
HETATM   10  C   UNL     1     -10.983   7.116  71.282  1.00  0.00    -0.240 C  
BRANCH  10  11
HETATM   11  C   UNL     1     -10.391   6.392  70.060  1.00  0.00    -0.245 A  
HETATM   12  C   UNL     1      -9.397   5.070  67.756  1.00  0.00    -0.127 A  
HETATM   13  C   UNL     1      -9.110   5.800  70.045  1.00  0.00    -0.142 A  
HETATM   14  C   UNL     1     -11.130   6.332  68.856  1.00  0.00    -0.434 A  
HETATM   15  C   UNL     1      -8.631   5.120  68.914  1.00  0.00    -0.092 A  
HETATM   16 CL   UNL     1      -8.792   4.264  66.362  1.00  0.00    -0.113 Cl 
HETATM   17 CL   UNL     1      -8.009   5.910  71.373  1.00  0.00    -0.112 Cl 
HETATM   18  C   UNL     1     -10.637   5.688  67.716  1.00  0.00    -0.274 A  
ENDBRANCH  10  11
BRANCH  10  19
HETATM   19  C   UNL     1     -11.978   6.289  72.136  1.00  0.00    -0.287 C  
BRANCH  19  20
HETATM   20  N   UNL     1     -11.346   5.334  73.023  1.00  0.00    -0.320 NA 
HETATM   21  C   UNL     1     -10.407   5.614  73.976  1.00  0.00    -0.279 A  
HETATM   22  N   UNL     1     -10.875   3.405  73.994  1.00  0.00    -0.209 NA 
HETATM   23  C   UNL     1     -10.095   4.395  74.530  1.00  0.00    -0.219 A  
HETATM   24  C   UNL     1     -11.637   4.005  73.107  1.00  0.00     0.067 A  
ENDBRANCH  19  20
ENDBRANCH  10  19
ENDBRANCH   9  10
ENDBRANCH   8   9
ENDBRANCH   5   8
TORSDOF 6
ENDMDL
MODEL      212
REMARK 921   NORMALIZED FREE ENERGY PREDICTED BY IDOCK:   -3.73 KCAL/MOL
REMARK 922        TOTAL FREE ENERGY PREDICTED BY IDOCK:   -6.16 KCAL/MOL
REMARK 923 INTER-LIGAND FREE ENERGY PREDICTED BY IDOCK:   -5.18 KCAL/MOL
REMARK 924 INTRA-LIGAND FREE ENERGY PREDICTED BY IDOCK:   -0.98 KCAL/MOL
REMARK 927      BINDING AFFINITY PREDICTED BY RF-SCORE:    0.00 PKD
ROOT
HETATM    1 CL   UNL     1     -10.314  18.019  68.764  1.00  0.00    -0.349 Cl 
HETATM    2  C   UNL     1     -10.697  16.355  68.552  1.00  0.00    -0.320 A  
HETATM    3  C   UNL     1     -10.699  15.800  67.275  1.00  0.00    -0.313 A  
HETATM    4  C   UNL     1     -11.024  14.451  67.106  1.00  0.00    -0.305 A  
HETATM    5  C   UNL     1     -11.350  13.650  68.213  1.00  0.00    -0.322 A  
HETATM    6  C   UNL     1     -11.339  14.224  69.492  1.00  0.00    -0.315 A  
HETATM    7  C   UNL     1     -11.010  15.571  69.659  1.00  0.00    -0.288 A  
ENDROOT
BRANCH   5   8
HETATM    8  C   UNL     1     -11.764  12.210  68.020  1.00  0.00    -0.344 C  
BRANCH   8   9
HETATM    9  O   UNL     1     -10.817  11.562  67.180  1.00  0.00    -0.239 OA 
BRANCH   9  10
HETATM   10  C   UNL     1     -10.007  10.543  67.807  1.00  0.00    -0.171 C  
BRANCH  10  11
HETATM   11  C   UNL     1      -9.016   9.991  66.767  1.00  0.00    -0.151 A  
HETATM   12  C   UNL     1      -7.274   8.974  64.775  1.00  0.00    -0.096 A  
HETATM   13  C   UNL     1      -7.694   9.606  67.072  1.00  0.00    -0.095 A  
HETATM   14  C   UNL     1      -9.409   9.889  65.413  1.00  0.00    -0.297 A  
HETATM   15  C   UNL     1      -6.842   9.074  66.091  1.00  0.00    -0.081 A  
HETATM   16 CL   UNL     1      -6.214   8.353  63.570  1.00  0.00    -0.073 Cl 
HETATM   17 CL   UNL     1      -6.995   9.805  68.641  1.00  0.00    -0.062 Cl 
HETATM   18  C   UNL     1      -8.548   9.395  64.427  1.00  0.00    -0.214 A  
ENDBRANCH  10  11
BRANCH  10  19
HETATM   19  C   UNL     1     -10.905   9.490  68.505  1.00  0.00    -0.132 C  
BRANCH  19  20
HETATM   20  N   UNL     1     -10.259   8.787  69.594  1.00  0.00    -0.204 NA 
HETATM   21  C   UNL     1      -9.779   7.507  69.557  1.00  0.00    -0.164 A  
HETATM   22  N   UNL     1      -9.390   8.409  71.590  1.00  0.00    -0.191 NA 
HETATM   23  C   UNL     1      -9.290   7.280  70.822  1.00  0.00    -0.160 A  
HETATM   24  C   UNL     1      -9.954   9.308  70.816  1.00  0.00    -0.290 A  
ENDBRANCH  19  20
ENDBRANCH  10  19
ENDBRANCH   9  10
ENDBRANCH   8   9
ENDBRANCH   5   8
TORSDOF 6
ENDMDL
MODEL      213
REMARK 921   NORMALIZED FREE ENERGY PREDICTED BY IDOCK:   -3.71 KCAL/MOL
REMARK 922        TOTAL FREE ENERGY PREDICTED BY IDOCK:   -6.14 KCAL/MOL
REMARK 923 INTER-LIGAND FREE ENERGY PREDICTED BY IDOCK:   -5.29 KCAL/MOL
REMARK 924 INTRA-LIGAND FREE ENERGY PREDICTED BY IDOCK:   -0.85 KCAL/MOL
REMARK 927      BINDING AFFINITY PREDICTED BY RF-SCORE:    0.00 PKD
ROOT
HETATM    1 CL   UNL     1      -9.246   8.293  72.856  1.00  0.00    -0.335 Cl 
HETATM    2  C   UNL     1      -9.609   8.472  71.184  1.00  0.00    -0.193 A  
HETATM    3  C   UNL     1     -10.357   9.563  70.749  1.00  0.00    -0.377 A  
HETATM    4  C   UNL     1     -10.661   9.697  69.391  1.00  0.00    -0.243 A  
HETATM    5  C   UNL     1     -10.220   8.741  68.461  1.00  0.00    -0.220 A  
HETATM    6  C   UNL     1      -9.465   7.651  68.916  1.00  0.00    -0.149 A  
HETATM    7  C   UNL     1      -9.159   7.520  70.273  1.00  0.00    -0.154 A  
ENDROOT
BRANCH   5   8
HETATM    8  C   UNL     1     -10.606   8.855  67.005  1.00  0.00    -0.209 C  
BRANCH   8   9
HETATM    9  O   UNL     1      -9.429   8.989  66.219  1.00  0.00    -0.201 OA 
BRANCH   9  10
HETATM   10  C   UNL     1      -8.728  10.247  66.339  1.00  0.00    -0.135 C  
BRANCH  10  11
HETATM   11  C   UNL     1      -9.622  11.365  65.774  1.00  0.00    -0.260 A  
HETATM   12  C   UNL     1     -11.277  13.468  64.836  1.00  0.00    -0.342 A  
HETATM   13  C   UNL     1     -10.078  11.404  64.440  1.00  0.00    -0.291 A  
HETATM   14  C   UNL     1      -9.992  12.449  66.602  1.00  0.00    -0.236 A  
HETATM   15  C   UNL     1     -10.922  12.430  63.985  1.00  0.00    -0.442 A  
HETATM   16 CL   UNL     1     -12.283  14.740  64.264  1.00  0.00    -0.489 Cl 
HETATM   17 CL   UNL     1      -9.599  10.246  63.249  1.00  0.00    -0.341 Cl 
HETATM   18  C   UNL     1     -10.802  13.493  66.139  1.00  0.00    -0.284 A  
ENDBRANCH  10  11
BRANCH  10  19
HETATM   19  C   UNL     1      -7.312  10.139  65.717  1.00  0.00    -0.128 C  
BRANCH  19  20
HETATM   20  N   UNL     1      -6.824   8.782  65.585  1.00  0.00    -0.074 NA 
HETATM   21  C   UNL     1      -6.267   8.023  66.577  1.00  0.00    -0.050 A  
HETATM   22  N   UNL     1      -6.351   6.831  64.661  1.00  0.00    -0.038 NA 
HETATM   23  C   UNL     1      -5.938   6.835  65.967  1.00  0.00    -0.034 A  
HETATM   24  C   UNL     1      -6.904   8.007  64.467  1.00  0.00    -0.063 A  
ENDBRANCH  19  20
ENDBRANCH  10  19
ENDBRANCH   9  10
ENDBRANCH   8   9
ENDBRANCH   5   8
TORSDOF 6
ENDMDL
MODEL      214
REMARK 921   NORMALIZED FREE ENERGY PREDICTED BY IDOCK:   -3.70 KCAL/MOL
REMARK 922        TOTAL FREE ENERGY PREDICTED BY IDOCK:   -6.13 KCAL/MOL
REMARK 923 INTER-LIGAND FREE ENERGY PREDICTED BY IDOCK:   -5.18 KCAL/MOL
REMARK 924 INTRA-LIGAND FREE ENERGY PREDICTED BY IDOCK:   -0.94 KCAL/MOL
REMARK 927      BINDING AFFINITY PREDICTED BY RF-SCORE:    0.00 PKD
ROOT
HETATM    1 CL   UNL     1     -11.493   5.929  71.899  1.00  0.00    -0.319 Cl 
HETATM    2  C   UNL     1     -11.135   6.684  70.395  1.00  0.00    -0.322 A  
HETATM    3  C   UNL     1     -10.974   8.065  70.333  1.00  0.00    -0.248 A  
HETATM    4  C   UNL     1     -10.696   8.676  69.106  1.00  0.00    -0.136 A  
HETATM    5  C   UNL     1     -10.580   7.909  67.935  1.00  0.00    -0.215 A  
HETATM    6  C   UNL     1     -10.741   6.518  68.017  1.00  0.00    -0.351 A  
HETATM    7  C   UNL     1     -11.014   5.910  69.244  1.00  0.00    -0.397 A  
ENDROOT
BRANCH   5   8
HETATM    8  C   UNL     1     -10.345   8.579  66.602  1.00  0.00    -0.233 C  
BRANCH   8   9
HETATM    9  O   UNL     1     -10.608   9.971  66.727  1.00  0.00    -0.218 OA 
BRANCH   9  10
HETATM   10  C   UNL     1      -9.502  10.853  66.432  1.00  0.00    -0.187 C  
BRANCH  10  11
HETATM   11  C   UNL     1      -9.709  12.174  67.194  1.00  0.00    -0.203 A  
HETATM   12  C   UNL     1     -10.202  14.592  68.591  1.00  0.00    -0.244 A  
HETATM   13  C   UNL     1      -8.663  13.061  67.524  1.00  0.00    -0.197 A  
HETATM   14  C   UNL     1     -11.004  12.530  67.637  1.00  0.00    -0.279 A  
HETATM   15  C   UNL     1      -8.912  14.272  68.188  1.00  0.00    -0.189 A  
HETATM   16 CL   UNL     1     -10.497  16.061  69.436  1.00  0.00    -0.250 Cl 
HETATM   17 CL   UNL     1      -7.001  12.715  67.198  1.00  0.00    -0.093 Cl 
HETATM   18  C   UNL     1     -11.248  13.719  68.334  1.00  0.00    -0.300 A  
ENDBRANCH  10  11
BRANCH  10  19
HETATM   19  C   UNL     1      -9.307  10.984  64.900  1.00  0.00    -0.214 C  
BRANCH  19  20
HETATM   20  N   UNL     1      -8.118  10.330  64.395  1.00  0.00    -0.164 NA 
HETATM   21  C   UNL     1      -7.255   9.550  65.117  1.00  0.00    -0.108 A  
HETATM   22  N   UNL     1      -6.571   9.656  62.968  1.00  0.00    -0.103 NA 
HETATM   23  C   UNL     1      -6.279   9.186  64.220  1.00  0.00    -0.075 A  
HETATM   24  C   UNL     1      -7.697  10.320  63.099  1.00  0.00    -0.140 A  
ENDBRANCH  19  20
ENDBRANCH  10  19
ENDBRANCH   9  10
ENDBRANCH   8   9
ENDBRANCH   5   8
TORSDOF 6
ENDMDL
MODEL      215
REMARK 921   NORMALIZED FREE ENERGY PREDICTED BY IDOCK:   -3.69 KCAL/MOL
REMARK 922        TOTAL FREE ENERGY PREDICTED BY IDOCK:   -6.11 KCAL/MOL
REMARK 923 INTER-LIGAND FREE ENERGY PREDICTED BY IDOCK:   -4.95 KCAL/MOL
REMARK 924 INTRA-LIGAND FREE ENERGY PREDICTED BY IDOCK:   -1.15 KCAL/MOL
REMARK 927      BINDING AFFINITY PREDICTED BY RF-SCORE:    0.00 PKD
ROOT
HETATM    1 CL   UNL     1     -13.455  11.775  72.003  1.00  0.00    -0.461 Cl 
HETATM    2  C   UNL     1     -12.857  10.232  71.535  1.00  0.00    -0.452 A  
HETATM    3  C   UNL     1     -11.668  10.136  70.818  1.00  0.00    -0.446 A  
HETATM    4  C   UNL     1     -11.193   8.880  70.428  1.00  0.00    -0.259 A  
HETATM    5  C   UNL     1     -11.904   7.714  70.753  1.00  0.00    -0.227 A  
HETATM    6  C   UNL     1     -13.098   7.828  71.479  1.00  0.00    -0.356 A  
HETATM    7  C   UNL     1     -13.569   9.083  71.871  1.00  0.00    -0.486 A  
ENDROOT
BRANCH   5   8
HETATM    8  C   UNL     1     -11.422   6.365  70.274  1.00  0.00    -0.402 C  
BRANCH   8   9
HETATM    9  O   UNL     1     -10.213   6.534  69.544  1.00  0.00    -0.174 OA 
BRANCH   9  10
HETATM   10  C   UNL     1      -9.068   5.803  70.037  1.00  0.00    -0.142 C  
BRANCH  10  11
HETATM   11  C   UNL     1      -8.448   6.588  71.206  1.00  0.00    -0.126 A  
HETATM   12  C   UNL     1      -7.243   8.093  73.286  1.00  0.00    -0.127 A  
HETATM   13  C   UNL     1      -8.697   6.299  72.564  1.00  0.00    -0.120 A  
HETATM   14  C   UNL     1      -7.608   7.693  70.938  1.00  0.00    -0.080 A  
HETATM   15  C   UNL     1      -8.076   7.025  73.593  1.00  0.00    -0.127 A  
HETATM   16 CL   UNL     1      -6.512   9.001  74.551  1.00  0.00    -0.097 Cl 
HETATM   17 CL   UNL     1      -9.816   5.084  73.076  1.00  0.00    -0.170 Cl 
HETATM   18  C   UNL     1      -7.019   8.442  71.963  1.00  0.00    -0.100 A  
ENDBRANCH  10  11
BRANCH  10  19
HETATM   19  C   UNL     1      -8.105   5.457  68.873  1.00  0.00    -0.094 C  
BRANCH  19  20
HETATM   20  N   UNL     1      -8.322   4.148  68.292  1.00  0.00    -0.091 NA 
HETATM   21  C   UNL     1      -9.446   3.733  67.632  1.00  0.00    -0.185 A  
HETATM   22  N   UNL     1      -7.923   2.067  67.667  1.00  0.00    -0.060 NA 
HETATM   23  C   UNL     1      -9.192   2.424  67.298  1.00  0.00    -0.117 A  
HETATM   24  C   UNL     1      -7.414   3.133  68.240  1.00  0.00    -0.053 A  
ENDBRANCH  19  20
ENDBRANCH  10  19
ENDBRANCH   9  10
ENDBRANCH   8   9
ENDBRANCH   5   8
TORSDOF 6
ENDMDL
MODEL      216
REMARK 921   NORMALIZED FREE ENERGY PREDICTED BY IDOCK:   -3.68 KCAL/MOL
REMARK 922        TOTAL FREE ENERGY PREDICTED BY IDOCK:   -6.10 KCAL/MOL
REMARK 923 INTER-LIGAND FREE ENERGY PREDICTED BY IDOCK:   -5.38 KCAL/MOL
REMARK 924 INTRA-LIGAND FREE ENERGY PREDICTED BY IDOCK:   -0.73 KCAL/MOL
REMARK 927      BINDING AFFINITY PREDICTED BY RF-SCORE:    0.00 PKD
ROOT
HETATM    1 CL   UNL     1      -8.422   3.293  64.876  1.00  0.00    -0.097 Cl 
HETATM    2  C   UNL     1      -8.113   4.944  65.246  1.00  0.00    -0.115 A  
HETATM    3  C   UNL     1      -7.789   5.315  66.548  1.00  0.00    -0.100 A  
HETATM    4  C   UNL     1      -7.552   6.660  66.847  1.00  0.00    -0.095 A  
HETATM    5  C   UNL     1      -7.639   7.642  65.846  1.00  0.00    -0.091 A  
HETATM    6  C   UNL     1      -7.962   7.250  64.539  1.00  0.00    -0.112 A  
HETATM    7  C   UNL     1      -8.195   5.905  64.241  1.00  0.00    -0.088 A  
ENDROOT
BRANCH   5   8
HETATM    8  C   UNL     1      -7.446   9.101  66.186  1.00  0.00    -0.095 C  
BRANCH   8   9
HETATM    9  O   UNL     1      -8.573   9.561  66.922  1.00  0.00    -0.126 OA 
BRANCH   9  10
HETATM   10  C   UNL     1      -9.865   9.284  66.338  1.00  0.00    -0.277 C  
BRANCH  10  11
HETATM   11  C   UNL     1     -10.454  10.600  65.799  1.00  0.00    -0.235 A  
HETATM   12  C   UNL     1     -11.586  13.041  64.906  1.00  0.00    -0.326 A  
HETATM   13  C   UNL     1     -10.360  11.006  64.451  1.00  0.00    -0.358 A  
HETATM   14  C   UNL     1     -11.099  11.492  66.686  1.00  0.00    -0.355 A  
HETATM   15  C   UNL     1     -10.947  12.201  64.005  1.00  0.00    -0.438 A  
HETATM   16 CL   UNL     1     -12.274  14.520  64.359  1.00  0.00    -0.507 Cl 
HETATM   17 CL   UNL     1      -9.477  10.116  63.261  1.00  0.00    -0.333 Cl 
HETATM   18  C   UNL     1     -11.650  12.702  66.249  1.00  0.00    -0.440 A  
ENDBRANCH  10  11
BRANCH  10  19
HETATM   19  C   UNL     1     -10.758   8.509  67.341  1.00  0.00    -0.145 C  
BRANCH  19  20
HETATM   20  N   UNL     1     -10.323   8.607  68.720  1.00  0.00    -0.211 NA 
HETATM   21  C   UNL     1     -10.468   9.693  69.538  1.00  0.00    -0.224 A  
HETATM   22  N   UNL     1      -9.461   8.017  70.667  1.00  0.00    -0.161 NA 
HETATM   23  C   UNL     1      -9.881   9.319  70.724  1.00  0.00    -0.283 A  
HETATM   24  C   UNL     1      -9.764   7.606  69.457  1.00  0.00    -0.168 A  
ENDBRANCH  19  20
ENDBRANCH  10  19
ENDBRANCH   9  10
ENDBRANCH   8   9
ENDBRANCH   5   8
TORSDOF 6
ENDMDL
MODEL      217
REMARK 921   NORMALIZED FREE ENERGY PREDICTED BY IDOCK:   -3.67 KCAL/MOL
REMARK 922        TOTAL FREE ENERGY PREDICTED BY IDOCK:   -6.08 KCAL/MOL
REMARK 923 INTER-LIGAND FREE ENERGY PREDICTED BY IDOCK:   -4.65 KCAL/MOL
REMARK 924 INTRA-LIGAND FREE ENERGY PREDICTED BY IDOCK:   -1.44 KCAL/MOL
REMARK 927      BINDING AFFINITY PREDICTED BY RF-SCORE:    0.00 PKD
ROOT
HETATM    1 CL   UNL     1      -6.850   3.234  70.679  1.00  0.00    -0.033 Cl 
HETATM    2  C   UNL     1      -7.492   4.806  70.951  1.00  0.00    -0.064 A  
HETATM    3  C   UNL     1      -6.751   5.930  70.596  1.00  0.00    -0.053 A  
HETATM    4  C   UNL     1      -7.272   7.206  70.832  1.00  0.00    -0.070 A  
HETATM    5  C   UNL     1      -8.535   7.365  71.424  1.00  0.00    -0.113 A  
HETATM    6  C   UNL     1      -9.270   6.222  71.770  1.00  0.00    -0.145 A  
HETATM    7  C   UNL     1      -8.750   4.948  71.531  1.00  0.00    -0.141 A  
ENDROOT
BRANCH   5   8
HETATM    8  C   UNL     1      -9.066   8.745  71.736  1.00  0.00    -0.235 C  
BRANCH   8   9
HETATM    9  O   UNL     1      -9.114   9.508  70.537  1.00  0.00    -0.247 OA 
BRANCH   9  10
HETATM   10  C   UNL     1     -10.206   9.209  69.639  1.00  0.00    -0.203 C  
BRANCH  10  11
HETATM   11  C   UNL     1      -9.635   8.545  68.374  1.00  0.00    -0.157 A  
HETATM   12  C   UNL     1      -8.523   7.414  66.023  1.00  0.00    -0.148 A  
HETATM   13  C   UNL     1     -10.083   7.306  67.869  1.00  0.00    -0.177 A  
HETATM   14  C   UNL     1      -8.575   9.167  67.675  1.00  0.00    -0.117 A  
HETATM   15  C   UNL     1      -9.553   6.762  66.689  1.00  0.00    -0.211 A  
HETATM   16 CL   UNL     1      -7.853   6.726  64.596  1.00  0.00    -0.112 Cl 
HETATM   17 CL   UNL     1     -11.262   6.333  68.677  1.00  0.00    -0.413 Cl 
HETATM   18  C   UNL     1      -8.019   8.606  66.520  1.00  0.00    -0.099 A  
ENDBRANCH  10  11
BRANCH  10  19
HETATM   19  C   UNL     1     -11.074  10.471  69.403  1.00  0.00    -0.258 C  
BRANCH  19  20
HETATM   20  N   UNL     1     -12.003  10.761  70.476  1.00  0.00    -0.331 NA 
HETATM   21  C   UNL     1     -12.532   9.855  71.355  1.00  0.00    -0.398 A  
HETATM   22  N   UNL     1     -13.302  11.923  71.835  1.00  0.00    -0.405 NA 
HETATM   23  C   UNL     1     -13.372  10.593  72.155  1.00  0.00    -0.230 A  
HETATM   24  C   UNL     1     -12.450  11.996  70.837  1.00  0.00    -0.288 A  
ENDBRANCH  19  20
ENDBRANCH  10  19
ENDBRANCH   9  10
ENDBRANCH   8   9
ENDBRANCH   5   8
TORSDOF 6
ENDMDL
MODEL      218
REMARK 921   NORMALIZED FREE ENERGY PREDICTED BY IDOCK:   -3.66 KCAL/MOL
REMARK 922        TOTAL FREE ENERGY PREDICTED BY IDOCK:   -6.07 KCAL/MOL
REMARK 923 INTER-LIGAND FREE ENERGY PREDICTED BY IDOCK:   -5.30 KCAL/MOL
REMARK 924 INTRA-LIGAND FREE ENERGY PREDICTED BY IDOCK:   -0.77 KCAL/MOL
REMARK 927      BINDING AFFINITY PREDICTED BY RF-SCORE:    0.00 PKD
ROOT
HETATM    1 CL   UNL     1     -11.606  14.848  64.822  1.00  0.00    -0.412 Cl 
HETATM    2  C   UNL     1     -11.219  13.260  65.357  1.00  0.00    -0.287 A  
HETATM    3  C   UNL     1     -10.516  12.397  64.521  1.00  0.00    -0.352 A  
HETATM    4  C   UNL     1     -10.215  11.103  64.956  1.00  0.00    -0.354 A  
HETATM    5  C   UNL     1     -10.618  10.664  66.228  1.00  0.00    -0.229 A  
HETATM    6  C   UNL     1     -11.322  11.547  67.059  1.00  0.00    -0.340 A  
HETATM    7  C   UNL     1     -11.618  12.841  66.624  1.00  0.00    -0.430 A  
ENDROOT
BRANCH   5   8
HETATM    8  C   UNL     1     -10.348   9.244  66.668  1.00  0.00    -0.222 C  
BRANCH   8   9
HETATM    9  O   UNL     1     -10.449   9.167  68.084  1.00  0.00    -0.211 OA 
BRANCH   9  10
HETATM   10  C   UNL     1      -9.234   8.823  68.788  1.00  0.00    -0.141 C  
BRANCH  10  11
HETATM   11  C   UNL     1      -9.305   7.341  69.196  1.00  0.00    -0.146 A  
HETATM   12  C   UNL     1      -9.536   4.629  69.993  1.00  0.00    -0.188 A  
HETATM   13  C   UNL     1      -8.236   6.433  69.040  1.00  0.00    -0.115 A  
HETATM   14  C   UNL     1     -10.508   6.817  69.723  1.00  0.00    -0.240 A  
HETATM   15  C   UNL     1      -8.341   5.099  69.463  1.00  0.00    -0.093 A  
HETATM   16 CL   UNL     1      -9.671   2.984  70.478  1.00  0.00    -0.179 Cl 
HETATM   17 CL   UNL     1      -6.746   6.860  68.273  1.00  0.00    -0.065 Cl 
HETATM   18  C   UNL     1     -10.626   5.477  70.109  1.00  0.00    -0.367 A  
ENDBRANCH  10  11
BRANCH  10  19
HETATM   19  C   UNL     1      -8.973   9.826  69.940  1.00  0.00    -0.229 C  
BRANCH  19  20
HETATM   20  N   UNL     1      -7.997   9.374  70.910  1.00  0.00    -0.301 NA 
HETATM   21  C   UNL     1      -6.652   9.623  70.879  1.00  0.00    -0.072 A  
HETATM   22  N   UNL     1      -7.160   8.406  72.712  1.00  0.00    -0.200 NA 
HETATM   23  C   UNL     1      -6.150   8.970  71.980  1.00  0.00    -0.051 A  
HETATM   24  C   UNL     1      -8.263   8.688  72.056  1.00  0.00    -0.084 A  
ENDBRANCH  19  20
ENDBRANCH  10  19
ENDBRANCH   9  10
ENDBRANCH   8   9
ENDBRANCH   5   8
TORSDOF 6
ENDMDL
MODEL      219
REMARK 921   NORMALIZED FREE ENERGY PREDICTED BY IDOCK:   -3.66 KCAL/MOL
REMARK 922        TOTAL FREE ENERGY PREDICTED BY IDOCK:   -6.07 KCAL/MOL
REMARK 923 INTER-LIGAND FREE ENERGY PREDICTED BY IDOCK:   -5.32 KCAL/MOL
REMARK 924 INTRA-LIGAND FREE ENERGY PREDICTED BY IDOCK:   -0.75 KCAL/MOL
REMARK 927      BINDING AFFINITY PREDICTED BY RF-SCORE:    0.00 PKD
ROOT
HETATM    1 CL   UNL     1     -14.080  15.883  72.951  1.00  0.00    -0.508 Cl 
HETATM    2  C   UNL     1     -12.937  15.229  71.845  1.00  0.00    -0.384 A  
HETATM    3  C   UNL     1     -11.628  15.702  71.838  1.00  0.00    -0.547 A  
HETATM    4  C   UNL     1     -10.706  15.176  70.927  1.00  0.00    -0.062 A  
HETATM    5  C   UNL     1     -11.089  14.176  70.019  1.00  0.00    -0.025 A  
HETATM    6  C   UNL     1     -12.410  13.708  70.042  1.00  0.00    -0.342 A  
HETATM    7  C   UNL     1     -13.329  14.232  70.955  1.00  0.00    -0.326 A  
ENDROOT
BRANCH   5   8
HETATM    8  C   UNL     1     -10.108  13.658  68.994  1.00  0.00     0.054 C  
BRANCH   8   9
HETATM    9  O   UNL     1     -10.680  13.777  67.698  1.00  0.00    -0.246 OA 
BRANCH   9  10
HETATM   10  C   UNL     1      -9.747  13.838  66.596  1.00  0.00    -0.289 C  
BRANCH  10  11
HETATM   11  C   UNL     1      -9.367  15.309  66.352  1.00  0.00    -0.328 A  
HETATM   12  C   UNL     1      -8.769  18.036  65.857  1.00  0.00     0.190 A  
HETATM   13  C   UNL     1      -8.081  15.836  66.592  1.00  0.00    -0.247 A  
HETATM   14  C   UNL     1     -10.350  16.219  65.900  1.00  0.00    -0.381 A  
HETATM   15  C   UNL     1      -7.778  17.179  66.317  1.00  0.00    -0.350 A  
HETATM   16 CL   UNL     1      -8.401  19.689  65.555  1.00  0.00     0.175 Cl 
HETATM   17 CL   UNL     1      -6.799  14.907  67.288  1.00  0.00    -0.120 Cl 
HETATM   18  C   UNL     1     -10.059  17.567  65.664  1.00  0.00    -0.007 A  
ENDBRANCH  10  11
BRANCH  10  19
HETATM   19  C   UNL     1     -10.308  13.076  65.369  1.00  0.00    -0.300 C  
BRANCH  19  20
HETATM   20  N   UNL     1     -10.089  11.645  65.408  1.00  0.00    -0.248 NA 
HETATM   21  C   UNL     1     -10.365  10.813  66.458  1.00  0.00    -0.244 A  
HETATM   22  N   UNL     1      -9.528   9.615  64.736  1.00  0.00    -0.246 NA 
HETATM   23  C   UNL     1      -9.962   9.568  66.034  1.00  0.00    -0.278 A  
HETATM   24  C   UNL     1      -9.640  10.874  64.377  1.00  0.00    -0.265 A  
ENDBRANCH  19  20
ENDBRANCH  10  19
ENDBRANCH   9  10
ENDBRANCH   8   9
ENDBRANCH   5   8
TORSDOF 6
ENDMDL
MODEL      220
REMARK 921   NORMALIZED FREE ENERGY PREDICTED BY IDOCK:   -3.64 KCAL/MOL
REMARK 922        TOTAL FREE ENERGY PREDICTED BY IDOCK:   -6.04 KCAL/MOL
REMARK 923 INTER-LIGAND FREE ENERGY PREDICTED BY IDOCK:   -5.26 KCAL/MOL
REMARK 924 INTRA-LIGAND FREE ENERGY PREDICTED BY IDOCK:   -0.78 KCAL/MOL
REMARK 927      BINDING AFFINITY PREDICTED BY RF-SCORE:    0.00 PKD
ROOT
HETATM    1 CL   UNL     1     -10.879  17.374  65.080  1.00  0.00    -0.092 Cl 
HETATM    2  C   UNL     1     -10.853  15.657  64.973  1.00  0.00    -0.450 A  
HETATM    3  C   UNL     1     -11.877  14.987  64.310  1.00  0.00    -0.289 A  
HETATM    4  C   UNL     1     -11.859  13.591  64.238  1.00  0.00    -0.471 A  
HETATM    5  C   UNL     1     -10.817  12.858  64.829  1.00  0.00    -0.350 A  
HETATM    6  C   UNL     1      -9.792  13.549  65.489  1.00  0.00    -0.165 A  
HETATM    7  C   UNL     1      -9.809  14.944  65.557  1.00  0.00    -0.348 A  
ENDROOT
BRANCH   5   8
HETATM    8  C   UNL     1     -10.836  11.347  64.805  1.00  0.00    -0.273 C  
BRANCH   8   9
HETATM    9  O   UNL     1     -10.729  10.858  66.136  1.00  0.00    -0.235 OA 
BRANCH   9  10
HETATM   10  C   UNL     1      -9.451  10.292  66.501  1.00  0.00    -0.171 C  
BRANCH  10  11
HETATM   11  C   UNL     1      -9.565   8.757  66.468  1.00  0.00    -0.302 A  
HETATM   12  C   UNL     1      -9.857   5.937  66.483  1.00  0.00    -0.152 A  
HETATM   13  C   UNL     1      -8.675   7.921  65.762  1.00  0.00    -0.135 A  
HETATM   14  C   UNL     1     -10.633   8.121  67.141  1.00  0.00    -0.355 A  
HETATM   15  C   UNL     1      -8.803   6.523  65.795  1.00  0.00    -0.097 A  
HETATM   16 CL   UNL     1     -10.029   4.225  66.492  1.00  0.00    -0.243 Cl 
HETATM   17 CL   UNL     1      -7.405   8.532  64.761  1.00  0.00    -0.088 Cl 
HETATM   18  C   UNL     1     -10.784   6.730  67.142  1.00  0.00    -0.441 A  
ENDBRANCH  10  11
BRANCH  10  19
HETATM   19  C   UNL     1      -8.951  10.900  67.836  1.00  0.00    -0.141 C  
BRANCH  19  20
HETATM   20  N   UNL     1      -7.541  11.232  67.846  1.00  0.00    -0.097 NA 
HETATM   21  C   UNL     1      -6.732  11.355  66.750  1.00  0.00    -0.137 A  
HETATM   22  N   UNL     1      -5.547  11.781  68.624  1.00  0.00    -0.046 NA 
HETATM   23  C   UNL     1      -5.490  11.647  67.262  1.00  0.00    -0.090 A  
HETATM   24  C   UNL     1      -6.800  11.550  68.944  1.00  0.00    -0.095 A  
ENDBRANCH  19  20
ENDBRANCH  10  19
ENDBRANCH   9  10
ENDBRANCH   8   9
ENDBRANCH   5   8
TORSDOF 6
ENDMDL
MODEL      221
REMARK 921   NORMALIZED FREE ENERGY PREDICTED BY IDOCK:   -3.63 KCAL/MOL
REMARK 922        TOTAL FREE ENERGY PREDICTED BY IDOCK:   -6.03 KCAL/MOL
REMARK 923 INTER-LIGAND FREE ENERGY PREDICTED BY IDOCK:   -5.97 KCAL/MOL
REMARK 924 INTRA-LIGAND FREE ENERGY PREDICTED BY IDOCK:   -0.06 KCAL/MOL
REMARK 927      BINDING AFFINITY PREDICTED BY RF-SCORE:    0.00 PKD
ROOT
HETATM    1 CL   UNL     1      -7.272   3.945  70.382  1.00  0.00    -0.041 Cl 
HETATM    2  C   UNL     1      -7.729   5.598  70.255  1.00  0.00    -0.090 A  
HETATM    3  C   UNL     1      -7.640   6.251  69.029  1.00  0.00    -0.096 A  
HETATM    4  C   UNL     1      -8.001   7.599  68.933  1.00  0.00    -0.125 A  
HETATM    5  C   UNL     1      -8.450   8.301  70.064  1.00  0.00    -0.123 A  
HETATM    6  C   UNL     1      -8.537   7.627  71.290  1.00  0.00    -0.124 A  
HETATM    7  C   UNL     1      -8.180   6.280  71.383  1.00  0.00    -0.122 A  
ENDROOT
BRANCH   5   8
HETATM    8  C   UNL     1      -8.775   9.773  69.970  1.00  0.00    -0.209 C  
BRANCH   8   9
HETATM    9  O   UNL     1      -9.464  10.022  68.751  1.00  0.00    -0.150 OA 
BRANCH   9  10
HETATM   10  C   UNL     1     -10.855  10.392  68.874  1.00  0.00    -0.236 C  
BRANCH  10  11
HETATM   11  C   UNL     1     -11.193  11.412  67.772  1.00  0.00    -0.346 A  
HETATM   12  C   UNL     1     -11.794  13.212  65.665  1.00  0.00    -0.387 A  
HETATM   13  C   UNL     1     -11.471  12.772  68.022  1.00  0.00    -0.318 A  
HETATM   14  C   UNL     1     -11.276  10.985  66.427  1.00  0.00    -0.041 A  
HETATM   15  C   UNL     1     -11.739  13.669  66.975  1.00  0.00    -0.419 A  
HETATM   16 CL   UNL     1     -12.156  14.307  64.389  1.00  0.00    -0.491 Cl 
HETATM   17 CL   UNL     1     -11.565  13.434  69.616  1.00  0.00    -0.347 Cl 
HETATM   18  C   UNL     1     -11.581  11.870  65.387  1.00  0.00    -0.284 A  
ENDBRANCH  10  11
BRANCH  10  19
HETATM   19  C   UNL     1     -11.170  10.841  70.324  1.00  0.00    -0.245 C  
BRANCH  19  20
HETATM   20  N   UNL     1     -12.085   9.968  71.030  1.00  0.00    -0.344 NA 
HETATM   21  C   UNL     1     -13.080  10.359  71.883  1.00  0.00    -0.458 A  
HETATM   22  N   UNL     1     -13.077   8.109  71.697  1.00  0.00    -0.338 NA 
HETATM   23  C   UNL     1     -13.648   9.186  72.321  1.00  0.00    -0.489 A  
HETATM   24  C   UNL     1     -12.157   8.613  70.906  1.00  0.00    -0.147 A  
ENDBRANCH  19  20
ENDBRANCH  10  19
ENDBRANCH   9  10
ENDBRANCH   8   9
ENDBRANCH   5   8
TORSDOF 6
ENDMDL
MODEL      222
REMARK 921   NORMALIZED FREE ENERGY PREDICTED BY IDOCK:   -3.63 KCAL/MOL
REMARK 922        TOTAL FREE ENERGY PREDICTED BY IDOCK:   -6.03 KCAL/MOL
REMARK 923 INTER-LIGAND FREE ENERGY PREDICTED BY IDOCK:   -6.17 KCAL/MOL
REMARK 924 INTRA-LIGAND FREE ENERGY PREDICTED BY IDOCK:    0.14 KCAL/MOL
REMARK 927      BINDING AFFINITY PREDICTED BY RF-SCORE:    0.00 PKD
ROOT
HETATM    1 CL   UNL     1      -7.374   7.216  66.437  1.00  0.00    -0.078 Cl 
HETATM    2  C   UNL     1      -7.748   8.809  66.968  1.00  0.00    -0.095 A  
HETATM    3  C   UNL     1      -7.584   9.151  68.307  1.00  0.00    -0.083 A  
HETATM    4  C   UNL     1      -7.902  10.444  68.736  1.00  0.00    -0.108 A  
HETATM    5  C   UNL     1      -8.387  11.399  67.828  1.00  0.00    -0.127 A  
HETATM    6  C   UNL     1      -8.542  11.039  66.482  1.00  0.00    -0.165 A  
HETATM    7  C   UNL     1      -8.220   9.749  66.055  1.00  0.00    -0.117 A  
ENDROOT
BRANCH   5   8
HETATM    8  C   UNL     1      -8.791  12.774  68.308  1.00  0.00    -0.168 C  
BRANCH   8   9
HETATM    9  O   UNL     1     -10.036  13.126  67.718  1.00  0.00    -0.216 OA 
BRANCH   9  10
HETATM   10  C   UNL     1     -11.000  13.747  68.597  1.00  0.00    -0.266 C  
BRANCH  10  11
HETATM   11  C   UNL     1     -11.683  12.651  69.433  1.00  0.00    -0.387 A  
HETATM   12  C   UNL     1     -12.948  10.702  71.058  1.00  0.00    -0.363 A  
HETATM   13  C   UNL     1     -11.850  11.321  68.993  1.00  0.00    -0.352 A  
HETATM   14  C   UNL     1     -12.220  12.971  70.701  1.00  0.00    -0.390 A  
HETATM   15  C   UNL     1     -12.449  10.349  69.811  1.00  0.00    -0.051 A  
HETATM   16 CL   UNL     1     -13.712   9.515  72.043  1.00  0.00    -0.446 Cl 
HETATM   17 CL   UNL     1     -11.394  10.789  67.412  1.00  0.00    -0.324 Cl 
HETATM   18  C   UNL     1     -12.852  12.012  71.501  1.00  0.00    -0.403 A  
ENDBRANCH  10  11
BRANCH  10  19
HETATM   19  C   UNL     1     -11.951  14.670  67.793  1.00  0.00    -0.268 C  
BRANCH  19  20
HETATM   20  N   UNL     1     -11.918  14.453  66.361  1.00  0.00    -0.404 NA 
HETATM   21  C   UNL     1     -12.612  13.496  65.673  1.00  0.00    -0.459 A  
HETATM   22  N   UNL     1     -11.399  14.743  64.233  1.00  0.00    -0.172 NA 
HETATM   23  C   UNL     1     -12.235  13.666  64.361  1.00  0.00    -0.390 A  
HETATM   24  C   UNL     1     -11.247  15.212  65.450  1.00  0.00    -0.338 A  
ENDBRANCH  19  20
ENDBRANCH  10  19
ENDBRANCH   9  10
ENDBRANCH   8   9
ENDBRANCH   5   8
TORSDOF 6
ENDMDL
MODEL      223
REMARK 921   NORMALIZED FREE ENERGY PREDICTED BY IDOCK:   -3.62 KCAL/MOL
REMARK 922        TOTAL FREE ENERGY PREDICTED BY IDOCK:   -6.01 KCAL/MOL
REMARK 923 INTER-LIGAND FREE ENERGY PREDICTED BY IDOCK:   -5.23 KCAL/MOL
REMARK 924 INTRA-LIGAND FREE ENERGY PREDICTED BY IDOCK:   -0.78 KCAL/MOL
REMARK 927      BINDING AFFINITY PREDICTED BY RF-SCORE:    0.00 PKD
ROOT
HETATM    1 CL   UNL     1     -12.842  14.092  65.508  1.00  0.00    -0.534 Cl 
HETATM    2  C   UNL     1     -11.890  12.690  65.802  1.00  0.00    -0.444 A  
HETATM    3  C   UNL     1     -11.762  12.196  67.097  1.00  0.00    -0.372 A  
HETATM    4  C   UNL     1     -10.976  11.064  67.333  1.00  0.00    -0.349 A  
HETATM    5  C   UNL     1     -10.313  10.420  66.275  1.00  0.00    -0.270 A  
HETATM    6  C   UNL     1     -10.456  10.928  64.976  1.00  0.00    -0.331 A  
HETATM    7  C   UNL     1     -11.245  12.057  64.742  1.00  0.00    -0.373 A  
ENDROOT
BRANCH   5   8
HETATM    8  C   UNL     1      -9.413   9.237  66.543  1.00  0.00    -0.202 C  
BRANCH   8   9
HETATM    9  O   UNL     1      -9.881   8.547  67.695  1.00  0.00    -0.156 OA 
BRANCH   9  10
HETATM   10  C   UNL     1      -9.631   7.124  67.725  1.00  0.00    -0.129 C  
BRANCH  10  11
HETATM   11  C   UNL     1      -9.200   6.729  69.148  1.00  0.00    -0.137 A  
HETATM   12  C   UNL     1      -8.300   5.986  71.733  1.00  0.00    -0.119 A  
HETATM   13  C   UNL     1     -10.095   6.597  70.230  1.00  0.00    -0.179 A  
HETATM   14  C   UNL     1      -7.830   6.520  69.431  1.00  0.00    -0.106 A  
HETATM   15  C   UNL     1      -9.653   6.199  71.502  1.00  0.00    -0.172 A  
HETATM   16 CL   UNL     1      -7.759   5.531  73.301  1.00  0.00    -0.099 Cl 
HETATM   17 CL   UNL     1     -11.780   6.963  70.105  1.00  0.00    -0.339 Cl 
HETATM   18  C   UNL     1      -7.384   6.161  70.707  1.00  0.00    -0.082 A  
ENDBRANCH  10  11
BRANCH  10  19
HETATM   19  C   UNL     1      -8.655   6.721  66.590  1.00  0.00    -0.123 C  
BRANCH  19  20
HETATM   20  N   UNL     1      -9.038   5.522  65.875  1.00  0.00    -0.157 NA 
HETATM   21  C   UNL     1     -10.260   4.909  65.920  1.00  0.00    -0.223 A  
HETATM   22  N   UNL     1      -8.894   3.784  64.518  1.00  0.00    -0.116 NA 
HETATM   23  C   UNL     1     -10.129   3.807  65.109  1.00  0.00    -0.089 A  
HETATM   24  C   UNL     1      -8.268   4.843  64.979  1.00  0.00    -0.129 A  
ENDBRANCH  19  20
ENDBRANCH  10  19
ENDBRANCH   9  10
ENDBRANCH   8   9
ENDBRANCH   5   8
TORSDOF 6
ENDMDL
MODEL      224
REMARK 921   NORMALIZED FREE ENERGY PREDICTED BY IDOCK:   -3.61 KCAL/MOL
REMARK 922        TOTAL FREE ENERGY PREDICTED BY IDOCK:   -6.01 KCAL/MOL
REMARK 923 INTER-LIGAND FREE ENERGY PREDICTED BY IDOCK:   -6.42 KCAL/MOL
REMARK 924 INTRA-LIGAND FREE ENERGY PREDICTED BY IDOCK:    0.42 KCAL/MOL
REMARK 927      BINDING AFFINITY PREDICTED BY RF-SCORE:    0.00 PKD
ROOT
HETATM    1 CL   UNL     1      -8.058   6.250  70.079  1.00  0.00    -0.118 Cl 
HETATM    2  C   UNL     1      -8.779   7.383  69.005  1.00  0.00    -0.133 A  
HETATM    3  C   UNL     1      -9.629   6.941  67.995  1.00  0.00    -0.125 A  
HETATM    4  C   UNL     1     -10.202   7.865  67.116  1.00  0.00    -0.360 A  
HETATM    5  C   UNL     1      -9.925   9.237  67.241  1.00  0.00    -0.264 A  
HETATM    6  C   UNL     1      -9.070   9.666  68.266  1.00  0.00    -0.123 A  
HETATM    7  C   UNL     1      -8.502   8.741  69.145  1.00  0.00    -0.123 A  
ENDROOT
BRANCH   5   8
HETATM    8  C   UNL     1     -10.494  10.225  66.249  1.00  0.00    -0.144 C  
BRANCH   8   9
HETATM    9  O   UNL     1     -11.088  11.305  66.956  1.00  0.00    -0.286 OA 
BRANCH   9  10
HETATM   10  C   UNL     1     -10.204  12.390  67.315  1.00  0.00    -0.215 C  
BRANCH  10  11
HETATM   11  C   UNL     1     -10.884  13.241  68.403  1.00  0.00    -0.279 A  
HETATM   12  C   UNL     1     -12.077  14.897  70.371  1.00  0.00    -0.330 A  
HETATM   13  C   UNL     1     -11.752  12.713  69.382  1.00  0.00    -0.325 A  
HETATM   14  C   UNL     1     -10.679  14.639  68.425  1.00  0.00    -0.242 A  
HETATM   15  C   UNL     1     -12.318  13.529  70.374  1.00  0.00    -0.397 A  
HETATM   16 CL   UNL     1     -12.801  15.897  71.569  1.00  0.00    -0.483 Cl 
HETATM   17 CL   UNL     1     -12.236  11.053  69.412  1.00  0.00    -0.392 Cl 
HETATM   18  C   UNL     1     -11.274  15.459  69.391  1.00  0.00    -0.300 A  
ENDBRANCH  10  11
BRANCH  10  19
HETATM   19  C   UNL     1      -9.746  13.158  66.049  1.00  0.00    -0.226 C  
BRANCH  19  20
HETATM   20  N   UNL     1     -10.817  13.832  65.345  1.00  0.00    -0.301 NA 
HETATM   21  C   UNL     1     -12.032  13.296  65.016  1.00  0.00    -0.371 A  
HETATM   22  N   UNL     1     -11.932  15.441  64.320  1.00  0.00    -0.458 NA 
HETATM   23  C   UNL     1     -12.685  14.298  64.338  1.00  0.00     0.011 A  
HETATM   24  C   UNL     1     -10.823  15.138  64.956  1.00  0.00    -0.440 A  
ENDBRANCH  19  20
ENDBRANCH  10  19
ENDBRANCH   9  10
ENDBRANCH   8   9
ENDBRANCH   5   8
TORSDOF 6
ENDMDL
MODEL      225
REMARK 921   NORMALIZED FREE ENERGY PREDICTED BY IDOCK:   -3.60 KCAL/MOL
REMARK 922        TOTAL FREE ENERGY PREDICTED BY IDOCK:   -5.99 KCAL/MOL
REMARK 923 INTER-LIGAND FREE ENERGY PREDICTED BY IDOCK:   -5.23 KCAL/MOL
REMARK 924 INTRA-LIGAND FREE ENERGY PREDICTED BY IDOCK:   -0.77 KCAL/MOL
REMARK 927      BINDING AFFINITY PREDICTED BY RF-SCORE:    0.00 PKD
ROOT
HETATM    1 CL   UNL     1     -10.203  11.019  63.981  1.00  0.00    -0.390 Cl 
HETATM    2  C   UNL     1      -9.543   9.978  65.182  1.00  0.00    -0.291 A  
HETATM    3  C   UNL     1      -8.677   8.953  64.813  1.00  0.00    -0.162 A  
HETATM    4  C   UNL     1      -8.154   8.102  65.791  1.00  0.00    -0.115 A  
HETATM    5  C   UNL     1      -8.496   8.270  67.143  1.00  0.00    -0.123 A  
HETATM    6  C   UNL     1      -9.367   9.310  67.497  1.00  0.00    -0.148 A  
HETATM    7  C   UNL     1      -9.885  10.162  66.519  1.00  0.00    -0.268 A  
ENDROOT
BRANCH   5   8
HETATM    8  C   UNL     1      -7.981   7.308  68.187  1.00  0.00    -0.123 C  
BRANCH   8   9
HETATM    9  O   UNL     1      -9.064   6.527  68.676  1.00  0.00    -0.130 OA 
BRANCH   9  10
HETATM   10  C   UNL     1      -9.095   6.313  70.105  1.00  0.00    -0.153 C  
BRANCH  10  11
HETATM   11  C   UNL     1     -10.272   7.108  70.697  1.00  0.00    -0.205 A  
HETATM   12  C   UNL     1     -12.505   8.483  71.778  1.00  0.00    -0.342 A  
HETATM   13  C   UNL     1     -10.221   8.490  70.980  1.00  0.00    -0.203 A  
HETATM   14  C   UNL     1     -11.474   6.439  71.024  1.00  0.00    -0.394 A  
HETATM   15  C   UNL     1     -11.336   9.175  71.486  1.00  0.00    -0.439 A  
HETATM   16 CL   UNL     1     -13.858   9.321  72.431  1.00  0.00    -0.512 Cl 
HETATM   17 CL   UNL     1      -8.786   9.435  70.788  1.00  0.00    -0.258 Cl 
HETATM   18  C   UNL     1     -12.574   7.114  71.566  1.00  0.00    -0.427 A  
ENDBRANCH  10  11
BRANCH  10  19
HETATM   19  C   UNL     1      -7.706   6.606  70.727  1.00  0.00    -0.097 C  
BRANCH  19  20
HETATM   20  N   UNL     1      -7.605   6.278  72.134  1.00  0.00    -0.094 NA 
HETATM   21  C   UNL     1      -7.335   7.153  73.150  1.00  0.00    -0.072 A  
HETATM   22  N   UNL     1      -7.639   5.079  73.990  1.00  0.00    -0.093 NA 
HETATM   23  C   UNL     1      -7.313   6.376  74.285  1.00  0.00    -0.088 A  
HETATM   24  C   UNL     1      -7.834   5.056  72.691  1.00  0.00    -0.098 A  
ENDBRANCH  19  20
ENDBRANCH  10  19
ENDBRANCH   9  10
ENDBRANCH   8   9
ENDBRANCH   5   8
TORSDOF 6
ENDMDL
MODEL      226
REMARK 921   NORMALIZED FREE ENERGY PREDICTED BY IDOCK:   -3.60 KCAL/MOL
REMARK 922        TOTAL FREE ENERGY PREDICTED BY IDOCK:   -5.99 KCAL/MOL
REMARK 923 INTER-LIGAND FREE ENERGY PREDICTED BY IDOCK:   -4.94 KCAL/MOL
REMARK 924 INTRA-LIGAND FREE ENERGY PREDICTED BY IDOCK:   -1.05 KCAL/MOL
REMARK 927      BINDING AFFINITY PREDICTED BY RF-SCORE:    0.00 PKD
ROOT
HETATM    1 CL   UNL     1      -6.803   3.031  65.657  1.00  0.00    -0.047 Cl 
HETATM    2  C   UNL     1      -7.066   4.631  66.230  1.00  0.00    -0.075 A  
HETATM    3  C   UNL     1      -7.087   4.884  67.598  1.00  0.00    -0.062 A  
HETATM    4  C   UNL     1      -7.314   6.185  68.059  1.00  0.00    -0.088 A  
HETATM    5  C   UNL     1      -7.524   7.238  67.155  1.00  0.00    -0.105 A  
HETATM    6  C   UNL     1      -7.496   6.966  65.779  1.00  0.00    -0.084 A  
HETATM    7  C   UNL     1      -7.265   5.667  65.320  1.00  0.00    -0.067 A  
ENDROOT
BRANCH   5   8
HETATM    8  C   UNL     1      -7.834   8.628  67.658  1.00  0.00    -0.103 C  
BRANCH   8   9
HETATM    9  O   UNL     1      -9.131   9.007  67.213  1.00  0.00    -0.132 OA 
BRANCH   9  10
HETATM   10  C   UNL     1      -9.981   9.630  68.200  1.00  0.00    -0.159 C  
BRANCH  10  11
HETATM   11  C   UNL     1     -10.373   8.576  69.250  1.00  0.00    -0.227 A  
HETATM   12  C   UNL     1     -11.057   6.700  71.264  1.00  0.00    -0.267 A  
HETATM   13  C   UNL     1     -10.864   7.293  68.927  1.00  0.00    -0.089 A  
HETATM   14  C   UNL     1     -10.286   8.892  70.625  1.00  0.00    -0.265 A  
HETATM   15  C   UNL     1     -11.173   6.355  69.924  1.00  0.00    -0.485 A  
HETATM   16 CL   UNL     1     -11.469   5.558  72.483  1.00  0.00    -0.328 Cl 
HETATM   17 CL   UNL     1     -11.180   6.790  67.303  1.00  0.00    -0.384 Cl 
HETATM   18  C   UNL     1     -10.631   7.970  71.621  1.00  0.00    -0.280 A  
ENDBRANCH  10  11
BRANCH  10  19
HETATM   19  C   UNL     1     -11.161  10.365  67.513  1.00  0.00    -0.267 C  
BRANCH  19  20
HETATM   20  N   UNL     1     -10.867  11.731  67.131  1.00  0.00    -0.244 NA 
HETATM   21  C   UNL     1      -9.644  12.341  67.186  1.00  0.00    -0.200 A  
HETATM   22  N   UNL     1     -11.179  13.781  66.367  1.00  0.00    -0.311 NA 
HETATM   23  C   UNL     1      -9.874  13.626  66.755  1.00  0.00    -0.271 A  
HETATM   24  C   UNL     1     -11.746  12.616  66.581  1.00  0.00    -0.398 A  
ENDBRANCH  19  20
ENDBRANCH  10  19
ENDBRANCH   9  10
ENDBRANCH   8   9
ENDBRANCH   5   8
TORSDOF 6
ENDMDL
MODEL      227
REMARK 921   NORMALIZED FREE ENERGY PREDICTED BY IDOCK:   -3.58 KCAL/MOL
REMARK 922        TOTAL FREE ENERGY PREDICTED BY IDOCK:   -5.96 KCAL/MOL
REMARK 923 INTER-LIGAND FREE ENERGY PREDICTED BY IDOCK:   -4.97 KCAL/MOL
REMARK 924 INTRA-LIGAND FREE ENERGY PREDICTED BY IDOCK:   -1.00 KCAL/MOL
REMARK 927      BINDING AFFINITY PREDICTED BY RF-SCORE:    0.00 PKD
ROOT
HETATM    1 CL   UNL     1     -10.781   2.894  63.587  1.00  0.00    -0.220 Cl 
HETATM    2  C   UNL     1     -10.059   4.152  64.511  1.00  0.00    -0.157 A  
HETATM    3  C   UNL     1     -10.742   4.699  65.593  1.00  0.00    -0.193 A  
HETATM    4  C   UNL     1     -10.156   5.731  66.333  1.00  0.00    -0.182 A  
HETATM    5  C   UNL     1      -8.885   6.223  65.993  1.00  0.00    -0.159 A  
HETATM    6  C   UNL     1      -8.209   5.657  64.903  1.00  0.00    -0.134 A  
HETATM    7  C   UNL     1      -8.794   4.624  64.167  1.00  0.00    -0.140 A  
ENDROOT
BRANCH   5   8
HETATM    8  C   UNL     1      -8.285   7.381  66.754  1.00  0.00    -0.121 C  
BRANCH   8   9
HETATM    9  O   UNL     1      -9.252   7.897  67.659  1.00  0.00    -0.136 OA 
BRANCH   9  10
HETATM   10  C   UNL     1      -8.751   8.325  68.945  1.00  0.00    -0.137 C  
BRANCH  10  11
HETATM   11  C   UNL     1      -9.451   7.506  70.044  1.00  0.00    -0.161 A  
HETATM   12  C   UNL     1     -10.827   5.980  71.999  1.00  0.00    -0.252 A  
HETATM   13  C   UNL     1      -8.952   7.368  71.356  1.00  0.00    -0.137 A  
HETATM   14  C   UNL     1     -10.643   6.807  69.743  1.00  0.00    -0.263 A  
HETATM   15  C   UNL     1      -9.649   6.638  72.332  1.00  0.00    -0.154 A  
HETATM   16 CL   UNL     1     -11.660   5.059  73.189  1.00  0.00    -0.373 Cl 
HETATM   17 CL   UNL     1      -7.433   8.024  71.857  1.00  0.00    -0.083 Cl 
HETATM   18  C   UNL     1     -11.318   6.047  70.704  1.00  0.00    -0.301 A  
ENDBRANCH  10  11
BRANCH  10  19
HETATM   19  C   UNL     1      -8.859   9.865  69.083  1.00  0.00    -0.164 C  
BRANCH  19  20
HETATM   20  N   UNL     1      -9.949  10.453  68.332  1.00  0.00    -0.157 NA 
HETATM   21  C   UNL     1      -9.878  10.954  67.061  1.00  0.00    -0.183 A  
HETATM   22  N   UNL     1     -11.989  11.145  67.839  1.00  0.00    -0.620 NA 
HETATM   23  C   UNL     1     -11.144  11.422  66.798  1.00  0.00    -0.281 A  
HETATM   24  C   UNL     1     -11.248  10.539  68.738  1.00  0.00    -0.262 A  
ENDBRANCH  19  20
ENDBRANCH  10  19
ENDBRANCH   9  10
ENDBRANCH   8   9
ENDBRANCH   5   8
TORSDOF 6
ENDMDL
MODEL      228
REMARK 921   NORMALIZED FREE ENERGY PREDICTED BY IDOCK:   -3.58 KCAL/MOL
REMARK 922        TOTAL FREE ENERGY PREDICTED BY IDOCK:   -5.96 KCAL/MOL
REMARK 923 INTER-LIGAND FREE ENERGY PREDICTED BY IDOCK:   -5.19 KCAL/MOL
REMARK 924 INTRA-LIGAND FREE ENERGY PREDICTED BY IDOCK:   -0.77 KCAL/MOL
REMARK 927      BINDING AFFINITY PREDICTED BY RF-SCORE:    0.00 PKD
ROOT
HETATM    1 CL   UNL     1     -10.316   3.461  73.255  1.00  0.00    -0.224 Cl 
HETATM    2  C   UNL     1     -10.457   4.898  72.320  1.00  0.00    -0.204 A  
HETATM    3  C   UNL     1      -9.403   5.302  71.505  1.00  0.00    -0.182 A  
HETATM    4  C   UNL     1      -9.517   6.478  70.758  1.00  0.00    -0.180 A  
HETATM    5  C   UNL     1     -10.685   7.257  70.823  1.00  0.00    -0.248 A  
HETATM    6  C   UNL     1     -11.738   6.832  71.645  1.00  0.00    -0.357 A  
HETATM    7  C   UNL     1     -11.624   5.655  72.388  1.00  0.00    -0.281 A  
ENDROOT
BRANCH   5   8
HETATM    8  C   UNL     1     -10.778   8.560  70.064  1.00  0.00    -0.232 C  
BRANCH   8   9
HETATM    9  O   UNL     1      -9.475   8.953  69.650  1.00  0.00    -0.162 OA 
BRANCH   9  10
HETATM   10  C   UNL     1      -9.332   9.296  68.254  1.00  0.00    -0.134 C  
BRANCH  10  11
HETATM   11  C   UNL     1      -9.826  10.739  68.048  1.00  0.00    -0.180 A  
HETATM   12  C   UNL     1     -10.829  13.356  67.619  1.00  0.00    -0.259 A  
HETATM   13  C   UNL     1      -9.053  11.881  68.344  1.00  0.00    -0.167 A  
HETATM   14  C   UNL     1     -11.138  10.967  67.573  1.00  0.00    -0.375 A  
HETATM   15  C   UNL     1      -9.539  13.176  68.102  1.00  0.00    -0.227 A  
HETATM   16 CL   UNL     1     -11.432  14.946  67.357  1.00  0.00    -0.356 Cl 
HETATM   17 CL   UNL     1      -7.488  11.794  69.073  1.00  0.00    -0.076 Cl 
HETATM   18  C   UNL     1     -11.638  12.258  67.369  1.00  0.00    -0.425 A  
ENDBRANCH  10  11
BRANCH  10  19
HETATM   19  C   UNL     1     -10.003   8.221  67.361  1.00  0.00    -0.209 C  
BRANCH  19  20
HETATM   20  N   UNL     1      -9.188   7.783  66.247  1.00  0.00    -0.180 NA 
HETATM   21  C   UNL     1      -8.719   8.568  65.229  1.00  0.00    -0.140 A  
HETATM   22  N   UNL     1      -8.006   6.445  64.944  1.00  0.00    -0.121 NA 
HETATM   23  C   UNL     1      -8.031   7.705  64.409  1.00  0.00    -0.123 A  
HETATM   24  C   UNL     1      -8.689   6.528  66.063  1.00  0.00    -0.148 A  
ENDBRANCH  19  20
ENDBRANCH  10  19
ENDBRANCH   9  10
ENDBRANCH   8   9
ENDBRANCH   5   8
TORSDOF 6
ENDMDL
MODEL      229
REMARK 921   NORMALIZED FREE ENERGY PREDICTED BY IDOCK:   -3.54 KCAL/MOL
REMARK 922        TOTAL FREE ENERGY PREDICTED BY IDOCK:   -5.91 KCAL/MOL
REMARK 923 INTER-LIGAND FREE ENERGY PREDICTED BY IDOCK:   -4.67 KCAL/MOL
REMARK 924 INTRA-LIGAND FREE ENERGY PREDICTED BY IDOCK:   -1.25 KCAL/MOL
REMARK 927      BINDING AFFINITY PREDICTED BY RF-SCORE:    0.00 PKD
ROOT
HETATM    1 CL   UNL     1      -8.478   7.413  72.914  1.00  0.00    -0.134 Cl 
HETATM    2  C   UNL     1      -9.200   8.046  71.487  1.00  0.00    -0.147 A  
HETATM    3  C   UNL     1      -9.837   9.284  71.521  1.00  0.00    -0.245 A  
HETATM    4  C   UNL     1     -10.434   9.788  70.361  1.00  0.00    -0.358 A  
HETATM    5  C   UNL     1     -10.399   9.057  69.163  1.00  0.00    -0.229 A  
HETATM    6  C   UNL     1      -9.750   7.815  69.145  1.00  0.00    -0.161 A  
HETATM    7  C   UNL     1      -9.150   7.314  70.303  1.00  0.00    -0.152 A  
ENDROOT
BRANCH   5   8
HETATM    8  C   UNL     1     -11.102   9.575  67.930  1.00  0.00     0.011 C  
BRANCH   8   9
HETATM    9  O   UNL     1     -10.131   9.924  66.951  1.00  0.00    -0.202 OA 
BRANCH   9  10
HETATM   10  C   UNL     1      -9.449  11.181  67.156  1.00  0.00    -0.172 C  
BRANCH  10  11
HETATM   11  C   UNL     1     -10.183  12.275  66.361  1.00  0.00    -0.247 A  
HETATM   12  C   UNL     1     -11.567  14.337  64.992  1.00  0.00    -0.367 A  
HETATM   13  C   UNL     1     -10.301  12.275  64.955  1.00  0.00    -0.291 A  
HETATM   14  C   UNL     1     -10.746  13.377  67.044  1.00  0.00    -0.271 A  
HETATM   15  C   UNL     1     -11.013  13.280  64.281  1.00  0.00    -0.418 A  
HETATM   16 CL   UNL     1     -12.409  15.584  64.158  1.00  0.00    -0.172 Cl 
HETATM   17 CL   UNL     1      -9.544  11.092  63.948  1.00  0.00    -0.279 Cl 
HETATM   18  C   UNL     1     -11.423  14.400  66.370  1.00  0.00    -0.365 A  
ENDBRANCH  10  11
BRANCH  10  19
HETATM   19  C   UNL     1      -7.936  11.032  66.855  1.00  0.00    -0.143 C  
BRANCH  19  20
HETATM   20  N   UNL     1      -7.193  10.327  67.880  1.00  0.00    -0.085 NA 
HETATM   21  C   UNL     1      -7.116  10.669  69.202  1.00  0.00    -0.095 A  
HETATM   22  N   UNL     1      -5.922   8.789  68.830  1.00  0.00    -0.043 NA 
HETATM   23  C   UNL     1      -6.283   9.728  69.759  1.00  0.00    -0.048 A  
HETATM   24  C   UNL     1      -6.507   9.162  67.714  1.00  0.00    -0.056 A  
ENDBRANCH  19  20
ENDBRANCH  10  19
ENDBRANCH   9  10
ENDBRANCH   8   9
ENDBRANCH   5   8
TORSDOF 6
ENDMDL
MODEL      230
REMARK 921   NORMALIZED FREE ENERGY PREDICTED BY IDOCK:   -3.54 KCAL/MOL
REMARK 922        TOTAL FREE ENERGY PREDICTED BY IDOCK:   -5.90 KCAL/MOL
REMARK 923 INTER-LIGAND FREE ENERGY PREDICTED BY IDOCK:   -5.31 KCAL/MOL
REMARK 924 INTRA-LIGAND FREE ENERGY PREDICTED BY IDOCK:   -0.59 KCAL/MOL
REMARK 927      BINDING AFFINITY PREDICTED BY RF-SCORE:    0.00 PKD
ROOT
HETATM    1 CL   UNL     1      -9.178   4.066  67.268  1.00  0.00    -0.170 Cl 
HETATM    2  C   UNL     1      -9.521   5.715  67.618  1.00  0.00    -0.115 A  
HETATM    3  C   UNL     1     -10.752   6.258  67.264  1.00  0.00    -0.424 A  
HETATM    4  C   UNL     1     -11.021   7.603  67.539  1.00  0.00    -0.086 A  
HETATM    5  C   UNL     1     -10.060   8.410  68.169  1.00  0.00    -0.239 A  
HETATM    6  C   UNL     1      -8.827   7.845  68.523  1.00  0.00    -0.134 A  
HETATM    7  C   UNL     1      -8.561   6.501  68.251  1.00  0.00    -0.115 A  
ENDROOT
BRANCH   5   8
HETATM    8  C   UNL     1     -10.330   9.878  68.405  1.00  0.00    -0.198 C  
BRANCH   8   9
HETATM    9  O   UNL     1      -9.210  10.635  67.963  1.00  0.00    -0.143 OA 
BRANCH   9  10
HETATM   10  C   UNL     1      -9.509  11.919  67.372  1.00  0.00    -0.175 C  
BRANCH  10  11
HETATM   11  C   UNL     1      -8.460  12.938  67.852  1.00  0.00    -0.181 A  
HETATM   12  C   UNL     1      -6.493  14.740  68.812  1.00  0.00    -0.087 A  
HETATM   13  C   UNL     1      -8.384  14.266  67.380  1.00  0.00    -0.198 A  
HETATM   14  C   UNL     1      -7.478  12.542  68.789  1.00  0.00    -0.049 A  
HETATM   15  C   UNL     1      -7.429  15.166  67.879  1.00  0.00    -0.149 A  
HETATM   16 CL   UNL     1      -5.303  15.838  69.395  1.00  0.00    -0.106 Cl 
HETATM   17 CL   UNL     1      -9.404  14.876  66.125  1.00  0.00    -0.325 Cl 
HETATM   18  C   UNL     1      -6.501  13.427  69.257  1.00  0.00    -0.111 A  
ENDBRANCH  10  11
BRANCH  10  19
HETATM   19  C   UNL     1     -10.987  12.304  67.631  1.00  0.00    -0.244 C  
BRANCH  19  20
HETATM   20  N   UNL     1     -11.700  12.750  66.451  1.00  0.00    -0.384 NA 
HETATM   21  C   UNL     1     -11.604  12.213  65.197  1.00  0.00    -0.317 A  
HETATM   22  N   UNL     1     -13.086  13.916  65.185  1.00  0.00    -0.764 NA 
HETATM   23  C   UNL     1     -12.435  12.985  64.420  1.00  0.00    -0.337 A  
HETATM   24  C   UNL     1     -12.642  13.734  66.408  1.00  0.00    -0.259 A  
ENDBRANCH  19  20
ENDBRANCH  10  19
ENDBRANCH   9  10
ENDBRANCH   8   9
ENDBRANCH   5   8
TORSDOF 6
ENDMDL
MODEL      231
REMARK 921   NORMALIZED FREE ENERGY PREDICTED BY IDOCK:   -3.53 KCAL/MOL
REMARK 922        TOTAL FREE ENERGY PREDICTED BY IDOCK:   -5.89 KCAL/MOL
REMARK 923 INTER-LIGAND FREE ENERGY PREDICTED BY IDOCK:   -4.69 KCAL/MOL
REMARK 924 INTRA-LIGAND FREE ENERGY PREDICTED BY IDOCK:   -1.20 KCAL/MOL
REMARK 927      BINDING AFFINITY PREDICTED BY RF-SCORE:    0.00 PKD
ROOT
HETATM    1 CL   UNL     1      -5.216  14.715  71.547  1.00  0.00    -0.146 Cl 
HETATM    2  C   UNL     1      -5.694  13.748  70.208  1.00  0.00    -0.142 A  
HETATM    3  C   UNL     1      -5.752  14.305  68.934  1.00  0.00    -0.086 A  
HETATM    4  C   UNL     1      -6.154  13.518  67.850  1.00  0.00    -0.152 A  
HETATM    5  C   UNL     1      -6.500  12.170  68.035  1.00  0.00    -0.069 A  
HETATM    6  C   UNL     1      -6.431  11.623  69.324  1.00  0.00    -0.105 A  
HETATM    7  C   UNL     1      -6.026  12.410  70.405  1.00  0.00    -0.095 A  
ENDROOT
BRANCH   5   8
HETATM    8  C   UNL     1      -6.995  11.341  66.873  1.00  0.00    -0.137 C  
BRANCH   8   9
HETATM    9  O   UNL     1      -8.199  10.684  67.249  1.00  0.00    -0.115 OA 
BRANCH   9  10
HETATM   10  C   UNL     1      -9.408  11.175  66.629  1.00  0.00    -0.177 C  
BRANCH  10  11
HETATM   11  C   UNL     1     -10.243  11.911  67.692  1.00  0.00    -0.215 A  
HETATM   12  C   UNL     1     -11.817  13.168  69.687  1.00  0.00    -0.324 A  
HETATM   13  C   UNL     1     -10.366  13.315  67.757  1.00  0.00    -0.233 A  
HETATM   14  C   UNL     1     -10.904  11.170  68.698  1.00  0.00    -0.251 A  
HETATM   15  C   UNL     1     -11.170  13.935  68.726  1.00  0.00    -0.302 A  
HETATM   16 CL   UNL     1     -12.774  13.935  70.894  1.00  0.00    -0.414 Cl 
HETATM   17 CL   UNL     1      -9.506  14.383  66.704  1.00  0.00    -0.285 Cl 
HETATM   18  C   UNL     1     -11.674  11.789  69.689  1.00  0.00    -0.413 A  
ENDBRANCH  10  11
BRANCH  10  19
HETATM   19  C   UNL     1     -10.135  10.030  65.878  1.00  0.00    -0.249 C  
BRANCH  19  20
HETATM   20  N   UNL     1      -9.323   8.849  65.668  1.00  0.00    -0.220 NA 
HETATM   21  C   UNL     1      -9.372   7.694  66.400  1.00  0.00    -0.172 A  
HETATM   22  N   UNL     1      -7.835   7.492  64.758  1.00  0.00    -0.120 NA 
HETATM   23  C   UNL     1      -8.406   6.888  65.846  1.00  0.00    -0.137 A  
HETATM   24  C   UNL     1      -8.426   8.661  64.660  1.00  0.00    -0.132 A  
ENDBRANCH  19  20
ENDBRANCH  10  19
ENDBRANCH   9  10
ENDBRANCH   8   9
ENDBRANCH   5   8
TORSDOF 6
ENDMDL
MODEL      232
REMARK 921   NORMALIZED FREE ENERGY PREDICTED BY IDOCK:   -3.53 KCAL/MOL
REMARK 922        TOTAL FREE ENERGY PREDICTED BY IDOCK:   -5.89 KCAL/MOL
REMARK 923 INTER-LIGAND FREE ENERGY PREDICTED BY IDOCK:   -5.64 KCAL/MOL
REMARK 924 INTRA-LIGAND FREE ENERGY PREDICTED BY IDOCK:   -0.25 KCAL/MOL
REMARK 927      BINDING AFFINITY PREDICTED BY RF-SCORE:    0.00 PKD
ROOT
HETATM    1 CL   UNL     1      -9.431  18.215  68.829  1.00  0.00    -0.311 Cl 
HETATM    2  C   UNL     1     -10.035  16.605  68.883  1.00  0.00    -0.271 A  
HETATM    3  C   UNL     1      -9.222  15.544  68.495  1.00  0.00    -0.197 A  
HETATM    4  C   UNL     1      -9.723  14.239  68.529  1.00  0.00    -0.225 A  
HETATM    5  C   UNL     1     -11.040  13.989  68.948  1.00  0.00    -0.296 A  
HETATM    6  C   UNL     1     -11.844  15.069  69.339  1.00  0.00    -0.358 A  
HETATM    7  C   UNL     1     -11.341  16.371  69.308  1.00  0.00    -0.225 A  
ENDROOT
BRANCH   5   8
HETATM    8  C   UNL     1     -11.597  12.585  68.920  1.00  0.00    -0.318 C  
BRANCH   8   9
HETATM    9  O   UNL     1     -11.387  12.025  67.630  1.00  0.00    -0.264 OA 
BRANCH   9  10
HETATM   10  C   UNL     1     -11.022  10.628  67.598  1.00  0.00    -0.310 C  
BRANCH  10  11
HETATM   11  C   UNL     1      -9.799  10.418  68.508  1.00  0.00    -0.176 A  
HETATM   12  C   UNL     1      -7.482  10.077  70.107  1.00  0.00    -0.166 A  
HETATM   13  C   UNL     1      -9.846   9.722  69.735  1.00  0.00    -0.234 A  
HETATM   14  C   UNL     1      -8.552  10.975  68.144  1.00  0.00    -0.140 A  
HETATM   15  C   UNL     1      -8.692   9.528  70.511  1.00  0.00    -0.247 A  
HETATM   16 CL   UNL     1      -6.078   9.865  71.079  1.00  0.00    -0.080 Cl 
HETATM   17 CL   UNL     1     -11.314   9.108  70.411  1.00  0.00    -0.278 Cl 
HETATM   18  C   UNL     1      -7.409  10.815  68.936  1.00  0.00    -0.104 A  
ENDBRANCH  10  11
BRANCH  10  19
HETATM   19  C   UNL     1     -10.861  10.144  66.134  1.00  0.00     0.167 C  
BRANCH  19  20
HETATM   20  N   UNL     1     -10.791  11.213  65.159  1.00  0.00    -0.210 NA 
HETATM   21  C   UNL     1     -11.653  12.270  65.057  1.00  0.00    -0.343 A  
HETATM   22  N   UNL     1     -10.047  12.439  63.478  1.00  0.00    -0.389 NA 
HETATM   23  C   UNL     1     -11.198  12.989  63.976  1.00  0.00    -0.405 A  
HETATM   24  C   UNL     1      -9.812  11.386  64.227  1.00  0.00    -0.261 A  
ENDBRANCH  19  20
ENDBRANCH  10  19
ENDBRANCH   9  10
ENDBRANCH   8   9
ENDBRANCH   5   8
TORSDOF 6
ENDMDL
MODEL      233
REMARK 921   NORMALIZED FREE ENERGY PREDICTED BY IDOCK:   -3.52 KCAL/MOL
REMARK 922        TOTAL FREE ENERGY PREDICTED BY IDOCK:   -5.88 KCAL/MOL
REMARK 923 INTER-LIGAND FREE ENERGY PREDICTED BY IDOCK:   -4.67 KCAL/MOL
REMARK 924 INTRA-LIGAND FREE ENERGY PREDICTED BY IDOCK:   -1.21 KCAL/MOL
REMARK 927      BINDING AFFINITY PREDICTED BY RF-SCORE:    0.00 PKD
ROOT
HETATM    1 CL   UNL     1      -7.470   3.423  64.691  1.00  0.00    -0.074 Cl 
HETATM    2  C   UNL     1      -7.448   5.122  64.957  1.00  0.00    -0.073 A  
HETATM    3  C   UNL     1      -6.983   5.630  66.167  1.00  0.00    -0.060 A  
HETATM    4  C   UNL     1      -6.980   7.012  66.382  1.00  0.00    -0.069 A  
HETATM    5  C   UNL     1      -7.442   7.892  65.390  1.00  0.00    -0.080 A  
HETATM    6  C   UNL     1      -7.902   7.364  64.176  1.00  0.00    -0.120 A  
HETATM    7  C   UNL     1      -7.901   5.984  63.961  1.00  0.00    -0.116 A  
ENDROOT
BRANCH   5   8
HETATM    8  C   UNL     1      -7.497   9.379  65.653  1.00  0.00    -0.095 C  
BRANCH   8   9
HETATM    9  O   UNL     1      -8.739   9.889  65.185  1.00  0.00    -0.145 OA 
BRANCH   9  10
HETATM   10  C   UNL     1      -9.621  10.431  66.193  1.00  0.00    -0.196 C  
BRANCH  10  11
HETATM   11  C   UNL     1      -9.989   9.308  67.180  1.00  0.00    -0.276 A  
HETATM   12  C   UNL     1     -10.725   7.190  68.916  1.00  0.00    -0.175 A  
HETATM   13  C   UNL     1      -9.676   9.340  68.555  1.00  0.00    -0.150 A  
HETATM   14  C   UNL     1     -10.644   8.148  66.706  1.00  0.00    -0.223 A  
HETATM   15  C   UNL     1     -10.067   8.305  69.419  1.00  0.00    -0.198 A  
HETATM   16 CL   UNL     1     -11.172   5.909  69.973  1.00  0.00    -0.416 Cl 
HETATM   17 CL   UNL     1      -8.746  10.606  69.277  1.00  0.00    -0.132 Cl 
HETATM   18  C   UNL     1     -11.000   7.098  67.560  1.00  0.00    -0.261 A  
ENDBRANCH  10  11
BRANCH  10  19
HETATM   19  C   UNL     1     -10.816  11.162  65.530  1.00  0.00    -0.136 C  
BRANCH  19  20
HETATM   20  N   UNL     1     -11.055  12.495  66.043  1.00  0.00    -0.282 NA 
HETATM   21  C   UNL     1     -10.708  13.670  65.434  1.00  0.00    -0.308 A  
HETATM   22  N   UNL     1     -11.757  14.104  67.386  1.00  0.00    -0.371 NA 
HETATM   23  C   UNL     1     -11.111  14.650  66.310  1.00  0.00    -0.336 A  
HETATM   24  C   UNL     1     -11.731  12.806  67.185  1.00  0.00    -0.380 A  
ENDBRANCH  19  20
ENDBRANCH  10  19
ENDBRANCH   9  10
ENDBRANCH   8   9
ENDBRANCH   5   8
TORSDOF 6
ENDMDL
MODEL      234
REMARK 921   NORMALIZED FREE ENERGY PREDICTED BY IDOCK:   -3.50 KCAL/MOL
REMARK 922        TOTAL FREE ENERGY PREDICTED BY IDOCK:   -5.86 KCAL/MOL
REMARK 923 INTER-LIGAND FREE ENERGY PREDICTED BY IDOCK:   -5.10 KCAL/MOL
REMARK 924 INTRA-LIGAND FREE ENERGY PREDICTED BY IDOCK:   -0.76 KCAL/MOL
REMARK 927      BINDING AFFINITY PREDICTED BY RF-SCORE:    0.00 PKD
ROOT
HETATM    1 CL   UNL     1      -9.800   2.963  63.374  1.00  0.00    -0.110 Cl 
HETATM    2  C   UNL     1      -9.494   4.275  64.443  1.00  0.00    -0.149 A  
HETATM    3  C   UNL     1     -10.385   4.553  65.476  1.00  0.00    -0.254 A  
HETATM    4  C   UNL     1     -10.139   5.629  66.334  1.00  0.00    -0.199 A  
HETATM    5  C   UNL     1      -9.001   6.433  66.163  1.00  0.00    -0.162 A  
HETATM    6  C   UNL     1      -8.111   6.137  65.121  1.00  0.00    -0.133 A  
HETATM    7  C   UNL     1      -8.356   5.060  64.267  1.00  0.00    -0.136 A  
ENDROOT
BRANCH   5   8
HETATM    8  C   UNL     1      -8.773   7.634  67.052  1.00  0.00    -0.126 C  
BRANCH   8   9
HETATM    9  O   UNL     1      -9.985   8.368  67.164  1.00  0.00    -0.190 OA 
BRANCH   9  10
HETATM   10  C   UNL     1      -9.949   9.519  68.036  1.00  0.00    -0.167 C  
BRANCH  10  11
HETATM   11  C   UNL     1      -9.860   9.031  69.493  1.00  0.00    -0.181 A  
HETATM   12  C   UNL     1      -9.806   8.110  72.174  1.00  0.00    -0.246 A  
HETATM   13  C   UNL     1      -8.691   9.116  70.278  1.00  0.00    -0.200 A  
HETATM   14  C   UNL     1     -10.984   8.421  70.096  1.00  0.00    -0.216 A  
HETATM   15  C   UNL     1      -8.674   8.688  71.615  1.00  0.00    -0.270 A  
HETATM   16 CL   UNL     1      -9.769   7.556  73.803  1.00  0.00    -0.336 Cl 
HETATM   17 CL   UNL     1      -7.183   9.691  69.657  1.00  0.00    -0.073 Cl 
HETATM   18  C   UNL     1     -10.957   7.958  71.416  1.00  0.00    -0.264 A  
ENDBRANCH  10  11
BRANCH  10  19
HETATM   19  C   UNL     1     -11.127  10.476  67.719  1.00  0.00    -0.317 C  
BRANCH  19  20
HETATM   20  N   UNL     1     -10.806  11.516  66.764  1.00  0.00    -0.270 NA 
HETATM   21  C   UNL     1     -10.758  12.859  67.017  1.00  0.00    -0.257 A  
HETATM   22  N   UNL     1     -10.225  12.471  64.857  1.00  0.00    -0.290 NA 
HETATM   23  C   UNL     1     -10.444  13.433  65.807  1.00  0.00    -0.290 A  
HETATM   24  C   UNL     1     -10.426  11.326  65.469  1.00  0.00    -0.265 A  
ENDBRANCH  19  20
ENDBRANCH  10  19
ENDBRANCH   9  10
ENDBRANCH   8   9
ENDBRANCH   5   8
TORSDOF 6
ENDMDL
MODEL      235
REMARK 921   NORMALIZED FREE ENERGY PREDICTED BY IDOCK:   -3.49 KCAL/MOL
REMARK 922        TOTAL FREE ENERGY PREDICTED BY IDOCK:   -5.84 KCAL/MOL
REMARK 923 INTER-LIGAND FREE ENERGY PREDICTED BY IDOCK:   -5.11 KCAL/MOL
REMARK 924 INTRA-LIGAND FREE ENERGY PREDICTED BY IDOCK:   -0.73 KCAL/MOL
REMARK 927      BINDING AFFINITY PREDICTED BY RF-SCORE:    0.00 PKD
ROOT
HETATM    1 CL   UNL     1      -8.686   2.126  64.274  1.00  0.00    -0.095 Cl 
HETATM    2  C   UNL     1      -8.367   3.670  64.961  1.00  0.00    -0.097 A  
HETATM    3  C   UNL     1      -8.091   3.782  66.321  1.00  0.00    -0.100 A  
HETATM    4  C   UNL     1      -7.845   5.041  66.877  1.00  0.00    -0.096 A  
HETATM    5  C   UNL     1      -7.875   6.195  66.076  1.00  0.00    -0.106 A  
HETATM    6  C   UNL     1      -8.150   6.063  64.708  1.00  0.00    -0.132 A  
HETATM    7  C   UNL     1      -8.391   4.804  64.153  1.00  0.00    -0.124 A  
ENDROOT
BRANCH   5   8
HETATM    8  C   UNL     1      -7.673   7.559  66.693  1.00  0.00    -0.101 C  
BRANCH   8   9
HETATM    9  O   UNL     1      -8.800   7.877  67.499  1.00  0.00    -0.127 OA 
BRANCH   9  10
HETATM   10  C   UNL     1     -10.055   8.036  66.800  1.00  0.00    -0.287 C  
BRANCH  10  11
HETATM   11  C   UNL     1     -10.401   9.534  66.742  1.00  0.00    -0.298 A  
HETATM   12  C   UNL     1     -11.093  12.284  66.732  1.00  0.00    -0.296 A  
HETATM   13  C   UNL     1     -10.103  10.365  65.641  1.00  0.00    -0.269 A  
HETATM   14  C   UNL     1     -11.017  10.153  67.854  1.00  0.00    -0.335 A  
HETATM   15  C   UNL     1     -10.473  11.719  65.625  1.00  0.00    -0.308 A  
HETATM   16 CL   UNL     1     -11.514  13.952  66.721  1.00  0.00    -0.350 Cl 
HETATM   17 CL   UNL     1      -9.217   9.815  64.262  1.00  0.00    -0.301 Cl 
HETATM   18  C   UNL     1     -11.351  11.512  67.854  1.00  0.00    -0.372 A  
ENDBRANCH  10  11
BRANCH  10  19
HETATM   19  C   UNL     1     -11.140   7.119  67.420  1.00  0.00    -0.138 C  
BRANCH  19  20
HETATM   20  N   UNL     1     -10.830   6.652  68.756  1.00  0.00    -0.260 NA 
HETATM   21  C   UNL     1     -10.417   5.393  69.097  1.00  0.00    -0.207 A  
HETATM   22  N   UNL     1     -10.523   6.688  70.944  1.00  0.00    -0.212 NA 
HETATM   23  C   UNL     1     -10.281   5.428  70.465  1.00  0.00    -0.256 A  
HETATM   24  C   UNL     1     -10.826   7.409  69.889  1.00  0.00    -0.246 A  
ENDBRANCH  19  20
ENDBRANCH  10  19
ENDBRANCH   9  10
ENDBRANCH   8   9
ENDBRANCH   5   8
TORSDOF 6
ENDMDL
MODEL      236
REMARK 921   NORMALIZED FREE ENERGY PREDICTED BY IDOCK:   -3.46 KCAL/MOL
REMARK 922        TOTAL FREE ENERGY PREDICTED BY IDOCK:   -5.80 KCAL/MOL
REMARK 923 INTER-LIGAND FREE ENERGY PREDICTED BY IDOCK:   -5.01 KCAL/MOL
REMARK 924 INTRA-LIGAND FREE ENERGY PREDICTED BY IDOCK:   -0.79 KCAL/MOL
REMARK 927      BINDING AFFINITY PREDICTED BY RF-SCORE:    0.00 PKD
ROOT
HETATM    1 CL   UNL     1      -9.471   3.604  68.911  1.00  0.00    -0.233 Cl 
HETATM    2  C   UNL     1      -9.550   5.316  69.058  1.00  0.00    -0.144 A  
HETATM    3  C   UNL     1      -8.800   5.964  70.036  1.00  0.00    -0.139 A  
HETATM    4  C   UNL     1      -8.878   7.355  70.160  1.00  0.00    -0.147 A  
HETATM    5  C   UNL     1      -9.706   8.104  69.308  1.00  0.00    -0.170 A  
HETATM    6  C   UNL     1     -10.451   7.435  68.326  1.00  0.00    -0.231 A  
HETATM    7  C   UNL     1     -10.369   6.046  68.201  1.00  0.00    -0.251 A  
ENDROOT
BRANCH   5   8
HETATM    8  C   UNL     1      -9.838   9.598  69.489  1.00  0.00    -0.206 C  
BRANCH   8   9
HETATM    9  O   UNL     1      -9.260  10.255  68.368  1.00  0.00    -0.129 OA 
BRANCH   9  10
HETATM   10  C   UNL     1      -9.481  11.681  68.287  1.00  0.00    -0.191 C  
BRANCH  10  11
HETATM   11  C   UNL     1     -10.303  11.982  67.021  1.00  0.00    -0.235 A  
HETATM   12  C   UNL     1     -11.741  12.478  64.629  1.00  0.00    -0.359 A  
HETATM   13  C   UNL     1     -11.430  12.830  67.002  1.00  0.00    -0.341 A  
HETATM   14  C   UNL     1      -9.959  11.358  65.800  1.00  0.00    -0.271 A  
HETATM   15  C   UNL     1     -12.123  13.099  65.811  1.00  0.00    -0.502 A  
HETATM   16 CL   UNL     1     -12.615  12.785  63.179  1.00  0.00    -0.274 Cl 
HETATM   17 CL   UNL     1     -12.085  13.554  68.429  1.00  0.00    -0.361 Cl 
HETATM   18  C   UNL     1     -10.673  11.595  64.620  1.00  0.00    -0.371 A  
ENDBRANCH  10  11
BRANCH  10  19
HETATM   19  C   UNL     1      -8.138  12.445  68.414  1.00  0.00    -0.143 C  
BRANCH  19  20
HETATM   20  N   UNL     1      -6.968  11.637  68.142  1.00  0.00    -0.067 NA 
HETATM   21  C   UNL     1      -6.501  11.280  66.907  1.00  0.00    -0.128 A  
HETATM   22  N   UNL     1      -5.145  10.441  68.505  1.00  0.00    -0.035 NA 
HETATM   23  C   UNL     1      -5.399  10.498  67.161  1.00  0.00    -0.041 A  
HETATM   24  C   UNL     1      -6.091  11.157  69.069  1.00  0.00    -0.044 A  
ENDBRANCH  19  20
ENDBRANCH  10  19
ENDBRANCH   9  10
ENDBRANCH   8   9
ENDBRANCH   5   8
TORSDOF 6
ENDMDL
MODEL      237
REMARK 921   NORMALIZED FREE ENERGY PREDICTED BY IDOCK:   -3.42 KCAL/MOL
REMARK 922        TOTAL FREE ENERGY PREDICTED BY IDOCK:   -5.75 KCAL/MOL
REMARK 923 INTER-LIGAND FREE ENERGY PREDICTED BY IDOCK:   -4.92 KCAL/MOL
REMARK 924 INTRA-LIGAND FREE ENERGY PREDICTED BY IDOCK:   -0.83 KCAL/MOL
REMARK 927      BINDING AFFINITY PREDICTED BY RF-SCORE:    0.00 PKD
ROOT
HETATM    1 CL   UNL     1     -11.865  14.993  64.895  1.00  0.00    -0.336 Cl 
HETATM    2  C   UNL     1     -10.958  13.533  64.944  1.00  0.00    -0.352 A  
HETATM    3  C   UNL     1     -11.046  12.625  63.893  1.00  0.00    -0.476 A  
HETATM    4  C   UNL     1     -10.317  11.432  63.944  1.00  0.00    -0.434 A  
HETATM    5  C   UNL     1      -9.498  11.141  65.048  1.00  0.00    -0.259 A  
HETATM    6  C   UNL     1      -9.418  12.069  66.096  1.00  0.00    -0.241 A  
HETATM    7  C   UNL     1     -10.144  13.261  66.041  1.00  0.00    -0.301 A  
ENDROOT
BRANCH   5   8
HETATM    8  C   UNL     1      -8.764   9.824  65.129  1.00  0.00    -0.168 C  
BRANCH   8   9
HETATM    9  O   UNL     1      -9.634   8.838  65.670  1.00  0.00    -0.184 OA 
BRANCH   9  10
HETATM   10  C   UNL     1      -9.215   8.240  66.917  1.00  0.00    -0.158 C  
BRANCH  10  11
HETATM   11  C   UNL     1      -8.230   7.098  66.610  1.00  0.00    -0.112 A  
HETATM   12  C   UNL     1      -6.497   4.942  65.987  1.00  0.00    -0.040 A  
HETATM   13  C   UNL     1      -6.934   7.012  67.160  1.00  0.00    -0.078 A  
HETATM   14  C   UNL     1      -8.600   6.082  65.699  1.00  0.00    -0.154 A  
HETATM   15  C   UNL     1      -6.088   5.928  66.875  1.00  0.00    -0.025 A  
HETATM   16 CL   UNL     1      -5.444   3.634  65.614  1.00  0.00    -0.013 Cl 
HETATM   17 CL   UNL     1      -6.259   8.242  68.170  1.00  0.00    -0.050 Cl 
HETATM   18  C   UNL     1      -7.743   5.022  65.384  1.00  0.00    -0.087 A  
ENDBRANCH  10  11
BRANCH  10  19
HETATM   19  C   UNL     1     -10.448   7.853  67.773  1.00  0.00    -0.212 C  
BRANCH  19  20
HETATM   20  N   UNL     1     -10.598   8.633  68.984  1.00  0.00    -0.198 NA 
HETATM   21  C   UNL     1     -10.393   8.190  70.262  1.00  0.00    -0.209 A  
HETATM   22  N   UNL     1     -10.985  10.368  70.296  1.00  0.00    -0.301 NA 
HETATM   23  C   UNL     1     -10.687   9.271  71.059  1.00  0.00    -0.316 A  
HETATM   24  C   UNL     1     -10.898   9.960  69.051  1.00  0.00    -0.215 A  
ENDBRANCH  19  20
ENDBRANCH  10  19
ENDBRANCH   9  10
ENDBRANCH   8   9
ENDBRANCH   5   8
TORSDOF 6
ENDMDL
MODEL      238
REMARK 921   NORMALIZED FREE ENERGY PREDICTED BY IDOCK:   -3.41 KCAL/MOL
REMARK 922        TOTAL FREE ENERGY PREDICTED BY IDOCK:   -5.73 KCAL/MOL
REMARK 923 INTER-LIGAND FREE ENERGY PREDICTED BY IDOCK:   -4.87 KCAL/MOL
REMARK 924 INTRA-LIGAND FREE ENERGY PREDICTED BY IDOCK:   -0.85 KCAL/MOL
REMARK 927      BINDING AFFINITY PREDICTED BY RF-SCORE:    0.00 PKD
ROOT
HETATM    1 CL   UNL     1      -7.456   5.541  66.302  1.00  0.00    -0.085 Cl 
HETATM    2  C   UNL     1      -7.820   7.120  66.878  1.00  0.00    -0.107 A  
HETATM    3  C   UNL     1      -8.310   7.293  68.169  1.00  0.00    -0.124 A  
HETATM    4  C   UNL     1      -8.616   8.578  68.628  1.00  0.00    -0.135 A  
HETATM    5  C   UNL     1      -8.435   9.696  67.798  1.00  0.00    -0.125 A  
HETATM    6  C   UNL     1      -7.936   9.504  66.501  1.00  0.00    -0.112 A  
HETATM    7  C   UNL     1      -7.627   8.220  66.046  1.00  0.00    -0.078 A  
ENDROOT
BRANCH   5   8
HETATM    8  C   UNL     1      -8.829  11.074  68.275  1.00  0.00    -0.144 C  
BRANCH   8   9
HETATM    9  O   UNL     1      -8.062  12.046  67.576  1.00  0.00    -0.141 OA 
BRANCH   9  10
HETATM   10  C   UNL     1      -8.786  13.203  67.101  1.00  0.00    -0.222 C  
BRANCH  10  11
HETATM   11  C   UNL     1      -8.143  14.467  67.699  1.00  0.00    -0.188 A  
HETATM   12  C   UNL     1      -6.915  16.732  68.882  1.00  0.00    -0.207 A  
HETATM   13  C   UNL     1      -8.373  15.770  67.209  1.00  0.00    -0.188 A  
HETATM   14  C   UNL     1      -7.235  14.346  68.776  1.00  0.00    -0.128 A  
HETATM   15  C   UNL     1      -7.788  16.893  67.815  1.00  0.00    -0.188 A  
HETATM   16 CL   UNL     1      -6.174  18.109  69.599  1.00  0.00    -0.238 Cl 
HETATM   17 CL   UNL     1      -9.331  16.090  65.806  1.00  0.00    -0.320 Cl 
HETATM   18  C   UNL     1      -6.621  15.462  69.355  1.00  0.00    -0.155 A  
ENDBRANCH  10  11
BRANCH  10  19
HETATM   19  C   UNL     1     -10.305  13.034  67.362  1.00  0.00    -0.234 C  
BRANCH  19  20
HETATM   20  N   UNL     1     -11.133  13.228  66.190  1.00  0.00    -0.283 NA 
HETATM   21  C   UNL     1     -12.398  13.749  66.170  1.00  0.00    -0.452 A  
HETATM   22  N   UNL     1     -11.748  13.247  64.067  1.00  0.00    -0.417 NA 
HETATM   23  C   UNL     1     -12.775  13.704  64.849  1.00  0.00    -0.271 A  
HETATM   24  C   UNL     1     -10.764  12.993  64.899  1.00  0.00    -0.332 A  
ENDBRANCH  19  20
ENDBRANCH  10  19
ENDBRANCH   9  10
ENDBRANCH   8   9
ENDBRANCH   5   8
TORSDOF 6
ENDMDL
MODEL      239
REMARK 921   NORMALIZED FREE ENERGY PREDICTED BY IDOCK:   -3.40 KCAL/MOL
REMARK 922        TOTAL FREE ENERGY PREDICTED BY IDOCK:   -5.72 KCAL/MOL
REMARK 923 INTER-LIGAND FREE ENERGY PREDICTED BY IDOCK:   -5.94 KCAL/MOL
REMARK 924 INTRA-LIGAND FREE ENERGY PREDICTED BY IDOCK:    0.22 KCAL/MOL
REMARK 927      BINDING AFFINITY PREDICTED BY RF-SCORE:    0.00 PKD
ROOT
HETATM    1 CL   UNL     1      -9.159   3.587  64.076  1.00  0.00    -0.115 Cl 
HETATM    2  C   UNL     1      -9.395   4.870  65.197  1.00  0.00    -0.096 A  
HETATM    3  C   UNL     1     -10.451   4.817  66.103  1.00  0.00    -0.332 A  
HETATM    4  C   UNL     1     -10.646   5.869  67.003  1.00  0.00    -0.376 A  
HETATM    5  C   UNL     1      -9.787   6.980  67.002  1.00  0.00    -0.239 A  
HETATM    6  C   UNL     1      -8.726   7.016  66.086  1.00  0.00    -0.155 A  
HETATM    7  C   UNL     1      -8.530   5.962  65.190  1.00  0.00    -0.130 A  
ENDROOT
BRANCH   5   8
HETATM    8  C   UNL     1     -10.040   8.144  67.931  1.00  0.00    -0.196 C  
BRANCH   8   9
HETATM    9  O   UNL     1     -10.377   9.291  67.161  1.00  0.00    -0.236 OA 
BRANCH   9  10
HETATM   10  C   UNL     1     -11.021  10.367  67.878  1.00  0.00    -0.297 C  
BRANCH  10  11
HETATM   11  C   UNL     1     -11.284  11.524  66.898  1.00  0.00    -0.363 A  
HETATM   12  C   UNL     1     -11.827  13.708  65.172  1.00  0.00    -0.348 A  
HETATM   13  C   UNL     1     -10.909  11.499  65.538  1.00  0.00    -0.254 A  
HETATM   14  C   UNL     1     -11.899  12.709  67.364  1.00  0.00    -0.393 A  
HETATM   15  C   UNL     1     -11.206  12.568  64.678  1.00  0.00    -0.353 A  
HETATM   16 CL   UNL     1     -12.158  15.029  64.121  1.00  0.00    -0.364 Cl 
HETATM   17 CL   UNL     1     -10.014  10.198  64.834  1.00  0.00    -0.399 Cl 
HETATM   18  C   UNL     1     -12.160  13.791  66.516  1.00  0.00    -0.483 A  
ENDBRANCH  10  11
BRANCH  10  19
HETATM   19  C   UNL     1     -10.210  10.733  69.148  1.00  0.00    -0.211 C  
BRANCH  19  20
HETATM   20  N   UNL     1      -8.814  11.025  68.897  1.00  0.00    -0.148 NA 
HETATM   21  C   UNL     1      -8.328  11.984  68.052  1.00  0.00    -0.162 A  
HETATM   22  N   UNL     1      -6.613  10.909  69.052  1.00  0.00    -0.055 NA 
HETATM   23  C   UNL     1      -6.961  11.858  68.129  1.00  0.00    -0.078 A  
HETATM   24  C   UNL     1      -7.749  10.442  69.516  1.00  0.00    -0.156 A  
ENDBRANCH  19  20
ENDBRANCH  10  19
ENDBRANCH   9  10
ENDBRANCH   8   9
ENDBRANCH   5   8
TORSDOF 6
ENDMDL
MODEL      240
REMARK 921   NORMALIZED FREE ENERGY PREDICTED BY IDOCK:   -3.35 KCAL/MOL
REMARK 922        TOTAL FREE ENERGY PREDICTED BY IDOCK:   -5.66 KCAL/MOL
REMARK 923 INTER-LIGAND FREE ENERGY PREDICTED BY IDOCK:   -5.11 KCAL/MOL
REMARK 924 INTRA-LIGAND FREE ENERGY PREDICTED BY IDOCK:   -0.55 KCAL/MOL
REMARK 927      BINDING AFFINITY PREDICTED BY RF-SCORE:    0.00 PKD
ROOT
HETATM    1 CL   UNL     1      -8.951   4.236  68.944  1.00  0.00    -0.141 Cl 
HETATM    2  C   UNL     1      -9.322   5.717  68.152  1.00  0.00    -0.111 A  
HETATM    3  C   UNL     1      -8.407   6.766  68.175  1.00  0.00    -0.118 A  
HETATM    4  C   UNL     1      -8.719   7.972  67.541  1.00  0.00    -0.125 A  
HETATM    5  C   UNL     1      -9.948   8.136  66.882  1.00  0.00    -0.343 A  
HETATM    6  C   UNL     1     -10.856   7.068  66.864  1.00  0.00    -0.350 A  
HETATM    7  C   UNL     1     -10.541   5.862  67.495  1.00  0.00    -0.347 A  
ENDROOT
BRANCH   5   8
HETATM    8  C   UNL     1     -10.308   9.463  66.255  1.00  0.00    -0.141 C  
BRANCH   8   9
HETATM    9  O   UNL     1      -9.560  10.495  66.884  1.00  0.00    -0.169 OA 
BRANCH   9  10
HETATM   10  C   UNL     1     -10.327  11.482  67.609  1.00  0.00    -0.186 C  
BRANCH  10  11
HETATM   11  C   UNL     1      -9.831  12.883  67.209  1.00  0.00    -0.218 A  
HETATM   12  C   UNL     1      -8.815  15.436  66.509  1.00  0.00    -0.312 A  
HETATM   13  C   UNL     1     -10.678  13.909  66.740  1.00  0.00    -0.281 A  
HETATM   14  C   UNL     1      -8.449  13.177  67.266  1.00  0.00    -0.199 A  
HETATM   15  C   UNL     1     -10.177  15.182  66.423  1.00  0.00    -0.291 A  
HETATM   16 CL   UNL     1      -8.202  16.987  66.086  1.00  0.00    -0.319 Cl 
HETATM   17 CL   UNL     1     -12.368  13.679  66.461  1.00  0.00    -0.443 Cl 
HETATM   18  C   UNL     1      -7.945  14.434  66.913  1.00  0.00     0.099 A  
ENDBRANCH  10  11
BRANCH  10  19
HETATM   19  C   UNL     1     -10.312  11.171  69.127  1.00  0.00    -0.161 C  
BRANCH  19  20
HETATM   20  N   UNL     1     -11.385  11.797  69.871  1.00  0.00    -0.183 NA 
HETATM   21  C   UNL     1     -12.300  11.158  70.663  1.00  0.00    -0.388 A  
HETATM   22  N   UNL     1     -12.682  13.384  70.700  1.00  0.00    -0.226 NA 
HETATM   23  C   UNL     1     -13.123  12.159  71.125  1.00  0.00    -0.023 A  
HETATM   24  C   UNL     1     -11.619  13.136  69.968  1.00  0.00    -0.131 A  
ENDBRANCH  19  20
ENDBRANCH  10  19
ENDBRANCH   9  10
ENDBRANCH   8   9
ENDBRANCH   5   8
TORSDOF 6
ENDMDL
MODEL      241
REMARK 921   NORMALIZED FREE ENERGY PREDICTED BY IDOCK:   -3.35 KCAL/MOL
REMARK 922        TOTAL FREE ENERGY PREDICTED BY IDOCK:   -5.65 KCAL/MOL
REMARK 923 INTER-LIGAND FREE ENERGY PREDICTED BY IDOCK:   -5.15 KCAL/MOL
REMARK 924 INTRA-LIGAND FREE ENERGY PREDICTED BY IDOCK:   -0.50 KCAL/MOL
REMARK 927      BINDING AFFINITY PREDICTED BY RF-SCORE:    0.00 PKD
ROOT
HETATM    1 CL   UNL     1     -10.856  11.994  66.173  1.00  0.00    -0.310 Cl 
HETATM    2  C   UNL     1     -10.081  10.851  67.198  1.00  0.00    -0.198 A  
HETATM    3  C   UNL     1      -9.327  11.290  68.283  1.00  0.00    -0.180 A  
HETATM    4  C   UNL     1      -8.688  10.358  69.106  1.00  0.00    -0.173 A  
HETATM    5  C   UNL     1      -8.798   8.982  68.847  1.00  0.00    -0.139 A  
HETATM    6  C   UNL     1      -9.564   8.557  67.753  1.00  0.00    -0.185 A  
HETATM    7  C   UNL     1     -10.205   9.489  66.934  1.00  0.00    -0.317 A  
ENDROOT
BRANCH   5   8
HETATM    8  C   UNL     1      -8.052   7.982  69.700  1.00  0.00    -0.119 C  
BRANCH   8   9
HETATM    9  O   UNL     1      -8.642   6.698  69.536  1.00  0.00    -0.130 OA 
BRANCH   9  10
HETATM   10  C   UNL     1      -9.135   6.070  70.740  1.00  0.00    -0.153 C  
BRANCH  10  11
HETATM   11  C   UNL     1     -10.423   6.788  71.178  1.00  0.00    -0.239 A  
HETATM   12  C   UNL     1     -12.852   8.058  71.904  1.00  0.00    -0.320 A  
HETATM   13  C   UNL     1     -10.463   7.788  72.172  1.00  0.00    -0.231 A  
HETATM   14  C   UNL     1     -11.660   6.421  70.600  1.00  0.00    -0.412 A  
HETATM   15  C   UNL     1     -11.661   8.438  72.509  1.00  0.00    -0.429 A  
HETATM   16 CL   UNL     1     -14.323   8.834  72.345  1.00  0.00    -0.494 Cl 
HETATM   17 CL   UNL     1      -9.075   8.255  73.092  1.00  0.00    -0.328 Cl 
HETATM   18  C   UNL     1     -12.861   7.040  70.963  1.00  0.00    -0.258 A  
ENDBRANCH  10  11
BRANCH  10  19
HETATM   19  C   UNL     1      -8.014   5.990  71.807  1.00  0.00    -0.107 C  
BRANCH  19  20
HETATM   20  N   UNL     1      -8.123   4.853  72.698  1.00  0.00    -0.103 NA 
HETATM   21  C   UNL     1      -7.497   4.710  73.906  1.00  0.00    -0.082 A  
HETATM   22  N   UNL     1      -8.781   2.900  73.493  1.00  0.00    -0.076 NA 
HETATM   23  C   UNL     1      -7.883   3.469  74.355  1.00  0.00    -0.066 A  
HETATM   24  C   UNL     1      -8.926   3.767  72.518  1.00  0.00    -0.104 A  
ENDBRANCH  19  20
ENDBRANCH  10  19
ENDBRANCH   9  10
ENDBRANCH   8   9
ENDBRANCH   5   8
TORSDOF 6
ENDMDL
MODEL      242
REMARK 921   NORMALIZED FREE ENERGY PREDICTED BY IDOCK:   -3.33 KCAL/MOL
REMARK 922        TOTAL FREE ENERGY PREDICTED BY IDOCK:   -5.62 KCAL/MOL
REMARK 923 INTER-LIGAND FREE ENERGY PREDICTED BY IDOCK:   -4.79 KCAL/MOL
REMARK 924 INTRA-LIGAND FREE ENERGY PREDICTED BY IDOCK:   -0.84 KCAL/MOL
REMARK 927      BINDING AFFINITY PREDICTED BY RF-SCORE:    0.00 PKD
ROOT
HETATM    1 CL   UNL     1     -11.925  15.087  64.629  1.00  0.00    -0.401 Cl 
HETATM    2  C   UNL     1     -11.600  13.630  65.483  1.00  0.00    -0.324 A  
HETATM    3  C   UNL     1     -10.914  12.595  64.854  1.00  0.00    -0.326 A  
HETATM    4  C   UNL     1     -10.664  11.407  65.549  1.00  0.00    -0.313 A  
HETATM    5  C   UNL     1     -11.099  11.248  66.875  1.00  0.00    -0.339 A  
HETATM    6  C   UNL     1     -11.784  12.303  67.494  1.00  0.00    -0.402 A  
HETATM    7  C   UNL     1     -12.030  13.490  66.800  1.00  0.00    -0.453 A  
ENDROOT
BRANCH   5   8
HETATM    8  C   UNL     1     -10.884   9.940  67.599  1.00  0.00    -0.257 C  
BRANCH   8   9
HETATM    9  O   UNL     1     -10.077  10.169  68.747  1.00  0.00    -0.171 OA 
BRANCH   9  10
HETATM   10  C   UNL     1      -8.728   9.654  68.686  1.00  0.00    -0.124 C  
BRANCH  10  11
HETATM   11  C   UNL     1      -8.345   9.111  70.074  1.00  0.00    -0.156 A  
HETATM   12  C   UNL     1      -7.735   8.151  72.672  1.00  0.00    -0.132 A  
HETATM   13  C   UNL     1      -7.100   8.515  70.366  1.00  0.00    -0.038 A  
HETATM   14  C   UNL     1      -9.286   9.160  71.128  1.00  0.00    -0.313 A  
HETATM   15  C   UNL     1      -6.788   8.068  71.659  1.00  0.00    -0.057 A  
HETATM   16 CL   UNL     1      -7.360   7.570  74.247  1.00  0.00    -0.133 Cl 
HETATM   17 CL   UNL     1      -5.890   8.232  69.164  1.00  0.00    -0.034 Cl 
HETATM   18  C   UNL     1      -8.990   8.679  72.408  1.00  0.00    -0.205 A  
ENDBRANCH  10  11
BRANCH  10  19
HETATM   19  C   UNL     1      -7.769  10.717  68.092  1.00  0.00    -0.102 C  
BRANCH  19  20
HETATM   20  N   UNL     1      -7.290  10.406  66.761  1.00  0.00    -0.105 NA 
HETATM   21  C   UNL     1      -6.280  11.046  66.096  1.00  0.00    -0.104 A  
HETATM   22  N   UNL     1      -7.099   9.376  64.816  1.00  0.00    -0.099 NA 
HETATM   23  C   UNL     1      -6.215  10.420  64.873  1.00  0.00    -0.097 A  
HETATM   24  C   UNL     1      -7.714   9.376  65.976  1.00  0.00    -0.099 A  
ENDBRANCH  19  20
ENDBRANCH  10  19
ENDBRANCH   9  10
ENDBRANCH   8   9
ENDBRANCH   5   8
TORSDOF 6
ENDMDL
MODEL      243
REMARK 921   NORMALIZED FREE ENERGY PREDICTED BY IDOCK:   -3.31 KCAL/MOL
REMARK 922        TOTAL FREE ENERGY PREDICTED BY IDOCK:   -5.60 KCAL/MOL
REMARK 923 INTER-LIGAND FREE ENERGY PREDICTED BY IDOCK:   -4.97 KCAL/MOL
REMARK 924 INTRA-LIGAND FREE ENERGY PREDICTED BY IDOCK:   -0.63 KCAL/MOL
REMARK 927      BINDING AFFINITY PREDICTED BY RF-SCORE:    0.00 PKD
ROOT
HETATM    1 CL   UNL     1     -10.681  19.445  66.266  1.00  0.00    -0.527 Cl 
HETATM    2  C   UNL     1      -9.908  17.933  66.543  1.00  0.00    -0.343 A  
HETATM    3  C   UNL     1     -10.526  16.753  66.141  1.00  0.00    -0.282 A  
HETATM    4  C   UNL     1      -9.900  15.526  66.381  1.00  0.00    -0.298 A  
HETATM    5  C   UNL     1      -8.653  15.473  67.026  1.00  0.00    -0.262 A  
HETATM    6  C   UNL     1      -8.043  16.672  67.420  1.00  0.00    -0.187 A  
HETATM    7  C   UNL     1      -8.668  17.897  67.176  1.00  0.00    -0.248 A  
ENDROOT
BRANCH   5   8
HETATM    8  C   UNL     1      -8.011  14.142  67.341  1.00  0.00    -0.184 C  
BRANCH   8   9
HETATM    9  O   UNL     1      -8.982  13.113  67.207  1.00  0.00    -0.198 OA 
BRANCH   9  10
HETATM   10  C   UNL     1      -8.466  11.774  67.037  1.00  0.00    -0.175 C  
BRANCH  10  11
HETATM   11  C   UNL     1      -9.288  10.813  67.915  1.00  0.00    -0.154 A  
HETATM   12  C   UNL     1     -10.822   9.128  69.602  1.00  0.00    -0.197 A  
HETATM   13  C   UNL     1      -9.382   9.425  67.680  1.00  0.00    -0.127 A  
HETATM   14  C   UNL     1     -10.033  11.325  69.001  1.00  0.00    -0.124 A  
HETATM   15  C   UNL     1     -10.118   8.588  68.534  1.00  0.00    -0.214 A  
HETATM   16 CL   UNL     1     -11.749   8.102  70.625  1.00  0.00    -0.206 Cl 
HETATM   17 CL   UNL     1      -8.663   8.652  66.311  1.00  0.00    -0.149 Cl 
HETATM   18  C   UNL     1     -10.798  10.496  69.830  1.00  0.00    -0.334 A  
ENDBRANCH  10  11
BRANCH  10  19
HETATM   19  C   UNL     1      -6.933  11.751  67.268  1.00  0.00    -0.138 C  
BRANCH  19  20
HETATM   20  N   UNL     1      -6.536  11.219  68.555  1.00  0.00    -0.050 NA 
HETATM   21  C   UNL     1      -6.148   9.932  68.813  1.00  0.00    -0.041 A  
HETATM   22  N   UNL     1      -6.051  11.153  70.710  1.00  0.00    -0.358 NA 
HETATM   23  C   UNL     1      -5.901   9.906  70.166  1.00  0.00    -0.050 A  
HETATM   24  C   UNL     1      -6.409  11.928  69.712  1.00  0.00    -0.118 A  
ENDBRANCH  19  20
ENDBRANCH  10  19
ENDBRANCH   9  10
ENDBRANCH   8   9
ENDBRANCH   5   8
TORSDOF 6
ENDMDL
MODEL      244
REMARK 921   NORMALIZED FREE ENERGY PREDICTED BY IDOCK:   -3.31 KCAL/MOL
REMARK 922        TOTAL FREE ENERGY PREDICTED BY IDOCK:   -5.60 KCAL/MOL
REMARK 923 INTER-LIGAND FREE ENERGY PREDICTED BY IDOCK:   -4.16 KCAL/MOL
REMARK 924 INTRA-LIGAND FREE ENERGY PREDICTED BY IDOCK:   -1.44 KCAL/MOL
REMARK 927      BINDING AFFINITY PREDICTED BY RF-SCORE:    0.00 PKD
ROOT
HETATM    1 CL   UNL     1      -8.776  10.820  65.237  1.00  0.00    -0.195 Cl 
HETATM    2  C   UNL     1      -9.382  10.057  66.654  1.00  0.00    -0.166 A  
HETATM    3  C   UNL     1      -9.038  10.549  67.910  1.00  0.00    -0.136 A  
HETATM    4  C   UNL     1      -9.523   9.917  69.059  1.00  0.00    -0.185 A  
HETATM    5  C   UNL     1     -10.353   8.789  68.958  1.00  0.00    -0.227 A  
HETATM    6  C   UNL     1     -10.694   8.309  67.686  1.00  0.00    -0.195 A  
HETATM    7  C   UNL     1     -10.212   8.944  66.539  1.00  0.00    -0.319 A  
ENDROOT
BRANCH   5   8
HETATM    8  C   UNL     1     -10.821   8.070  70.202  1.00  0.00    -0.242 C  
BRANCH   8   9
HETATM    9  O   UNL     1     -10.756   6.667  69.982  1.00  0.00    -0.209 OA 
BRANCH   9  10
HETATM   10  C   UNL     1      -9.441   6.074  70.062  1.00  0.00    -0.156 C  
BRANCH  10  11
HETATM   11  C   UNL     1      -9.106   5.433  68.703  1.00  0.00    -0.130 A  
HETATM   12  C   UNL     1      -8.566   4.171  66.222  1.00  0.00    -0.113 A  
HETATM   13  C   UNL     1      -8.067   5.881  67.860  1.00  0.00    -0.105 A  
HETATM   14  C   UNL     1      -9.891   4.358  68.226  1.00  0.00    -0.132 A  
HETATM   15  C   UNL     1      -7.781   5.236  66.646  1.00  0.00    -0.096 A  
HETATM   16 CL   UNL     1      -8.233   3.407  64.717  1.00  0.00    -0.090 Cl 
HETATM   17 CL   UNL     1      -7.107   7.275  68.211  1.00  0.00    -0.079 Cl 
HETATM   18  C   UNL     1      -9.631   3.740  66.998  1.00  0.00    -0.213 A  
ENDBRANCH  10  11
BRANCH  10  19
HETATM   19  C   UNL     1      -9.343   5.135  71.291  1.00  0.00    -0.148 C  
BRANCH  19  20
HETATM   20  N   UNL     1      -9.330   5.824  72.565  1.00  0.00    -0.142 NA 
HETATM   21  C   UNL     1      -8.342   6.649  73.028  1.00  0.00    -0.117 A  
HETATM   22  N   UNL     1     -10.008   6.528  74.547  1.00  0.00    -0.342 NA 
HETATM   23  C   UNL     1      -8.764   7.032  74.279  1.00  0.00    -0.185 A  
HETATM   24  C   UNL     1     -10.334   5.825  73.486  1.00  0.00    -0.236 A  
ENDBRANCH  19  20
ENDBRANCH  10  19
ENDBRANCH   9  10
ENDBRANCH   8   9
ENDBRANCH   5   8
TORSDOF 6
ENDMDL
MODEL      245
REMARK 921   NORMALIZED FREE ENERGY PREDICTED BY IDOCK:   -3.30 KCAL/MOL
REMARK 922        TOTAL FREE ENERGY PREDICTED BY IDOCK:   -5.59 KCAL/MOL
REMARK 923 INTER-LIGAND FREE ENERGY PREDICTED BY IDOCK:   -4.99 KCAL/MOL
REMARK 924 INTRA-LIGAND FREE ENERGY PREDICTED BY IDOCK:   -0.61 KCAL/MOL
REMARK 927      BINDING AFFINITY PREDICTED BY RF-SCORE:    0.00 PKD
ROOT
HETATM    1 CL   UNL     1      -9.450  10.190  65.121  1.00  0.00    -0.292 Cl 
HETATM    2  C   UNL     1      -9.973   9.027  66.275  1.00  0.00    -0.281 A  
HETATM    3  C   UNL     1     -10.466   9.445  67.508  1.00  0.00    -0.343 A  
HETATM    4  C   UNL     1     -10.878   8.495  68.448  1.00  0.00     0.021 A  
HETATM    5  C   UNL     1     -10.797   7.122  68.160  1.00  0.00    -0.170 A  
HETATM    6  C   UNL     1     -10.301   6.719  66.912  1.00  0.00    -0.324 A  
HETATM    7  C   UNL     1      -9.894   7.669  65.973  1.00  0.00     0.196 A  
ENDROOT
BRANCH   5   8
HETATM    8  C   UNL     1     -11.181   6.099  69.203  1.00  0.00    -0.339 C  
BRANCH   8   9
HETATM    9  O   UNL     1     -10.347   6.260  70.344  1.00  0.00    -0.192 OA 
BRANCH   9  10
HETATM   10  C   UNL     1     -11.028   6.368  71.614  1.00  0.00    -0.257 C  
BRANCH  10  11
HETATM   11  C   UNL     1     -11.715   7.743  71.690  1.00  0.00    -0.316 A  
HETATM   12  C   UNL     1     -12.880  10.324  71.836  1.00  0.00    -0.426 A  
HETATM   13  C   UNL     1     -13.112   7.916  71.783  1.00  0.00    -0.325 A  
HETATM   14  C   UNL     1     -10.933   8.919  71.625  1.00  0.00    -0.415 A  
HETATM   15  C   UNL     1     -13.685   9.194  71.885  1.00  0.00    -0.485 A  
HETATM   16 CL   UNL     1     -13.590  11.888  71.927  1.00  0.00    -0.266 Cl 
HETATM   17 CL   UNL     1     -14.228   6.598  71.719  1.00  0.00    -0.259 Cl 
HETATM   18  C   UNL     1     -11.507  10.194  71.688  1.00  0.00     0.100 A  
ENDBRANCH  10  11
BRANCH  10  19
HETATM   19  C   UNL     1     -10.058   6.036  72.777  1.00  0.00    -0.183 C  
BRANCH  19  20
HETATM   20  N   UNL     1      -8.658   6.056  72.407  1.00  0.00    -0.120 NA 
HETATM   21  C   UNL     1      -7.800   4.991  72.432  1.00  0.00    -0.100 A  
HETATM   22  N   UNL     1      -6.716   6.826  71.686  1.00  0.00    -0.060 NA 
HETATM   23  C   UNL     1      -6.591   5.506  72.028  1.00  0.00    -0.057 A  
HETATM   24  C   UNL     1      -7.978   7.123  71.901  1.00  0.00    -0.093 A  
ENDBRANCH  19  20
ENDBRANCH  10  19
ENDBRANCH   9  10
ENDBRANCH   8   9
ENDBRANCH   5   8
TORSDOF 6
ENDMDL
MODEL      246
REMARK 921   NORMALIZED FREE ENERGY PREDICTED BY IDOCK:   -3.29 KCAL/MOL
REMARK 922        TOTAL FREE ENERGY PREDICTED BY IDOCK:   -5.57 KCAL/MOL
REMARK 923 INTER-LIGAND FREE ENERGY PREDICTED BY IDOCK:   -4.60 KCAL/MOL
REMARK 924 INTRA-LIGAND FREE ENERGY PREDICTED BY IDOCK:   -0.97 KCAL/MOL
REMARK 927      BINDING AFFINITY PREDICTED BY RF-SCORE:    0.00 PKD
ROOT
HETATM    1 CL   UNL     1     -12.396  14.828  64.130  1.00  0.00    -0.420 Cl 
HETATM    2  C   UNL     1     -11.748  13.320  64.644  1.00  0.00    -0.364 A  
HETATM    3  C   UNL     1     -11.091  12.498  63.733  1.00  0.00    -0.503 A  
HETATM    4  C   UNL     1     -10.579  11.268  64.153  1.00  0.00    -0.437 A  
HETATM    5  C   UNL     1     -10.721  10.851  65.487  1.00  0.00    -0.182 A  
HETATM    6  C   UNL     1     -11.382  11.693  66.393  1.00  0.00    -0.312 A  
HETATM    7  C   UNL     1     -11.890  12.924  65.972  1.00  0.00    -0.485 A  
ENDROOT
BRANCH   5   8
HETATM    8  C   UNL     1     -10.224   9.492  65.921  1.00  0.00    -0.115 C  
BRANCH   8   9
HETATM    9  O   UNL     1      -8.806   9.525  66.022  1.00  0.00    -0.143 OA 
BRANCH   9  10
HETATM   10  C   UNL     1      -8.231   8.768  67.110  1.00  0.00    -0.104 C  
BRANCH  10  11
HETATM   11  C   UNL     1      -7.582   9.747  68.104  1.00  0.00    -0.082 A  
HETATM   12  C   UNL     1      -6.383  11.629  69.854  1.00  0.00    -0.124 A  
HETATM   13  C   UNL     1      -7.168   9.385  69.403  1.00  0.00    -0.066 A  
HETATM   14  C   UNL     1      -7.412  11.102  67.740  1.00  0.00    -0.095 A  
HETATM   15  C   UNL     1      -6.547  10.310  70.258  1.00  0.00    -0.142 A  
HETATM   16 CL   UNL     1      -5.653  12.767  70.918  1.00  0.00    -0.183 Cl 
HETATM   17 CL   UNL     1      -7.436   7.813  70.071  1.00  0.00    -0.079 Cl 
HETATM   18  C   UNL     1      -6.829  12.035  68.605  1.00  0.00    -0.091 A  
ENDBRANCH  10  11
BRANCH  10  19
HETATM   19  C   UNL     1      -7.305   7.652  66.563  1.00  0.00    -0.087 C  
BRANCH  19  20
HETATM   20  N   UNL     1      -7.987   6.413  66.252  1.00  0.00    -0.108 NA 
HETATM   21  C   UNL     1      -9.148   5.965  66.820  1.00  0.00    -0.128 A  
HETATM   22  N   UNL     1      -8.437   4.485  65.270  1.00  0.00    -0.121 NA 
HETATM   23  C   UNL     1      -9.379   4.745  66.229  1.00  0.00    -0.149 A  
HETATM   24  C   UNL     1      -7.627   5.519  65.289  1.00  0.00    -0.080 A  
ENDBRANCH  19  20
ENDBRANCH  10  19
ENDBRANCH   9  10
ENDBRANCH   8   9
ENDBRANCH   5   8
TORSDOF 6
ENDMDL
MODEL      247
REMARK 921   NORMALIZED FREE ENERGY PREDICTED BY IDOCK:   -3.24 KCAL/MOL
REMARK 922        TOTAL FREE ENERGY PREDICTED BY IDOCK:   -5.50 KCAL/MOL
REMARK 923 INTER-LIGAND FREE ENERGY PREDICTED BY IDOCK:   -4.23 KCAL/MOL
REMARK 924 INTRA-LIGAND FREE ENERGY PREDICTED BY IDOCK:   -1.27 KCAL/MOL
REMARK 927      BINDING AFFINITY PREDICTED BY RF-SCORE:    0.00 PKD
ROOT
HETATM    1 CL   UNL     1      -5.150  11.517  69.169  1.00  0.00    -0.044 Cl 
HETATM    2  C   UNL     1      -6.711  10.892  68.808  1.00  0.00    -0.062 A  
HETATM    3  C   UNL     1      -7.164  10.870  67.492  1.00  0.00    -0.095 A  
HETATM    4  C   UNL     1      -8.439  10.373  67.205  1.00  0.00    -0.122 A  
HETATM    5  C   UNL     1      -9.268   9.896  68.233  1.00  0.00    -0.130 A  
HETATM    6  C   UNL     1      -8.795   9.921  69.553  1.00  0.00    -0.208 A  
HETATM    7  C   UNL     1      -7.520  10.415  69.837  1.00  0.00    -0.134 A  
ENDROOT
BRANCH   5   8
HETATM    8  C   UNL     1     -10.670   9.421  67.927  1.00  0.00    -0.210 C  
BRANCH   8   9
HETATM    9  O   UNL     1     -10.610   8.101  67.402  1.00  0.00    -0.279 OA 
BRANCH   9  10
HETATM   10  C   UNL     1     -10.188   7.071  68.323  1.00  0.00    -0.182 C  
BRANCH  10  11
HETATM   11  C   UNL     1      -9.435   5.984  67.536  1.00  0.00    -0.113 A  
HETATM   12  C   UNL     1      -8.145   3.930  66.067  1.00  0.00    -0.101 A  
HETATM   13  C   UNL     1      -8.029   5.913  67.448  1.00  0.00    -0.102 A  
HETATM   14  C   UNL     1     -10.165   5.009  66.817  1.00  0.00    -0.286 A  
HETATM   15  C   UNL     1      -7.391   4.878  66.746  1.00  0.00    -0.086 A  
HETATM   16 CL   UNL     1      -7.359   2.684  65.180  1.00  0.00    -0.065 Cl 
HETATM   17 CL   UNL     1      -6.983   7.107  68.134  1.00  0.00    -0.074 Cl 
HETATM   18  C   UNL     1      -9.530   4.000  66.085  1.00  0.00    -0.192 A  
ENDBRANCH  10  11
BRANCH  10  19
HETATM   19  C   UNL     1     -11.389   6.577  69.170  1.00  0.00    -0.261 C  
BRANCH  19  20
HETATM   20  N   UNL     1     -11.282   6.877  70.583  1.00  0.00    -0.283 NA 
HETATM   21  C   UNL     1     -10.804   6.039  71.553  1.00  0.00    -0.266 A  
HETATM   22  N   UNL     1     -11.390   8.015  72.474  1.00  0.00    -0.382 NA 
HETATM   23  C   UNL     1     -10.928   6.750  72.723  1.00  0.00    -0.270 A  
HETATM   24  C   UNL     1     -11.570   8.070  71.174  1.00  0.00    -0.282 A  
ENDBRANCH  19  20
ENDBRANCH  10  19
ENDBRANCH   9  10
ENDBRANCH   8   9
ENDBRANCH   5   8
TORSDOF 6
ENDMDL
MODEL      248
REMARK 921   NORMALIZED FREE ENERGY PREDICTED BY IDOCK:   -3.22 KCAL/MOL
REMARK 922        TOTAL FREE ENERGY PREDICTED BY IDOCK:   -5.48 KCAL/MOL
REMARK 923 INTER-LIGAND FREE ENERGY PREDICTED BY IDOCK:   -4.76 KCAL/MOL
REMARK 924 INTRA-LIGAND FREE ENERGY PREDICTED BY IDOCK:   -0.72 KCAL/MOL
REMARK 927      BINDING AFFINITY PREDICTED BY RF-SCORE:    0.00 PKD
ROOT
HETATM    1 CL   UNL     1     -12.370  12.760  70.360  1.00  0.00    -0.365 Cl 
HETATM    2  C   UNL     1     -11.679  11.291  69.793  1.00  0.00    -0.349 A  
HETATM    3  C   UNL     1     -11.258  10.325  70.702  1.00  0.00    -0.406 A  
HETATM    4  C   UNL     1     -10.684   9.138  70.236  1.00  0.00    -0.268 A  
HETATM    5  C   UNL     1     -10.527   8.912  68.859  1.00  0.00    -0.225 A  
HETATM    6  C   UNL     1     -10.960   9.894  67.957  1.00  0.00    -0.269 A  
HETATM    7  C   UNL     1     -11.537  11.077  68.424  1.00  0.00    -0.372 A  
ENDROOT
BRANCH   5   8
HETATM    8  C   UNL     1      -9.847   7.657  68.363  1.00  0.00    -0.166 C  
BRANCH   8   9
HETATM    9  O   UNL     1      -8.905   7.222  69.335  1.00  0.00    -0.137 OA 
BRANCH   9  10
HETATM   10  C   UNL     1      -8.939   5.815  69.663  1.00  0.00    -0.128 C  
BRANCH  10  11
HETATM   11  C   UNL     1      -8.620   5.005  68.394  1.00  0.00    -0.100 A  
HETATM   12  C   UNL     1      -8.136   3.470  66.059  1.00  0.00    -0.093 A  
HETATM   13  C   UNL     1      -7.342   4.954  67.798  1.00  0.00    -0.074 A  
HETATM   14  C   UNL     1      -9.653   4.293  67.741  1.00  0.00    -0.210 A  
HETATM   15  C   UNL     1      -7.097   4.169  66.660  1.00  0.00    -0.060 A  
HETATM   16 CL   UNL     1      -7.838   2.538  64.644  1.00  0.00    -0.076 Cl 
HETATM   17 CL   UNL     1      -6.001   5.882  68.370  1.00  0.00    -0.019 Cl 
HETATM   18  C   UNL     1      -9.417   3.542  66.584  1.00  0.00    -0.179 A  
ENDBRANCH  10  11
BRANCH  10  19
HETATM   19  C   UNL     1     -10.270   5.457  70.372  1.00  0.00    -0.262 C  
BRANCH  19  20
HETATM   20  N   UNL     1     -10.225   5.577  71.815  1.00  0.00    -0.196 NA 
HETATM   21  C   UNL     1     -10.709   4.671  72.718  1.00  0.00    -0.204 A  
HETATM   22  N   UNL     1      -9.778   6.413  73.811  1.00  0.00    -0.174 NA 
HETATM   23  C   UNL     1     -10.464   5.236  73.947  1.00  0.00    -0.279 A  
HETATM   24  C   UNL     1      -9.626   6.580  72.517  1.00  0.00    -0.151 A  
ENDBRANCH  19  20
ENDBRANCH  10  19
ENDBRANCH   9  10
ENDBRANCH   8   9
ENDBRANCH   5   8
TORSDOF 6
ENDMDL
MODEL      249
REMARK 921   NORMALIZED FREE ENERGY PREDICTED BY IDOCK:   -3.21 KCAL/MOL
REMARK 922        TOTAL FREE ENERGY PREDICTED BY IDOCK:   -5.46 KCAL/MOL
REMARK 923 INTER-LIGAND FREE ENERGY PREDICTED BY IDOCK:   -5.56 KCAL/MOL
REMARK 924 INTRA-LIGAND FREE ENERGY PREDICTED BY IDOCK:    0.10 KCAL/MOL
REMARK 927      BINDING AFFINITY PREDICTED BY RF-SCORE:    0.00 PKD
ROOT
HETATM    1 CL   UNL     1      -8.889   3.465  64.653  1.00  0.00    -0.112 Cl 
HETATM    2  C   UNL     1      -9.286   4.906  65.502  1.00  0.00    -0.157 A  
HETATM    3  C   UNL     1     -10.482   4.988  66.211  1.00  0.00    -0.352 A  
HETATM    4  C   UNL     1     -10.806   6.167  66.889  1.00  0.00    -0.411 A  
HETATM    5  C   UNL     1      -9.938   7.271  66.861  1.00  0.00    -0.302 A  
HETATM    6  C   UNL     1      -8.736   7.169  66.146  1.00  0.00    -0.164 A  
HETATM    7  C   UNL     1      -8.411   5.990  65.473  1.00  0.00    -0.151 A  
ENDROOT
BRANCH   5   8
HETATM    8  C   UNL     1     -10.323   8.564  67.541  1.00  0.00    -0.267 C  
BRANCH   8   9
HETATM    9  O   UNL     1     -10.635   8.300  68.902  1.00  0.00    -0.211 OA 
BRANCH   9  10
HETATM   10  C   UNL     1     -10.182   9.285  69.858  1.00  0.00    -0.214 C  
BRANCH  10  11
HETATM   11  C   UNL     1     -10.473  10.688  69.296  1.00  0.00    -0.252 A  
HETATM   12  C   UNL     1     -11.115  13.262  68.295  1.00  0.00    -0.266 A  
HETATM   13  C   UNL     1      -9.543  11.441  68.549  1.00  0.00    -0.189 A  
HETATM   14  C   UNL     1     -11.719  11.301  69.558  1.00  0.00    -0.415 A  
HETATM   15  C   UNL     1      -9.872  12.702  68.028  1.00  0.00    -0.218 A  
HETATM   16 CL   UNL     1     -11.502  14.823  67.683  1.00  0.00    -0.349 Cl 
HETATM   17 CL   UNL     1      -7.921  10.914  68.263  1.00  0.00    -0.115 Cl 
HETATM   18  C   UNL     1     -12.035  12.575  69.072  1.00  0.00    -0.280 A  
ENDBRANCH  10  11
BRANCH  10  19
HETATM   19  C   UNL     1      -8.709   9.013  70.258  1.00  0.00    -0.184 C  
BRANCH  19  20
HETATM   20  N   UNL     1      -8.532   8.629  71.642  1.00  0.00    -0.195 NA 
HETATM   21  C   UNL     1      -7.340   8.527  72.307  1.00  0.00    -0.057 A  
HETATM   22  N   UNL     1      -9.039   8.031  73.708  1.00  0.00    -0.246 NA 
HETATM   23  C   UNL     1      -7.679   8.106  73.571  1.00  0.00    -0.165 A  
HETATM   24  C   UNL     1      -9.527   8.375  72.538  1.00  0.00    -0.289 A  
ENDBRANCH  19  20
ENDBRANCH  10  19
ENDBRANCH   9  10
ENDBRANCH   8   9
ENDBRANCH   5   8
TORSDOF 6
ENDMDL
MODEL      250
REMARK 921   NORMALIZED FREE ENERGY PREDICTED BY IDOCK:   -3.19 KCAL/MOL
REMARK 922        TOTAL FREE ENERGY PREDICTED BY IDOCK:   -5.44 KCAL/MOL
REMARK 923 INTER-LIGAND FREE ENERGY PREDICTED BY IDOCK:   -4.31 KCAL/MOL
REMARK 924 INTRA-LIGAND FREE ENERGY PREDICTED BY IDOCK:   -1.12 KCAL/MOL
REMARK 927      BINDING AFFINITY PREDICTED BY RF-SCORE:    0.00 PKD
ROOT
HETATM    1 CL   UNL     1     -14.238   8.920  72.866  1.00  0.00    -0.166 Cl 
HETATM    2  C   UNL     1     -12.974   9.145  71.721  1.00  0.00    -0.380 A  
HETATM    3  C   UNL     1     -12.187   8.064  71.333  1.00  0.00    -0.335 A  
HETATM    4  C   UNL     1     -11.153   8.255  70.412  1.00  0.00    -0.238 A  
HETATM    5  C   UNL     1     -10.900   9.528  69.874  1.00  0.00    -0.272 A  
HETATM    6  C   UNL     1     -11.705  10.605  70.273  1.00  0.00    -0.433 A  
HETATM    7  C   UNL     1     -12.740  10.411  71.190  1.00  0.00    -0.514 A  
ENDROOT
BRANCH   5   8
HETATM    8  C   UNL     1      -9.741   9.742  68.930  1.00  0.00    -0.171 C  
BRANCH   8   9
HETATM    9  O   UNL     1      -9.836   8.814  67.857  1.00  0.00    -0.156 OA 
BRANCH   9  10
HETATM   10  C   UNL     1      -8.615   8.126  67.505  1.00  0.00    -0.129 C  
BRANCH  10  11
HETATM   11  C   UNL     1      -8.301   7.090  68.598  1.00  0.00    -0.122 A  
HETATM   12  C   UNL     1      -7.631   5.240  70.641  1.00  0.00    -0.076 A  
HETATM   13  C   UNL     1      -9.023   5.890  68.771  1.00  0.00    -0.117 A  
HETATM   14  C   UNL     1      -7.261   7.342  69.523  1.00  0.00    -0.082 A  
HETATM   15  C   UNL     1      -8.671   4.961  69.763  1.00  0.00    -0.110 A  
HETATM   16 CL   UNL     1      -7.227   4.114  71.876  1.00  0.00    -0.056 Cl 
HETATM   17 CL   UNL     1     -10.419   5.490  67.833  1.00  0.00    -0.256 Cl 
HETATM   18  C   UNL     1      -6.935   6.434  70.537  1.00  0.00    -0.064 A  
ENDBRANCH  10  11
BRANCH  10  19
HETATM   19  C   UNL     1      -7.487   9.146  67.201  1.00  0.00    -0.087 C  
BRANCH  19  20
HETATM   20  N   UNL     1      -7.337   9.463  65.796  1.00  0.00    -0.094 NA 
HETATM   21  C   UNL     1      -6.339  10.215  65.239  1.00  0.00    -0.119 A  
HETATM   22  N   UNL     1      -7.741   9.492  63.624  1.00  0.00    -0.119 NA 
HETATM   23  C   UNL     1      -6.640  10.259  63.898  1.00  0.00    -0.075 A  
HETATM   24  C   UNL     1      -8.124   9.005  64.782  1.00  0.00    -0.144 A  
ENDBRANCH  19  20
ENDBRANCH  10  19
ENDBRANCH   9  10
ENDBRANCH   8   9
ENDBRANCH   5   8
TORSDOF 6
ENDMDL
MODEL      251
REMARK 921   NORMALIZED FREE ENERGY PREDICTED BY IDOCK:   -3.18 KCAL/MOL
REMARK 922        TOTAL FREE ENERGY PREDICTED BY IDOCK:   -5.42 KCAL/MOL
REMARK 923 INTER-LIGAND FREE ENERGY PREDICTED BY IDOCK:   -5.20 KCAL/MOL
REMARK 924 INTRA-LIGAND FREE ENERGY PREDICTED BY IDOCK:   -0.22 KCAL/MOL
REMARK 927      BINDING AFFINITY PREDICTED BY RF-SCORE:    0.00 PKD
ROOT
HETATM    1 CL   UNL     1      -7.852  18.914  67.876  1.00  0.00    -0.280 Cl 
HETATM    2  C   UNL     1      -7.867  17.195  67.826  1.00  0.00    -0.182 A  
HETATM    3  C   UNL     1      -7.535  16.464  68.964  1.00  0.00    -0.227 A  
HETATM    4  C   UNL     1      -7.535  15.067  68.914  1.00  0.00    -0.143 A  
HETATM    5  C   UNL     1      -7.866  14.393  67.727  1.00  0.00    -0.169 A  
HETATM    6  C   UNL     1      -8.202  15.145  66.592  1.00  0.00    -0.083 A  
HETATM    7  C   UNL     1      -8.205  16.540  66.644  1.00  0.00    -0.306 A  
ENDROOT
BRANCH   5   8
HETATM    8  C   UNL     1      -7.801  12.885  67.660  1.00  0.00    -0.168 C  
BRANCH   8   9
HETATM    9  O   UNL     1      -9.024  12.344  68.144  1.00  0.00    -0.187 OA 
BRANCH   9  10
HETATM   10  C   UNL     1      -9.673  11.381  67.284  1.00  0.00    -0.185 C  
BRANCH  10  11
HETATM   11  C   UNL     1      -9.070   9.992  67.556  1.00  0.00    -0.144 A  
HETATM   12  C   UNL     1      -8.013   7.429  68.153  1.00  0.00    -0.123 A  
HETATM   13  C   UNL     1      -8.093   9.388  66.736  1.00  0.00    -0.109 A  
HETATM   14  C   UNL     1      -9.526   9.235  68.659  1.00  0.00    -0.148 A  
HETATM   15  C   UNL     1      -7.548   8.133  67.050  1.00  0.00    -0.096 A  
HETATM   16 CL   UNL     1      -7.367   5.876  68.514  1.00  0.00    -0.083 Cl 
HETATM   17 CL   UNL     1      -7.531  10.101  65.264  1.00  0.00    -0.141 Cl 
HETATM   18  C   UNL     1      -9.012   7.966  68.950  1.00  0.00    -0.141 A  
ENDBRANCH  10  11
BRANCH  10  19
HETATM   19  C   UNL     1      -9.630  11.856  65.809  1.00  0.00    -0.224 C  
BRANCH  19  20
HETATM   20  N   UNL     1     -10.702  12.759  65.445  1.00  0.00    -0.278 NA 
HETATM   21  C   UNL     1     -10.745  13.558  64.335  1.00  0.00    -0.388 A  
HETATM   22  N   UNL     1     -12.637  13.824  65.539  1.00  0.00    -0.510 NA 
HETATM   23  C   UNL     1     -11.932  14.244  64.443  1.00  0.00    -0.456 A  
HETATM   24  C   UNL     1     -11.883  12.911  66.108  1.00  0.00    -0.429 A  
ENDBRANCH  19  20
ENDBRANCH  10  19
ENDBRANCH   9  10
ENDBRANCH   8   9
ENDBRANCH   5   8
TORSDOF 6
ENDMDL
MODEL      252
REMARK 921   NORMALIZED FREE ENERGY PREDICTED BY IDOCK:   -3.17 KCAL/MOL
REMARK 922        TOTAL FREE ENERGY PREDICTED BY IDOCK:   -5.41 KCAL/MOL
REMARK 923 INTER-LIGAND FREE ENERGY PREDICTED BY IDOCK:   -4.51 KCAL/MOL
REMARK 924 INTRA-LIGAND FREE ENERGY PREDICTED BY IDOCK:   -0.89 KCAL/MOL
REMARK 927      BINDING AFFINITY PREDICTED BY RF-SCORE:    0.00 PKD
ROOT
HETATM    1 CL   UNL     1     -12.860  10.557  70.105  1.00  0.00    -0.233 Cl 
HETATM    2  C   UNL     1     -11.674   9.697  71.005  1.00  0.00    -0.353 A  
HETATM    3  C   UNL     1     -12.063   8.865  72.051  1.00  0.00    -0.442 A  
HETATM    4  C   UNL     1     -11.094   8.178  72.788  1.00  0.00    -0.407 A  
HETATM    5  C   UNL     1      -9.730   8.321  72.485  1.00  0.00    -0.368 A  
HETATM    6  C   UNL     1      -9.355   9.160  71.426  1.00  0.00    -0.246 A  
HETATM    7  C   UNL     1     -10.325   9.842  70.688  1.00  0.00    -0.258 A  
ENDROOT
BRANCH   5   8
HETATM    8  C   UNL     1      -8.683   7.628  73.325  1.00  0.00    -0.190 C  
BRANCH   8   9
HETATM    9  O   UNL     1      -8.562   6.277  72.899  1.00  0.00    -0.122 OA 
BRANCH   9  10
HETATM   10  C   UNL     1      -7.634   6.035  71.818  1.00  0.00    -0.096 C  
BRANCH  10  11
HETATM   11  C   UNL     1      -8.431   5.880  70.511  1.00  0.00    -0.128 A  
HETATM   12  C   UNL     1      -9.814   5.643  68.047  1.00  0.00    -0.133 A  
HETATM   13  C   UNL     1      -9.752   5.389  70.452  1.00  0.00    -0.192 A  
HETATM   14  C   UNL     1      -7.819   6.200  69.277  1.00  0.00    -0.104 A  
HETATM   15  C   UNL     1     -10.447   5.301  69.235  1.00  0.00    -0.255 A  
HETATM   16 CL   UNL     1     -10.659   5.500  66.555  1.00  0.00    -0.352 Cl 
HETATM   17 CL   UNL     1     -10.600   4.806  71.842  1.00  0.00    -0.205 Cl 
HETATM   18  C   UNL     1      -8.497   6.076  68.060  1.00  0.00    -0.115 A  
ENDBRANCH  10  11
BRANCH  10  19
HETATM   19  C   UNL     1      -6.685   4.861  72.171  1.00  0.00    -0.051 C  
BRANCH  19  20
HETATM   20  N   UNL     1      -7.364   3.610  72.438  1.00  0.00    -0.048 NA 
HETATM   21  C   UNL     1      -7.593   2.606  71.538  1.00  0.00    -0.041 A  
HETATM   22  N   UNL     1      -8.411   2.019  73.559  1.00  0.00    -0.058 NA 
HETATM   23  C   UNL     1      -8.287   1.653  72.245  1.00  0.00    -0.053 A  
HETATM   24  C   UNL     1      -7.823   3.190  73.651  1.00  0.00    -0.065 A  
ENDBRANCH  19  20
ENDBRANCH  10  19
ENDBRANCH   9  10
ENDBRANCH   8   9
ENDBRANCH   5   8
TORSDOF 6
ENDMDL
MODEL      253
REMARK 921   NORMALIZED FREE ENERGY PREDICTED BY IDOCK:   -3.15 KCAL/MOL
REMARK 922        TOTAL FREE ENERGY PREDICTED BY IDOCK:   -5.39 KCAL/MOL
REMARK 923 INTER-LIGAND FREE ENERGY PREDICTED BY IDOCK:   -4.23 KCAL/MOL
REMARK 924 INTRA-LIGAND FREE ENERGY PREDICTED BY IDOCK:   -1.15 KCAL/MOL
REMARK 927      BINDING AFFINITY PREDICTED BY RF-SCORE:    0.00 PKD
ROOT
HETATM    1 CL   UNL     1      -7.414   6.411  62.332  1.00  0.00    -0.060 Cl 
HETATM    2  C   UNL     1      -7.620   7.836  63.274  1.00  0.00    -0.126 A  
HETATM    3  C   UNL     1      -6.974   7.956  64.502  1.00  0.00    -0.071 A  
HETATM    4  C   UNL     1      -7.155   9.110  65.270  1.00  0.00    -0.088 A  
HETATM    5  C   UNL     1      -7.984  10.149  64.815  1.00  0.00    -0.146 A  
HETATM    6  C   UNL     1      -8.622  10.014  63.575  1.00  0.00    -0.209 A  
HETATM    7  C   UNL     1      -8.438   8.862  62.807  1.00  0.00    -0.191 A  
ENDROOT
BRANCH   5   8
HETATM    8  C   UNL     1      -8.228  11.365  65.678  1.00  0.00     0.231 C  
BRANCH   8   9
HETATM    9  O   UNL     1      -9.613  11.447  65.987  1.00  0.00    -0.207 OA 
BRANCH   9  10
HETATM   10  C   UNL     1      -9.950  11.444  67.392  1.00  0.00    -0.186 C  
BRANCH  10  11
HETATM   11  C   UNL     1     -10.098   9.986  67.860  1.00  0.00    -0.203 A  
HETATM   12  C   UNL     1     -10.444   7.281  68.640  1.00  0.00    -0.194 A  
HETATM   13  C   UNL     1      -9.503   9.475  69.033  1.00  0.00    -0.158 A  
HETATM   14  C   UNL     1     -10.833   9.070  67.073  1.00  0.00    -0.044 A  
HETATM   15  C   UNL     1      -9.700   8.144  69.434  1.00  0.00    -0.170 A  
HETATM   16 CL   UNL     1     -10.654   5.642  69.118  1.00  0.00    -0.338 Cl 
HETATM   17 CL   UNL     1      -8.447  10.409  70.034  1.00  0.00     0.080 Cl 
HETATM   18  C   UNL     1     -10.998   7.733  67.451  1.00  0.00    -0.060 A  
ENDBRANCH  10  11
BRANCH  10  19
HETATM   19  C   UNL     1     -11.169  12.363  67.659  1.00  0.00    -0.288 C  
BRANCH  19  20
HETATM   20  N   UNL     1     -11.486  13.261  66.568  1.00  0.00    -0.323 NA 
HETATM   21  C   UNL     1     -12.474  13.087  65.638  1.00  0.00    -0.390 A  
HETATM   22  N   UNL     1     -11.393  15.031  65.247  1.00  0.00    -0.358 NA 
HETATM   23  C   UNL     1     -12.364  14.173  64.802  1.00  0.00    -0.417 A  
HETATM   24  C   UNL     1     -10.899  14.467  66.326  1.00  0.00    -0.317 A  
ENDBRANCH  19  20
ENDBRANCH  10  19
ENDBRANCH   9  10
ENDBRANCH   8   9
ENDBRANCH   5   8
TORSDOF 6
ENDMDL
MODEL      254
REMARK 921   NORMALIZED FREE ENERGY PREDICTED BY IDOCK:   -3.15 KCAL/MOL
REMARK 922        TOTAL FREE ENERGY PREDICTED BY IDOCK:   -5.38 KCAL/MOL
REMARK 923 INTER-LIGAND FREE ENERGY PREDICTED BY IDOCK:   -5.03 KCAL/MOL
REMARK 924 INTRA-LIGAND FREE ENERGY PREDICTED BY IDOCK:   -0.35 KCAL/MOL
REMARK 927      BINDING AFFINITY PREDICTED BY RF-SCORE:    0.00 PKD
ROOT
HETATM    1 CL   UNL     1     -10.033   5.006  72.034  1.00  0.00    -0.229 Cl 
HETATM    2  C   UNL     1     -10.453   6.529  71.355  1.00  0.00    -0.213 A  
HETATM    3  C   UNL     1      -9.463   7.473  71.100  1.00  0.00    -0.163 A  
HETATM    4  C   UNL     1      -9.811   8.715  70.560  1.00  0.00    -0.210 A  
HETATM    5  C   UNL     1     -11.152   9.020  70.275  1.00  0.00    -0.263 A  
HETATM    6  C   UNL     1     -12.137   8.057  70.534  1.00  0.00     0.127 A  
HETATM    7  C   UNL     1     -11.786   6.815  71.069  1.00  0.00    -0.427 A  
ENDROOT
BRANCH   5   8
HETATM    8  C   UNL     1     -11.531  10.387  69.754  1.00  0.00    -0.280 C  
BRANCH   8   9
HETATM    9  O   UNL     1     -10.357  11.176  69.615  1.00  0.00    -0.073 OA 
BRANCH   9  10
HETATM   10  C   UNL     1      -9.665  11.064  68.352  1.00  0.00    -0.180 C  
BRANCH  10  11
HETATM   11  C   UNL     1      -9.111  12.448  67.970  1.00  0.00    -0.195 A  
HETATM   12  C   UNL     1      -7.986  14.959  67.280  1.00  0.00    -0.209 A  
HETATM   13  C   UNL     1      -9.920  13.582  67.747  1.00  0.00    -0.232 A  
HETATM   14  C   UNL     1      -7.719  12.618  67.785  1.00  0.00    -0.145 A  
HETATM   15  C   UNL     1      -9.360  14.831  67.435  1.00  0.00    -0.199 A  
HETATM   16 CL   UNL     1      -7.308  16.484  66.865  1.00  0.00    -0.237 Cl 
HETATM   17 CL   UNL     1     -11.648  13.523  67.777  1.00  0.00    -0.353 Cl 
HETATM   18  C   UNL     1      -7.163  13.854  67.436  1.00  0.00    -0.113 A  
ENDBRANCH  10  11
BRANCH  10  19
HETATM   19  C   UNL     1     -10.574  10.389  67.294  1.00  0.00    -0.267 C  
BRANCH  19  20
HETATM   20  N   UNL     1      -9.910  10.095  66.041  1.00  0.00    -0.230 NA 
HETATM   21  C   UNL     1      -9.135   9.000  65.774  1.00  0.00    -0.219 A  
HETATM   22  N   UNL     1      -9.266  10.307  63.938  1.00  0.00    -0.251 NA 
HETATM   23  C   UNL     1      -8.708   9.180  64.480  1.00  0.00    -0.160 A  
HETATM   24  C   UNL     1     -10.005  10.823  64.893  1.00  0.00    -0.312 A  
ENDBRANCH  19  20
ENDBRANCH  10  19
ENDBRANCH   9  10
ENDBRANCH   8   9
ENDBRANCH   5   8
TORSDOF 6
ENDMDL
MODEL      255
REMARK 921   NORMALIZED FREE ENERGY PREDICTED BY IDOCK:   -3.12 KCAL/MOL
REMARK 922        TOTAL FREE ENERGY PREDICTED BY IDOCK:   -5.34 KCAL/MOL
REMARK 923 INTER-LIGAND FREE ENERGY PREDICTED BY IDOCK:   -4.76 KCAL/MOL
REMARK 924 INTRA-LIGAND FREE ENERGY PREDICTED BY IDOCK:   -0.58 KCAL/MOL
REMARK 927      BINDING AFFINITY PREDICTED BY RF-SCORE:    0.00 PKD
ROOT
HETATM    1 CL   UNL     1     -10.981   3.984  73.771  1.00  0.00    -0.328 Cl 
HETATM    2  C   UNL     1     -10.330   5.378  73.000  1.00  0.00    -0.197 A  
HETATM    3  C   UNL     1      -9.102   5.302  72.351  1.00  0.00    -0.143 A  
HETATM    4  C   UNL     1      -8.571   6.441  71.737  1.00  0.00    -0.128 A  
HETATM    5  C   UNL     1      -9.265   7.661  71.771  1.00  0.00    -0.167 A  
HETATM    6  C   UNL     1     -10.504   7.718  72.426  1.00  0.00    -0.321 A  
HETATM    7  C   UNL     1     -11.034   6.579  73.035  1.00  0.00    -0.270 A  
ENDROOT
BRANCH   5   8
HETATM    8  C   UNL     1      -8.658   8.904  71.163  1.00  0.00    -0.208 C  
BRANCH   8   9
HETATM    9  O   UNL     1      -9.140   9.057  69.834  1.00  0.00    -0.151 OA 
BRANCH   9  10
HETATM   10  C   UNL     1      -8.385   9.950  68.986  1.00  0.00    -0.130 C  
BRANCH  10  11
HETATM   11  C   UNL     1      -9.367  10.733  68.097  1.00  0.00    -0.155 A  
HETATM   12  C   UNL     1     -11.151  12.268  66.515  1.00  0.00    -0.299 A  
HETATM   13  C   UNL     1     -10.214  10.128  67.144  1.00  0.00    -0.225 A  
HETATM   14  C   UNL     1      -9.421  12.143  68.187  1.00  0.00    -0.205 A  
HETATM   15  C   UNL     1     -11.118  10.885  66.383  1.00  0.00    -0.077 A  
HETATM   16 CL   UNL     1     -12.237  13.195  65.555  1.00  0.00    -0.483 Cl 
HETATM   17 CL   UNL     1     -10.173   8.436  66.791  1.00  0.00    -0.374 Cl 
HETATM   18  C   UNL     1     -10.294  12.902  67.401  1.00  0.00    -0.233 A  
ENDBRANCH  10  11
BRANCH  10  19
HETATM   19  C   UNL     1      -7.272   9.174  68.237  1.00  0.00    -0.078 C  
BRANCH  19  20
HETATM   20  N   UNL     1      -6.633   9.928  67.178  1.00  0.00    -0.069 NA 
HETATM   21  C   UNL     1      -6.660   9.629  65.843  1.00  0.00    -0.080 A  
HETATM   22  N   UNL     1      -5.479  11.524  66.176  1.00  0.00    -0.272 NA 
HETATM   23  C   UNL     1      -5.896  10.606  65.250  1.00  0.00    -0.107 A  
HETATM   24  C   UNL     1      -5.959  11.103  67.324  1.00  0.00    -0.064 A  
ENDBRANCH  19  20
ENDBRANCH  10  19
ENDBRANCH   9  10
ENDBRANCH   8   9
ENDBRANCH   5   8
TORSDOF 6
ENDMDL
MODEL      256
REMARK 921   NORMALIZED FREE ENERGY PREDICTED BY IDOCK:   -3.10 KCAL/MOL
REMARK 922        TOTAL FREE ENERGY PREDICTED BY IDOCK:   -5.31 KCAL/MOL
REMARK 923 INTER-LIGAND FREE ENERGY PREDICTED BY IDOCK:   -5.35 KCAL/MOL
REMARK 924 INTRA-LIGAND FREE ENERGY PREDICTED BY IDOCK:    0.04 KCAL/MOL
REMARK 927      BINDING AFFINITY PREDICTED BY RF-SCORE:    0.00 PKD
ROOT
HETATM    1 CL   UNL     1     -10.843  14.264  65.433  1.00  0.00    -0.325 Cl 
HETATM    2  C   UNL     1     -10.721  12.651  66.018  1.00  0.00    -0.269 A  
HETATM    3  C   UNL     1      -9.921  11.728  65.350  1.00  0.00    -0.284 A  
HETATM    4  C   UNL     1      -9.836  10.415  65.822  1.00  0.00    -0.300 A  
HETATM    5  C   UNL     1     -10.549  10.018  66.964  1.00  0.00    -0.279 A  
HETATM    6  C   UNL     1     -11.346  10.961  67.628  1.00  0.00    -0.345 A  
HETATM    7  C   UNL     1     -11.428  12.274  67.157  1.00  0.00    -0.419 A  
ENDROOT
BRANCH   5   8
HETATM    8  C   UNL     1     -10.505   8.582  67.433  1.00  0.00    -0.280 C  
BRANCH   8   9
HETATM    9  O   UNL     1     -10.187   8.553  68.818  1.00  0.00    -0.193 OA 
BRANCH   9  10
HETATM   10  C   UNL     1      -8.885   8.025  69.157  1.00  0.00    -0.145 C  
BRANCH  10  11
HETATM   11  C   UNL     1      -8.862   6.522  68.826  1.00  0.00    -0.125 A  
HETATM   12  C   UNL     1      -8.715   3.766  68.174  1.00  0.00    -0.103 A  
HETATM   13  C   UNL     1      -9.973   5.667  68.984  1.00  0.00    -0.174 A  
HETATM   14  C   UNL     1      -7.663   5.925  68.373  1.00  0.00    -0.094 A  
HETATM   15  C   UNL     1      -9.908   4.310  68.632  1.00  0.00    -0.118 A  
HETATM   16 CL   UNL     1      -8.631   2.095  67.776  1.00  0.00    -0.099 Cl 
HETATM   17 CL   UNL     1     -11.471   6.191  69.670  1.00  0.00    -0.461 Cl 
HETATM   18  C   UNL     1      -7.586   4.564  68.059  1.00  0.00    -0.077 A  
ENDBRANCH  10  11
BRANCH  10  19
HETATM   19  C   UNL     1      -8.513   8.397  70.615  1.00  0.00    -0.135 C  
BRANCH  19  20
HETATM   20  N   UNL     1      -9.359   7.786  71.619  1.00  0.00    -0.138 NA 
HETATM   21  C   UNL     1      -9.042   6.704  72.394  1.00  0.00    -0.135 A  
HETATM   22  N   UNL     1     -11.107   7.444  72.927  1.00  0.00    -0.343 NA 
HETATM   23  C   UNL     1     -10.161   6.482  73.161  1.00  0.00    -0.213 A  
HETATM   24  C   UNL     1     -10.586   8.230  72.012  1.00  0.00    -0.296 A  
ENDBRANCH  19  20
ENDBRANCH  10  19
ENDBRANCH   9  10
ENDBRANCH   8   9
ENDBRANCH   5   8
TORSDOF 6
ENDMDL
MODEL      257
REMARK 921   NORMALIZED FREE ENERGY PREDICTED BY IDOCK:   -3.10 KCAL/MOL
REMARK 922        TOTAL FREE ENERGY PREDICTED BY IDOCK:   -5.31 KCAL/MOL
REMARK 923 INTER-LIGAND FREE ENERGY PREDICTED BY IDOCK:   -5.15 KCAL/MOL
REMARK 924 INTRA-LIGAND FREE ENERGY PREDICTED BY IDOCK:   -0.16 KCAL/MOL
REMARK 927      BINDING AFFINITY PREDICTED BY RF-SCORE:    0.00 PKD
ROOT
HETATM    1 CL   UNL     1     -10.260   2.805  63.276  1.00  0.00    -0.138 Cl 
HETATM    2  C   UNL     1      -9.844   4.017  64.423  1.00  0.00    -0.180 A  
HETATM    3  C   UNL     1     -10.654   4.229  65.535  1.00  0.00    -0.126 A  
HETATM    4  C   UNL     1     -10.319   5.225  66.457  1.00  0.00    -0.332 A  
HETATM    5  C   UNL     1      -9.172   6.014  66.273  1.00  0.00    -0.168 A  
HETATM    6  C   UNL     1      -8.364   5.784  65.150  1.00  0.00    -0.146 A  
HETATM    7  C   UNL     1      -8.699   4.787  64.231  1.00  0.00    -0.143 A  
ENDROOT
BRANCH   5   8
HETATM    8  C   UNL     1      -8.849   7.132  67.237  1.00  0.00    -0.120 C  
BRANCH   8   9
HETATM    9  O   UNL     1      -9.180   8.377  66.635  1.00  0.00    -0.157 OA 
BRANCH   9  10
HETATM   10  C   UNL     1      -8.783   9.558  67.366  1.00  0.00    -0.125 C  
BRANCH  10  11
HETATM   11  C   UNL     1      -9.798   9.803  68.497  1.00  0.00    -0.169 A  
HETATM   12  C   UNL     1     -11.609  10.184  70.645  1.00  0.00    -0.343 A  
HETATM   13  C   UNL     1     -10.987  10.546  68.335  1.00  0.00    -0.261 A  
HETATM   14  C   UNL     1      -9.536   9.301  69.792  1.00  0.00    -0.203 A  
HETATM   15  C   UNL     1     -11.897  10.708  69.392  1.00  0.00    -0.325 A  
HETATM   16 CL   UNL     1     -12.712  10.415  71.945  1.00  0.00    -0.504 Cl 
HETATM   17 CL   UNL     1     -11.393  11.360  66.866  1.00  0.00    -0.341 Cl 
HETATM   18  C   UNL     1     -10.424   9.496  70.856  1.00  0.00    -0.382 A  
ENDBRANCH  10  11
BRANCH  10  19
HETATM   19  C   UNL     1      -8.560  10.746  66.396  1.00  0.00    -0.158 C  
BRANCH  19  20
HETATM   20  N   UNL     1      -7.444  11.599  66.749  1.00  0.00    -0.125 NA 
HETATM   21  C   UNL     1      -7.496  12.710  67.547  1.00  0.00    -0.155 A  
HETATM   22  N   UNL     1      -5.373  12.362  66.863  1.00  0.00    -0.343 NA 
HETATM   23  C   UNL     1      -6.209  13.192  67.561  1.00  0.00    -0.122 A  
HETATM   24  C   UNL     1      -6.140  11.398  66.407  1.00  0.00    -0.085 A  
ENDBRANCH  19  20
ENDBRANCH  10  19
ENDBRANCH   9  10
ENDBRANCH   8   9
ENDBRANCH   5   8
TORSDOF 6
ENDMDL
MODEL      258
REMARK 921   NORMALIZED FREE ENERGY PREDICTED BY IDOCK:   -3.08 KCAL/MOL
REMARK 922        TOTAL FREE ENERGY PREDICTED BY IDOCK:   -5.29 KCAL/MOL
REMARK 923 INTER-LIGAND FREE ENERGY PREDICTED BY IDOCK:   -5.04 KCAL/MOL
REMARK 924 INTRA-LIGAND FREE ENERGY PREDICTED BY IDOCK:   -0.25 KCAL/MOL
REMARK 927      BINDING AFFINITY PREDICTED BY RF-SCORE:    0.00 PKD
ROOT
HETATM    1 CL   UNL     1     -11.157  12.415  63.457  1.00  0.00    -0.514 Cl 
HETATM    2  C   UNL     1     -10.478  11.272  64.548  1.00  0.00    -0.334 A  
HETATM    3  C   UNL     1      -9.552  10.338  64.090  1.00  0.00    -0.376 A  
HETATM    4  C   UNL     1      -9.014   9.403  64.979  1.00  0.00    -0.258 A  
HETATM    5  C   UNL     1      -9.398   9.396  66.330  1.00  0.00    -0.253 A  
HETATM    6  C   UNL     1     -10.328  10.346  66.775  1.00  0.00    -0.294 A  
HETATM    7  C   UNL     1     -10.863  11.282  65.887  1.00  0.00    -0.264 A  
ENDROOT
BRANCH   5   8
HETATM    8  C   UNL     1      -8.864   8.342  67.272  1.00  0.00    -0.130 C  
BRANCH   8   9
HETATM    9  O   UNL     1      -9.953   7.716  67.938  1.00  0.00    -0.155 OA 
BRANCH   9  10
HETATM   10  C   UNL     1      -9.712   6.377  68.424  1.00  0.00    -0.131 C  
BRANCH  10  11
HETATM   11  C   UNL     1      -9.816   6.383  69.959  1.00  0.00    -0.193 A  
HETATM   12  C   UNL     1     -10.068   6.490  72.782  1.00  0.00    -0.176 A  
HETATM   13  C   UNL     1      -9.145   5.465  70.794  1.00  0.00    -0.141 A  
HETATM   14  C   UNL     1     -10.654   7.325  70.599  1.00  0.00    -0.240 A  
HETATM   15  C   UNL     1      -9.246   5.538  72.192  1.00  0.00    -0.155 A  
HETATM   16 CL   UNL     1     -10.215   6.554  74.495  1.00  0.00    -0.356 Cl 
HETATM   17 CL   UNL     1      -8.202   4.153  70.180  1.00  0.00    -0.061 Cl 
HETATM   18  C   UNL     1     -10.786   7.374  71.991  1.00  0.00    -0.263 A  
ENDBRANCH  10  11
BRANCH  10  19
HETATM   19  C   UNL     1      -8.387   5.820  67.842  1.00  0.00    -0.104 C  
BRANCH  19  20
HETATM   20  N   UNL     1      -8.565   4.850  66.783  1.00  0.00    -0.109 NA 
HETATM   21  C   UNL     1      -9.407   3.772  66.807  1.00  0.00    -0.190 A  
HETATM   22  N   UNL     1      -8.328   3.851  64.825  1.00  0.00    -0.100 NA 
HETATM   23  C   UNL     1      -9.205   3.142  65.601  1.00  0.00    -0.141 A  
HETATM   24  C   UNL     1      -7.980   4.888  65.553  1.00  0.00    -0.099 A  
ENDBRANCH  19  20
ENDBRANCH  10  19
ENDBRANCH   9  10
ENDBRANCH   8   9
ENDBRANCH   5   8
TORSDOF 6
ENDMDL
MODEL      259
REMARK 921   NORMALIZED FREE ENERGY PREDICTED BY IDOCK:   -3.08 KCAL/MOL
REMARK 922        TOTAL FREE ENERGY PREDICTED BY IDOCK:   -5.28 KCAL/MOL
REMARK 923 INTER-LIGAND FREE ENERGY PREDICTED BY IDOCK:   -4.84 KCAL/MOL
REMARK 924 INTRA-LIGAND FREE ENERGY PREDICTED BY IDOCK:   -0.45 KCAL/MOL
REMARK 927      BINDING AFFINITY PREDICTED BY RF-SCORE:    0.00 PKD
ROOT
HETATM    1 CL   UNL     1     -12.289  12.360  70.039  1.00  0.00    -0.218 Cl 
HETATM    2  C   UNL     1     -11.992  10.891  70.883  1.00  0.00    -0.311 A  
HETATM    3  C   UNL     1     -12.950  10.386  71.757  1.00  0.00    -0.580 A  
HETATM    4  C   UNL     1     -12.698   9.198  72.450  1.00  0.00    -0.410 A  
HETATM    5  C   UNL     1     -11.486   8.510  72.274  1.00  0.00    -0.445 A  
HETATM    6  C   UNL     1     -10.534   9.031  71.386  1.00  0.00    -0.395 A  
HETATM    7  C   UNL     1     -10.789  10.215  70.691  1.00  0.00    -0.305 A  
ENDROOT
BRANCH   5   8
HETATM    8  C   UNL     1     -11.191   7.263  73.074  1.00  0.00    -0.264 C  
BRANCH   8   9
HETATM    9  O   UNL     1     -10.619   6.284  72.217  1.00  0.00    -0.202 OA 
BRANCH   9  10
HETATM   10  C   UNL     1      -9.218   5.998  72.428  1.00  0.00    -0.142 C  
BRANCH  10  11
HETATM   11  C   UNL     1      -8.460   6.251  71.113  1.00  0.00    -0.124 A  
HETATM   12  C   UNL     1      -6.974   6.747  68.749  1.00  0.00    -0.079 A  
HETATM   13  C   UNL     1      -9.055   6.163  69.836  1.00  0.00    -0.143 A  
HETATM   14  C   UNL     1      -7.079   6.551  71.148  1.00  0.00    -0.077 A  
HETATM   15  C   UNL     1      -8.326   6.439  68.669  1.00  0.00    -0.121 A  
HETATM   16 CL   UNL     1      -6.077   7.051  67.313  1.00  0.00    -0.038 Cl 
HETATM   17 CL   UNL     1     -10.691   5.658  69.595  1.00  0.00    -0.405 Cl 
HETATM   18  C   UNL     1      -6.342   6.788  69.983  1.00  0.00    -0.039 A  
ENDBRANCH  10  11
BRANCH  10  19
HETATM   19  C   UNL     1      -9.041   4.588  73.046  1.00  0.00    -0.119 C  
BRANCH  19  20
HETATM   20  N   UNL     1      -8.840   3.534  72.073  1.00  0.00    -0.093 NA 
HETATM   21  C   UNL     1      -7.635   3.048  71.644  1.00  0.00    -0.048 A  
HETATM   22  N   UNL     1      -9.313   1.935  70.623  1.00  0.00    -0.110 NA 
HETATM   23  C   UNL     1      -7.955   2.092  70.710  1.00  0.00    -0.041 A  
HETATM   24  C   UNL     1      -9.818   2.798  71.474  1.00  0.00    -0.125 A  
ENDBRANCH  19  20
ENDBRANCH  10  19
ENDBRANCH   9  10
ENDBRANCH   8   9
ENDBRANCH   5   8
TORSDOF 6
ENDMDL
MODEL      260
REMARK 921   NORMALIZED FREE ENERGY PREDICTED BY IDOCK:   -3.06 KCAL/MOL
REMARK 922        TOTAL FREE ENERGY PREDICTED BY IDOCK:   -5.26 KCAL/MOL
REMARK 923 INTER-LIGAND FREE ENERGY PREDICTED BY IDOCK:   -5.18 KCAL/MOL
REMARK 924 INTRA-LIGAND FREE ENERGY PREDICTED BY IDOCK:   -0.08 KCAL/MOL
REMARK 927      BINDING AFFINITY PREDICTED BY RF-SCORE:    0.00 PKD
ROOT
HETATM    1 CL   UNL     1     -11.332   6.217  71.974  1.00  0.00    -0.331 Cl 
HETATM    2  C   UNL     1     -11.102   7.036  70.480  1.00  0.00    -0.280 A  
HETATM    3  C   UNL     1     -11.044   8.427  70.452  1.00  0.00    -0.240 A  
HETATM    4  C   UNL     1     -10.870   9.089  69.232  1.00  0.00    -0.131 A  
HETATM    5  C   UNL     1     -10.753   8.364  68.035  1.00  0.00    -0.118 A  
HETATM    6  C   UNL     1     -10.808   6.964  68.082  1.00  0.00    -0.258 A  
HETATM    7  C   UNL     1     -10.979   6.304  69.301  1.00  0.00    -0.435 A  
ENDROOT
BRANCH   5   8
HETATM    8  C   UNL     1     -10.630   9.085  66.713  1.00  0.00    -0.131 C  
BRANCH   8   9
HETATM    9  O   UNL     1     -10.807  10.480  66.925  1.00  0.00    -0.250 OA 
BRANCH   9  10
HETATM   10  C   UNL     1      -9.625  11.217  67.307  1.00  0.00    -0.165 C  
BRANCH  10  11
HETATM   11  C   UNL     1      -9.977  12.713  67.376  1.00  0.00    -0.204 A  
HETATM   12  C   UNL     1     -10.549  15.483  67.581  1.00  0.00    -0.291 A  
HETATM   13  C   UNL     1     -11.048  13.299  66.667  1.00  0.00    -0.291 A  
HETATM   14  C   UNL     1      -9.179  13.585  68.152  1.00  0.00    -0.208 A  
HETATM   15  C   UNL     1     -11.348  14.665  66.794  1.00  0.00    -0.360 A  
HETATM   16 CL   UNL     1     -10.902  17.163  67.706  1.00  0.00    -0.320 Cl 
HETATM   17 CL   UNL     1     -12.032  12.416  65.553  1.00  0.00    -0.477 Cl 
HETATM   18  C   UNL     1      -9.455  14.954  68.248  1.00  0.00    -0.210 A  
ENDBRANCH  10  11
BRANCH  10  19
HETATM   19  C   UNL     1      -8.435  10.849  66.384  1.00  0.00    -0.163 C  
BRANCH  19  20
HETATM   20  N   UNL     1      -7.344  10.178  67.062  1.00  0.00    -0.091 NA 
HETATM   21  C   UNL     1      -7.269   9.906  68.400  1.00  0.00    -0.073 A  
HETATM   22  N   UNL     1      -5.426   9.121  67.357  1.00  0.00    -0.041 NA 
HETATM   23  C   UNL     1      -6.049   9.294  68.565  1.00  0.00    -0.045 A  
HETATM   24  C   UNL     1      -6.242   9.640  66.468  1.00  0.00    -0.064 A  
ENDBRANCH  19  20
ENDBRANCH  10  19
ENDBRANCH   9  10
ENDBRANCH   8   9
ENDBRANCH   5   8
TORSDOF 6
ENDMDL
MODEL      261
REMARK 921   NORMALIZED FREE ENERGY PREDICTED BY IDOCK:   -3.06 KCAL/MOL
REMARK 922        TOTAL FREE ENERGY PREDICTED BY IDOCK:   -5.26 KCAL/MOL
REMARK 923 INTER-LIGAND FREE ENERGY PREDICTED BY IDOCK:   -4.27 KCAL/MOL
REMARK 924 INTRA-LIGAND FREE ENERGY PREDICTED BY IDOCK:   -0.99 KCAL/MOL
REMARK 927      BINDING AFFINITY PREDICTED BY RF-SCORE:    0.00 PKD
ROOT
HETATM    1 CL   UNL     1     -12.681   9.546  72.552  1.00  0.00    -0.305 Cl 
HETATM    2  C   UNL     1     -11.886   9.544  71.027  1.00  0.00    -0.330 A  
HETATM    3  C   UNL     1     -10.870   8.626  70.774  1.00  0.00    -0.272 A  
HETATM    4  C   UNL     1     -10.218   8.637  69.538  1.00  0.00    -0.209 A  
HETATM    5  C   UNL     1     -10.576   9.567  68.548  1.00  0.00    -0.247 A  
HETATM    6  C   UNL     1     -11.604  10.481  68.817  1.00  0.00    -0.252 A  
HETATM    7  C   UNL     1     -12.258  10.466  70.052  1.00  0.00    -0.262 A  
ENDROOT
BRANCH   5   8
HETATM    8  C   UNL     1      -9.825   9.618  67.238  1.00  0.00    -0.175 C  
BRANCH   8   9
HETATM    9  O   UNL     1     -10.136   8.458  66.476  1.00  0.00    -0.276 OA 
BRANCH   9  10
HETATM   10  C   UNL     1      -9.008   7.726  65.948  1.00  0.00    -0.113 C  
BRANCH  10  11
HETATM   11  C   UNL     1      -9.098   6.268  66.430  1.00  0.00    -0.164 A  
HETATM   12  C   UNL     1      -9.302   3.617  67.416  1.00  0.00    -0.203 A  
HETATM   13  C   UNL     1      -8.624   5.166  65.686  1.00  0.00    -0.139 A  
HETATM   14  C   UNL     1      -9.720   5.977  67.666  1.00  0.00    -0.120 A  
HETATM   15  C   UNL     1      -8.698   3.857  66.189  1.00  0.00    -0.115 A  
HETATM   16 CL   UNL     1      -9.421   2.007  68.012  1.00  0.00    -0.238 Cl 
HETATM   17 CL   UNL     1      -7.975   5.319  64.091  1.00  0.00    -0.105 Cl 
HETATM   18  C   UNL     1      -9.829   4.668  68.150  1.00  0.00    -0.170 A  
ENDBRANCH  10  11
BRANCH  10  19
HETATM   19  C   UNL     1      -7.683   8.462  66.276  1.00  0.00    -0.094 C  
BRANCH  19  20
HETATM   20  N   UNL     1      -6.989   8.981  65.116  1.00  0.00    -0.079 NA 
HETATM   21  C   UNL     1      -7.362  10.064  64.368  1.00  0.00    -0.138 A  
HETATM   22  N   UNL     1      -5.451   9.190  63.543  1.00  0.00    -0.067 NA 
HETATM   23  C   UNL     1      -6.419  10.142  63.371  1.00  0.00    -0.136 A  
HETATM   24  C   UNL     1      -5.807   8.522  64.617  1.00  0.00    -0.063 A  
ENDBRANCH  19  20
ENDBRANCH  10  19
ENDBRANCH   9  10
ENDBRANCH   8   9
ENDBRANCH   5   8
TORSDOF 6
ENDMDL
MODEL      262
REMARK 921   NORMALIZED FREE ENERGY PREDICTED BY IDOCK:   -3.06 KCAL/MOL
REMARK 922        TOTAL FREE ENERGY PREDICTED BY IDOCK:   -5.26 KCAL/MOL
REMARK 923 INTER-LIGAND FREE ENERGY PREDICTED BY IDOCK:   -5.23 KCAL/MOL
REMARK 924 INTRA-LIGAND FREE ENERGY PREDICTED BY IDOCK:   -0.03 KCAL/MOL
REMARK 927      BINDING AFFINITY PREDICTED BY RF-SCORE:    0.00 PKD
ROOT
HETATM    1 CL   UNL     1     -12.447  10.863  70.462  1.00  0.00    -0.426 Cl 
HETATM    2  C   UNL     1     -11.673  12.161  69.641  1.00  0.00    -0.325 A  
HETATM    3  C   UNL     1     -12.004  13.476  69.953  1.00  0.00    -0.416 A  
HETATM    4  C   UNL     1     -11.382  14.528  69.274  1.00  0.00    -0.317 A  
HETATM    5  C   UNL     1     -10.425  14.270  68.279  1.00  0.00    -0.247 A  
HETATM    6  C   UNL     1     -10.099  12.939  67.980  1.00  0.00    -0.235 A  
HETATM    7  C   UNL     1     -10.720  11.890  68.662  1.00  0.00    -0.266 A  
ENDROOT
BRANCH   5   8
HETATM    8  C   UNL     1      -9.803  15.407  67.502  1.00  0.00    -0.217 C  
BRANCH   8   9
HETATM    9  O   UNL     1      -9.310  16.379  68.414  1.00  0.00    -0.205 OA 
BRANCH   9  10
HETATM   10  C   UNL     1      -7.879  16.580  68.413  1.00  0.00    -0.187 C  
BRANCH  10  11
HETATM   11  C   UNL     1      -7.543  17.729  67.447  1.00  0.00    -0.213 A  
HETATM   12  C   UNL     1      -7.021  19.896  65.694  1.00  0.00    -0.307 A  
HETATM   13  C   UNL     1      -6.425  17.728  66.586  1.00  0.00    -0.195 A  
HETATM   14  C   UNL     1      -8.358  18.884  67.424  1.00  0.00    -0.294 A  
HETATM   15  C   UNL     1      -6.185  18.787  65.697  1.00  0.00    -0.281 A  
HETATM   16 CL   UNL     1      -6.702  21.207  64.627  1.00  0.00    -0.040 Cl 
HETATM   17 CL   UNL     1      -5.238  16.471  66.590  1.00  0.00     0.087 Cl 
HETATM   18  C   UNL     1      -8.097  19.958  66.565  1.00  0.00    -0.357 A  
ENDBRANCH  10  11
BRANCH  10  19
HETATM   19  C   UNL     1      -7.145  15.241  68.147  1.00  0.00    -0.119 C  
BRANCH  19  20
HETATM   20  N   UNL     1      -6.441  14.711  69.296  1.00  0.00    -0.113 NA 
HETATM   21  C   UNL     1      -6.153  13.395  69.532  1.00  0.00    -0.110 A  
HETATM   22  N   UNL     1      -5.333  14.666  71.207  1.00  0.00    -0.142 NA 
HETATM   23  C   UNL     1      -5.509  13.389  70.747  1.00  0.00    -0.166 A  
HETATM   24  C   UNL     1      -5.881  15.442  70.301  1.00  0.00    -0.137 A  
ENDBRANCH  19  20
ENDBRANCH  10  19
ENDBRANCH   9  10
ENDBRANCH   8   9
ENDBRANCH   5   8
TORSDOF 6
ENDMDL
MODEL      263
REMARK 921   NORMALIZED FREE ENERGY PREDICTED BY IDOCK:   -3.05 KCAL/MOL
REMARK 922        TOTAL FREE ENERGY PREDICTED BY IDOCK:   -5.25 KCAL/MOL
REMARK 923 INTER-LIGAND FREE ENERGY PREDICTED BY IDOCK:   -5.79 KCAL/MOL
REMARK 924 INTRA-LIGAND FREE ENERGY PREDICTED BY IDOCK:    0.54 KCAL/MOL
REMARK 927      BINDING AFFINITY PREDICTED BY RF-SCORE:    0.00 PKD
ROOT
HETATM    1 CL   UNL     1     -10.413   7.492  67.308  1.00  0.00    -0.363 Cl 
HETATM    2  C   UNL     1     -10.369   9.182  66.994  1.00  0.00    -0.263 A  
HETATM    3  C   UNL     1      -9.665   9.667  65.896  1.00  0.00    -0.343 A  
HETATM    4  C   UNL     1      -9.621  11.043  65.652  1.00  0.00    -0.265 A  
HETATM    5  C   UNL     1     -10.280  11.942  66.507  1.00  0.00    -0.232 A  
HETATM    6  C   UNL     1     -10.988  11.437  67.607  1.00  0.00    -0.303 A  
HETATM    7  C   UNL     1     -11.034  10.061  67.846  1.00  0.00    -0.311 A  
ENDROOT
BRANCH   5   8
HETATM    8  C   UNL     1     -10.175  13.431  66.278  1.00  0.00    -0.298 C  
BRANCH   8   9
HETATM    9  O   UNL     1      -8.824  13.837  66.454  1.00  0.00    -0.064 OA 
BRANCH   9  10
HETATM   10  C   UNL     1      -8.617  15.015  67.264  1.00  0.00    -0.206 C  
BRANCH  10  11
HETATM   11  C   UNL     1      -9.818  15.178  68.213  1.00  0.00    -0.223 A  
HETATM   12  C   UNL     1     -12.003  15.381  70.008  1.00  0.00    -0.356 A  
HETATM   13  C   UNL     1     -10.765  16.218  68.106  1.00  0.00    -0.322 A  
HETATM   14  C   UNL     1      -9.987  14.275  69.287  1.00  0.00     0.058 A  
HETATM   15  C   UNL     1     -11.863  16.299  68.976  1.00  0.00    -0.072 A  
HETATM   16 CL   UNL     1     -13.332  15.505  71.094  1.00  0.00    -0.576 Cl 
HETATM   17 CL   UNL     1     -10.630  17.497  66.950  1.00  0.00    -0.270 Cl 
HETATM   18  C   UNL     1     -11.061  14.378  70.179  1.00  0.00    -0.073 A  
ENDBRANCH  10  11
BRANCH  10  19
HETATM   19  C   UNL     1      -8.297  16.239  66.368  1.00  0.00    -0.330 C  
BRANCH  19  20
HETATM   20  N   UNL     1      -7.334  17.157  66.940  1.00  0.00    -0.185 NA 
HETATM   21  C   UNL     1      -6.034  17.314  66.546  1.00  0.00    -0.209 A  
HETATM   22  N   UNL     1      -6.496  18.741  68.233  1.00  0.00    -0.218 NA 
HETATM   23  C   UNL     1      -5.523  18.267  67.396  1.00  0.00    -0.141 A  
HETATM   24  C   UNL     1      -7.582  18.073  67.918  1.00  0.00    -0.231 A  
ENDBRANCH  19  20
ENDBRANCH  10  19
ENDBRANCH   9  10
ENDBRANCH   8   9
ENDBRANCH   5   8
TORSDOF 6
ENDMDL
MODEL      264
REMARK 921   NORMALIZED FREE ENERGY PREDICTED BY IDOCK:   -3.05 KCAL/MOL
REMARK 922        TOTAL FREE ENERGY PREDICTED BY IDOCK:   -5.25 KCAL/MOL
REMARK 923 INTER-LIGAND FREE ENERGY PREDICTED BY IDOCK:   -4.59 KCAL/MOL
REMARK 924 INTRA-LIGAND FREE ENERGY PREDICTED BY IDOCK:   -0.66 KCAL/MOL
REMARK 927      BINDING AFFINITY PREDICTED BY RF-SCORE:    0.00 PKD
ROOT
HETATM    1 CL   UNL     1      -9.391   3.448  66.678  1.00  0.00    -0.193 Cl 
HETATM    2  C   UNL     1      -9.163   5.149  66.565  1.00  0.00    -0.136 A  
HETATM    3  C   UNL     1      -7.922   5.661  66.199  1.00  0.00    -0.106 A  
HETATM    4  C   UNL     1      -7.739   7.045  66.121  1.00  0.00    -0.095 A  
HETATM    5  C   UNL     1      -8.795   7.924  66.410  1.00  0.00    -0.184 A  
HETATM    6  C   UNL     1     -10.040   7.391  66.773  1.00  0.00    -0.305 A  
HETATM    7  C   UNL     1     -10.223   6.008  66.846  1.00  0.00    -0.261 A  
ENDROOT
BRANCH   5   8
HETATM    8  C   UNL     1      -8.575   9.418  66.389  1.00  0.00    -0.134 C  
BRANCH   8   9
HETATM    9  O   UNL     1      -9.550  10.045  67.212  1.00  0.00    -0.151 OA 
BRANCH   9  10
HETATM   10  C   UNL     1      -9.232  11.380  67.665  1.00  0.00    -0.158 C  
BRANCH  10  11
HETATM   11  C   UNL     1     -10.077  12.387  66.864  1.00  0.00    -0.230 A  
HETATM   12  C   UNL     1     -11.573  14.216  65.298  1.00  0.00    -0.341 A  
HETATM   13  C   UNL     1     -11.052  13.226  67.443  1.00  0.00    -0.278 A  
HETATM   14  C   UNL     1      -9.920  12.471  65.462  1.00  0.00    -0.248 A  
HETATM   15  C   UNL     1     -11.770  14.153  66.671  1.00  0.00    -0.422 A  
HETATM   16 CL   UNL     1     -12.481  15.330  64.351  1.00  0.00    -0.229 Cl 
HETATM   17 CL   UNL     1     -11.485  13.150  69.115  1.00  0.00    -0.339 Cl 
HETATM   18  C   UNL     1     -10.663  13.368  64.686  1.00  0.00    -0.425 A  
ENDBRANCH  10  11
BRANCH  10  19
HETATM   19  C   UNL     1      -7.699  11.613  67.632  1.00  0.00    -0.133 C  
BRANCH  19  20
HETATM   20  N   UNL     1      -7.278  12.875  68.202  1.00  0.00    -0.101 NA 
HETATM   21  C   UNL     1      -7.026  14.030  67.513  1.00  0.00    -0.148 A  
HETATM   22  N   UNL     1      -6.718  14.378  69.723  1.00  0.00    -0.144 NA 
HETATM   23  C   UNL     1      -6.633  14.932  68.474  1.00  0.00    -0.093 A  
HETATM   24  C   UNL     1      -7.134  13.147  69.530  1.00  0.00     0.263 A  
ENDBRANCH  19  20
ENDBRANCH  10  19
ENDBRANCH   9  10
ENDBRANCH   8   9
ENDBRANCH   5   8
TORSDOF 6
ENDMDL
MODEL      265
REMARK 921   NORMALIZED FREE ENERGY PREDICTED BY IDOCK:   -3.01 KCAL/MOL
REMARK 922        TOTAL FREE ENERGY PREDICTED BY IDOCK:   -5.19 KCAL/MOL
REMARK 923 INTER-LIGAND FREE ENERGY PREDICTED BY IDOCK:   -4.22 KCAL/MOL
REMARK 924 INTRA-LIGAND FREE ENERGY PREDICTED BY IDOCK:   -0.97 KCAL/MOL
REMARK 927      BINDING AFFINITY PREDICTED BY RF-SCORE:    0.00 PKD
ROOT
HETATM    1 CL   UNL     1     -12.459  15.724  63.844  1.00  0.00     0.244 Cl 
HETATM    2  C   UNL     1     -12.019  14.313  64.722  1.00  0.00    -0.440 A  
HETATM    3  C   UNL     1     -11.032  13.465  64.226  1.00  0.00    -0.391 A  
HETATM    4  C   UNL     1     -10.687  12.312  64.937  1.00  0.00    -0.335 A  
HETATM    5  C   UNL     1     -11.327  11.999  66.147  1.00  0.00    -0.407 A  
HETATM    6  C   UNL     1     -12.315  12.866  66.635  1.00  0.00    -0.044 A  
HETATM    7  C   UNL     1     -12.656  14.020  65.925  1.00  0.00    -0.484 A  
ENDROOT
BRANCH   5   8
HETATM    8  C   UNL     1     -10.997  10.719  66.878  1.00  0.00    -0.190 C  
BRANCH   8   9
HETATM    9  O   UNL     1      -9.666  10.794  67.372  1.00  0.00    -0.168 OA 
BRANCH   9  10
HETATM   10  C   UNL     1      -9.521  11.240  68.739  1.00  0.00    -0.139 C  
BRANCH  10  11
HETATM   11  C   UNL     1      -9.621  12.775  68.769  1.00  0.00     0.089 A  
HETATM   12  C   UNL     1      -9.903  15.595  68.878  1.00  0.00    -0.219 A  
HETATM   13  C   UNL     1      -8.697  13.633  68.136  1.00  0.00    -0.177 A  
HETATM   14  C   UNL     1     -10.662  13.394  69.498  1.00  0.00     0.181 A  
HETATM   15  C   UNL     1      -8.855  15.027  68.164  1.00  0.00    -0.167 A  
HETATM   16 CL   UNL     1     -10.072  17.306  68.939  1.00  0.00    -0.325 Cl 
HETATM   17 CL   UNL     1      -7.280  13.057  67.331  1.00  0.00    -0.148 Cl 
HETATM   18  C   UNL     1     -10.798  14.785  69.560  1.00  0.00    -0.268 A  
ENDBRANCH  10  11
BRANCH  10  19
HETATM   19  C   UNL     1      -8.242  10.636  69.373  1.00  0.00    -0.078 C  
BRANCH  19  20
HETATM   20  N   UNL     1      -8.484   9.480  70.210  1.00  0.00    -0.197 NA 
HETATM   21  C   UNL     1      -9.705   9.023  70.626  1.00  0.00    -0.234 A  
HETATM   22  N   UNL     1      -8.077   7.674  71.418  1.00  0.00    -0.094 NA 
HETATM   23  C   UNL     1      -9.421   7.933  71.414  1.00  0.00    -0.150 A  
HETATM   24  C   UNL     1      -7.541   8.607  70.664  1.00  0.00    -0.080 A  
ENDBRANCH  19  20
ENDBRANCH  10  19
ENDBRANCH   9  10
ENDBRANCH   8   9
ENDBRANCH   5   8
TORSDOF 6
ENDMDL
MODEL      266
REMARK 921   NORMALIZED FREE ENERGY PREDICTED BY IDOCK:   -3.01 KCAL/MOL
REMARK 922        TOTAL FREE ENERGY PREDICTED BY IDOCK:   -5.19 KCAL/MOL
REMARK 923 INTER-LIGAND FREE ENERGY PREDICTED BY IDOCK:   -4.71 KCAL/MOL
REMARK 924 INTRA-LIGAND FREE ENERGY PREDICTED BY IDOCK:   -0.48 KCAL/MOL
REMARK 927      BINDING AFFINITY PREDICTED BY RF-SCORE:    0.00 PKD
ROOT
HETATM    1 CL   UNL     1     -11.527  11.908  62.663  1.00  0.00     0.598 Cl 
HETATM    2  C   UNL     1     -11.646  12.884  64.074  1.00  0.00    -0.426 A  
HETATM    3  C   UNL     1     -10.612  13.756  64.405  1.00  0.00    -0.316 A  
HETATM    4  C   UNL     1     -10.707  14.537  65.560  1.00  0.00    -0.350 A  
HETATM    5  C   UNL     1     -11.836  14.450  66.392  1.00  0.00    -0.402 A  
HETATM    6  C   UNL     1     -12.870  13.570  66.041  1.00  0.00    -0.169 A  
HETATM    7  C   UNL     1     -12.775  12.793  64.885  1.00  0.00    -0.479 A  
ENDROOT
BRANCH   5   8
HETATM    8  C   UNL     1     -11.905  15.247  67.673  1.00  0.00    -0.059 C  
BRANCH   8   9
HETATM    9  O   UNL     1     -10.748  14.977  68.454  1.00  0.00    -0.235 OA 
BRANCH   9  10
HETATM   10  C   UNL     1     -10.682  13.665  69.055  1.00  0.00    -0.165 C  
BRANCH  10  11
HETATM   11  C   UNL     1      -9.549  12.871  68.382  1.00  0.00    -0.176 A  
HETATM   12  C   UNL     1      -7.533  11.324  67.124  1.00  0.00    -0.130 A  
HETATM   13  C   UNL     1      -8.207  13.305  68.338  1.00  0.00    -0.134 A  
HETATM   14  C   UNL     1      -9.842  11.653  67.727  1.00  0.00    -0.186 A  
HETATM   15  C   UNL     1      -7.205  12.524  67.741  1.00  0.00    -0.125 A  
HETATM   16 CL   UNL     1      -6.306  10.387  66.365  1.00  0.00    -0.084 Cl 
HETATM   17 CL   UNL     1      -7.695  14.838  68.950  1.00  0.00    -0.139 Cl 
HETATM   18  C   UNL     1      -8.850  10.892  67.098  1.00  0.00    -0.135 A  
ENDBRANCH  10  11
BRANCH  10  19
HETATM   19  C   UNL     1     -12.078  12.991  69.037  1.00  0.00    -0.177 C  
BRANCH  19  20
HETATM   20  N   UNL     1     -12.383  12.228  70.230  1.00  0.00    -0.239 NA 
HETATM   21  C   UNL     1     -12.266  10.873  70.375  1.00  0.00    -0.365 A  
HETATM   22  N   UNL     1     -12.991  11.787  72.308  1.00  0.00    -0.140 NA 
HETATM   23  C   UNL     1     -12.696  10.620  71.656  1.00  0.00    -0.426 A  
HETATM   24  C   UNL     1     -12.769  12.740  71.432  1.00  0.00    -0.255 A  
ENDBRANCH  19  20
ENDBRANCH  10  19
ENDBRANCH   9  10
ENDBRANCH   8   9
ENDBRANCH   5   8
TORSDOF 6
ENDMDL
MODEL      267
REMARK 921   NORMALIZED FREE ENERGY PREDICTED BY IDOCK:   -3.00 KCAL/MOL
REMARK 922        TOTAL FREE ENERGY PREDICTED BY IDOCK:   -5.18 KCAL/MOL
REMARK 923 INTER-LIGAND FREE ENERGY PREDICTED BY IDOCK:   -4.67 KCAL/MOL
REMARK 924 INTRA-LIGAND FREE ENERGY PREDICTED BY IDOCK:   -0.52 KCAL/MOL
REMARK 927      BINDING AFFINITY PREDICTED BY RF-SCORE:    0.00 PKD
ROOT
HETATM    1 CL   UNL     1     -12.202   5.099  72.875  1.00  0.00    -0.044 Cl 
HETATM    2  C   UNL     1     -11.352   6.392  72.122  1.00  0.00    -0.290 A  
HETATM    3  C   UNL     1     -11.282   6.462  70.733  1.00  0.00    -0.386 A  
HETATM    4  C   UNL     1     -10.579   7.507  70.127  1.00  0.00    -0.241 A  
HETATM    5  C   UNL     1      -9.942   8.487  70.905  1.00  0.00    -0.237 A  
HETATM    6  C   UNL     1     -10.026   8.403  72.302  1.00  0.00    -0.383 A  
HETATM    7  C   UNL     1     -10.731   7.361  72.906  1.00  0.00    -0.387 A  
ENDROOT
BRANCH   5   8
HETATM    8  C   UNL     1      -9.129   9.577  70.246  1.00  0.00    -0.253 C  
BRANCH   8   9
HETATM    9  O   UNL     1      -9.751   9.948  69.023  1.00  0.00    -0.175 OA 
BRANCH   9  10
HETATM   10  C   UNL     1      -9.176  11.085  68.340  1.00  0.00    -0.175 C  
BRANCH  10  11
HETATM   11  C   UNL     1      -9.361  10.894  66.825  1.00  0.00    -0.185 A  
HETATM   12  C   UNL     1      -9.773  10.631  64.031  1.00  0.00    -0.315 A  
HETATM   13  C   UNL     1      -8.813   9.816  66.098  1.00  0.00    -0.141 A  
HETATM   14  C   UNL     1     -10.082  11.858  66.082  1.00  0.00    -0.257 A  
HETATM   15  C   UNL     1      -9.043   9.671  64.720  1.00  0.00    -0.283 A  
HETATM   16 CL   UNL     1     -10.022  10.466  62.337  1.00  0.00     0.046 Cl 
HETATM   17 CL   UNL     1      -7.778   8.631  66.813  1.00  0.00    -0.093 Cl 
HETATM   18  C   UNL     1     -10.279  11.734  64.702  1.00  0.00    -0.326 A  
ENDBRANCH  10  11
BRANCH  10  19
HETATM   19  C   UNL     1      -7.720  11.322  68.815  1.00  0.00    -0.138 C  
BRANCH  19  20
HETATM   20  N   UNL     1      -7.283  12.700  68.724  1.00  0.00    -0.101 NA 
HETATM   21  C   UNL     1      -6.769  13.454  69.742  1.00  0.00     0.113 A  
HETATM   22  N   UNL     1      -6.818  14.672  67.841  1.00  0.00    -0.146 NA 
HETATM   23  C   UNL     1      -6.534  14.687  69.181  1.00  0.00    -0.110 A  
HETATM   24  C   UNL     1      -7.242  13.454  67.590  1.00  0.00    -0.161 A  
ENDBRANCH  19  20
ENDBRANCH  10  19
ENDBRANCH   9  10
ENDBRANCH   8   9
ENDBRANCH   5   8
TORSDOF 6
ENDMDL
MODEL      268
REMARK 921   NORMALIZED FREE ENERGY PREDICTED BY IDOCK:   -2.99 KCAL/MOL
REMARK 922        TOTAL FREE ENERGY PREDICTED BY IDOCK:   -5.17 KCAL/MOL
REMARK 923 INTER-LIGAND FREE ENERGY PREDICTED BY IDOCK:   -5.10 KCAL/MOL
REMARK 924 INTRA-LIGAND FREE ENERGY PREDICTED BY IDOCK:   -0.06 KCAL/MOL
REMARK 927      BINDING AFFINITY PREDICTED BY RF-SCORE:    0.00 PKD
ROOT
HETATM    1 CL   UNL     1      -9.813  20.292  65.572  1.00  0.00    -0.170 Cl 
HETATM    2  C   UNL     1      -9.393  18.926  66.528  1.00  0.00    -0.335 A  
HETATM    3  C   UNL     1      -8.458  18.008  66.056  1.00  0.00    -0.043 A  
HETATM    4  C   UNL     1      -8.130  16.892  66.832  1.00  0.00    -0.251 A  
HETATM    5  C   UNL     1      -8.735  16.687  68.083  1.00  0.00    -0.201 A  
HETATM    6  C   UNL     1      -9.670  17.624  68.545  1.00  0.00    -0.328 A  
HETATM    7  C   UNL     1      -9.994  18.740  67.770  1.00  0.00    -0.396 A  
ENDROOT
BRANCH   5   8
HETATM    8  C   UNL     1      -8.426  15.447  68.888  1.00  0.00    -0.205 C  
BRANCH   8   9
HETATM    9  O   UNL     1      -8.746  14.297  68.114  1.00  0.00    -0.160 OA 
BRANCH   9  10
HETATM   10  C   UNL     1      -9.652  13.354  68.727  1.00  0.00     0.043 C  
BRANCH  10  11
HETATM   11  C   UNL     1      -9.181  11.928  68.391  1.00  0.00    -0.173 A  
HETATM   12  C   UNL     1      -8.207   9.336  67.777  1.00  0.00    -0.115 A  
HETATM   13  C   UNL     1     -10.055  10.876  68.044  1.00  0.00    -0.177 A  
HETATM   14  C   UNL     1      -7.805  11.611  68.463  1.00  0.00    -0.140 A  
HETATM   15  C   UNL     1      -9.569   9.601  67.710  1.00  0.00    -0.161 A  
HETATM   16 CL   UNL     1      -7.620   7.763  67.401  1.00  0.00    -0.103 Cl 
HETATM   17 CL   UNL     1     -11.775  11.041  68.054  1.00  0.00    -0.323 Cl 
HETATM   18  C   UNL     1      -7.324  10.330  68.169  1.00  0.00    -0.085 A  
ENDBRANCH  10  11
BRANCH  10  19
HETATM   19  C   UNL     1     -11.118  13.685  68.347  1.00  0.00    -0.264 C  
BRANCH  19  20
HETATM   20  N   UNL     1     -11.943  14.095  69.464  1.00  0.00    -0.321 NA 
HETATM   21  C   UNL     1     -12.190  13.368  70.596  1.00  0.00    -0.350 A  
HETATM   22  N   UNL     1     -13.247  15.359  70.722  1.00  0.00    -0.438 NA 
HETATM   23  C   UNL     1     -13.041  14.154  71.338  1.00  0.00    -0.358 A  
HETATM   24  C   UNL     1     -12.553  15.305  69.609  1.00  0.00    -0.052 A  
ENDBRANCH  19  20
ENDBRANCH  10  19
ENDBRANCH   9  10
ENDBRANCH   8   9
ENDBRANCH   5   8
TORSDOF 6
ENDMDL
MODEL      269
REMARK 921   NORMALIZED FREE ENERGY PREDICTED BY IDOCK:   -2.99 KCAL/MOL
REMARK 922        TOTAL FREE ENERGY PREDICTED BY IDOCK:   -5.16 KCAL/MOL
REMARK 923 INTER-LIGAND FREE ENERGY PREDICTED BY IDOCK:   -5.07 KCAL/MOL
REMARK 924 INTRA-LIGAND FREE ENERGY PREDICTED BY IDOCK:   -0.09 KCAL/MOL
REMARK 927      BINDING AFFINITY PREDICTED BY RF-SCORE:    0.00 PKD
ROOT
HETATM    1 CL   UNL     1     -10.730  19.634  67.696  1.00  0.00    -0.550 Cl 
HETATM    2  C   UNL     1      -9.884  18.138  67.772  1.00  0.00    -0.310 A  
HETATM    3  C   UNL     1     -10.182  17.221  68.775  1.00  0.00    -0.353 A  
HETATM    4  C   UNL     1      -9.482  16.012  68.840  1.00  0.00    -0.235 A  
HETATM    5  C   UNL     1      -8.479  15.716  67.902  1.00  0.00    -0.153 A  
HETATM    6  C   UNL     1      -8.194  16.649  66.896  1.00  0.00    -0.247 A  
HETATM    7  C   UNL     1      -8.897  17.854  66.830  1.00  0.00    -0.263 A  
ENDROOT
BRANCH   5   8
HETATM    8  C   UNL     1      -7.681  14.438  68.015  1.00  0.00    -0.138 C  
BRANCH   8   9
HETATM    9  O   UNL     1      -8.540  13.387  68.438  1.00  0.00    -0.171 OA 
BRANCH   9  10
HETATM   10  C   UNL     1      -8.433  12.148  67.703  1.00  0.00    -0.163 C  
BRANCH  10  11
HETATM   11  C   UNL     1      -9.558  12.099  66.653  1.00  0.00    -0.226 A  
HETATM   12  C   UNL     1     -11.660  12.112  64.750  1.00  0.00    -0.321 A  
HETATM   13  C   UNL     1      -9.881  10.947  65.906  1.00  0.00    -0.236 A  
HETATM   14  C   UNL     1     -10.301  13.267  66.370  1.00  0.00    -0.286 A  
HETATM   15  C   UNL     1     -10.942  10.946  64.986  1.00  0.00    -0.035 A  
HETATM   16 CL   UNL     1     -12.936  12.115  63.597  1.00  0.00    -0.473 Cl 
HETATM   17 CL   UNL     1      -8.980   9.475  66.009  1.00  0.00    -0.182 Cl 
HETATM   18  C   UNL     1     -11.333  13.278  65.425  1.00  0.00    -0.317 A  
ENDBRANCH  10  11
BRANCH  10  19
HETATM   19  C   UNL     1      -8.369  10.944  68.677  1.00  0.00    -0.148 C  
BRANCH  19  20
HETATM   20  N   UNL     1      -7.087  10.271  68.705  1.00  0.00    -0.070 NA 
HETATM   21  C   UNL     1      -6.346   9.990  69.820  1.00  0.00    -0.058 A  
HETATM   22  N   UNL     1      -5.285   9.214  67.985  1.00  0.00    -0.034 NA 
HETATM   23  C   UNL     1      -5.211   9.379  69.342  1.00  0.00    -0.035 A  
HETATM   24  C   UNL     1      -6.437   9.737  67.633  1.00  0.00    -0.067 A  
ENDBRANCH  19  20
ENDBRANCH  10  19
ENDBRANCH   9  10
ENDBRANCH   8   9
ENDBRANCH   5   8
TORSDOF 6
ENDMDL
MODEL      270
REMARK 921   NORMALIZED FREE ENERGY PREDICTED BY IDOCK:   -2.98 KCAL/MOL
REMARK 922        TOTAL FREE ENERGY PREDICTED BY IDOCK:   -5.15 KCAL/MOL
REMARK 923 INTER-LIGAND FREE ENERGY PREDICTED BY IDOCK:   -5.02 KCAL/MOL
REMARK 924 INTRA-LIGAND FREE ENERGY PREDICTED BY IDOCK:   -0.13 KCAL/MOL
REMARK 927      BINDING AFFINITY PREDICTED BY RF-SCORE:    0.00 PKD
ROOT
HETATM    1 CL   UNL     1      -8.416   3.444  68.332  1.00  0.00    -0.098 Cl 
HETATM    2  C   UNL     1      -8.296   5.092  67.856  1.00  0.00    -0.097 A  
HETATM    3  C   UNL     1      -7.300   5.488  66.968  1.00  0.00    -0.080 A  
HETATM    4  C   UNL     1      -7.197   6.831  66.594  1.00  0.00    -0.073 A  
HETATM    5  C   UNL     1      -8.090   7.786  67.108  1.00  0.00    -0.118 A  
HETATM    6  C   UNL     1      -9.089   7.370  67.998  1.00  0.00    -0.130 A  
HETATM    7  C   UNL     1      -9.193   6.027  68.367  1.00  0.00    -0.114 A  
ENDROOT
BRANCH   5   8
HETATM    8  C   UNL     1      -7.935   9.247  66.753  1.00  0.00    -0.108 C  
BRANCH   8   9
HETATM    9  O   UNL     1      -9.200   9.888  66.853  1.00  0.00    -0.143 OA 
BRANCH   9  10
HETATM   10  C   UNL     1      -9.202  11.188  67.483  1.00  0.00    -0.153 C  
BRANCH  10  11
HETATM   11  C   UNL     1     -10.236  11.181  68.624  1.00  0.00    -0.216 A  
HETATM   12  C   UNL     1     -12.138  11.057  70.723  1.00  0.00    -0.366 A  
HETATM   13  C   UNL     1     -10.857  12.345  69.125  1.00  0.00    -0.097 A  
HETATM   14  C   UNL     1     -10.574   9.962  69.253  1.00  0.00    -0.245 A  
HETATM   15  C   UNL     1     -11.821  12.279  70.143  1.00  0.00    -0.352 A  
HETATM   16 CL   UNL     1     -13.295  10.986  71.994  1.00  0.00    -0.508 Cl 
HETATM   17 CL   UNL     1     -10.451  13.935  68.581  1.00  0.00    -0.245 Cl 
HETATM   18  C   UNL     1     -11.506   9.899  70.295  1.00  0.00    -0.349 A  
ENDBRANCH  10  11
BRANCH  10  19
HETATM   19  C   UNL     1      -9.380  12.303  66.422  1.00  0.00    -0.219 C  
BRANCH  19  20
HETATM   20  N   UNL     1     -10.071  11.877  65.223  1.00  0.00    -0.252 NA 
HETATM   21  C   UNL     1     -11.387  12.102  64.925  1.00  0.00    -0.326 A  
HETATM   22  N   UNL     1     -10.405  10.972  63.235  1.00  0.00    -0.319 NA 
HETATM   23  C   UNL     1     -11.581  11.488  63.710  1.00  0.00    -0.233 A  
HETATM   24  C   UNL     1      -9.508  11.243  64.155  1.00  0.00    -0.177 A  
ENDBRANCH  19  20
ENDBRANCH  10  19
ENDBRANCH   9  10
ENDBRANCH   8   9
ENDBRANCH   5   8
TORSDOF 6
ENDMDL
MODEL      271
REMARK 921   NORMALIZED FREE ENERGY PREDICTED BY IDOCK:   -2.97 KCAL/MOL
REMARK 922        TOTAL FREE ENERGY PREDICTED BY IDOCK:   -5.14 KCAL/MOL
REMARK 923 INTER-LIGAND FREE ENERGY PREDICTED BY IDOCK:   -4.54 KCAL/MOL
REMARK 924 INTRA-LIGAND FREE ENERGY PREDICTED BY IDOCK:   -0.60 KCAL/MOL
REMARK 927      BINDING AFFINITY PREDICTED BY RF-SCORE:    0.00 PKD
ROOT
HETATM    1 CL   UNL     1     -12.653  13.472  71.047  1.00  0.00    -0.442 Cl 
HETATM    2  C   UNL     1     -12.064  12.119  70.163  1.00  0.00    -0.290 A  
HETATM    3  C   UNL     1     -11.794  10.923  70.822  1.00  0.00    -0.424 A  
HETATM    4  C   UNL     1     -11.303   9.830  70.102  1.00  0.00    -0.305 A  
HETATM    5  C   UNL     1     -11.078   9.928  68.719  1.00  0.00    -0.179 A  
HETATM    6  C   UNL     1     -11.359  11.138  68.070  1.00  0.00    -0.380 A  
HETATM    7  C   UNL     1     -11.853  12.228  68.791  1.00  0.00    -0.356 A  
ENDROOT
BRANCH   5   8
HETATM    8  C   UNL     1     -10.486   8.766  67.957  1.00  0.00    -0.204 C  
BRANCH   8   9
HETATM    9  O   UNL     1      -9.147   8.559  68.387  1.00  0.00    -0.139 OA 
BRANCH   9  10
HETATM   10  C   UNL     1      -8.615   7.231  68.186  1.00  0.00    -0.122 C  
BRANCH  10  11
HETATM   11  C   UNL     1      -7.786   7.223  66.889  1.00  0.00    -0.111 A  
HETATM   12  C   UNL     1      -6.309   7.305  64.470  1.00  0.00    -0.037 A  
HETATM   13  C   UNL     1      -6.957   6.152  66.496  1.00  0.00    -0.067 A  
HETATM   14  C   UNL     1      -7.804   8.354  66.041  1.00  0.00    -0.098 A  
HETATM   15  C   UNL     1      -6.250   6.181  65.283  1.00  0.00    -0.037 A  
HETATM   16 CL   UNL     1      -5.413   7.350  63.002  1.00  0.00    -0.040 Cl 
HETATM   17 CL   UNL     1      -6.694   4.756  67.482  1.00  0.00    -0.053 Cl 
HETATM   18  C   UNL     1      -7.069   8.400  64.851  1.00  0.00    -0.079 A  
ENDBRANCH  10  11
BRANCH  10  19
HETATM   19  C   UNL     1      -9.748   6.176  68.266  1.00  0.00    -0.121 C  
BRANCH  19  20
HETATM   20  N   UNL     1     -10.005   5.683  69.603  1.00  0.00    -0.185 NA 
HETATM   21  C   UNL     1      -9.299   4.710  70.256  1.00  0.00    -0.149 A  
HETATM   22  N   UNL     1     -10.946   5.483  71.593  1.00  0.00    -0.211 NA 
HETATM   23  C   UNL     1      -9.933   4.571  71.468  1.00  0.00    -0.189 A  
HETATM   24  C   UNL     1     -10.949   6.156  70.465  1.00  0.00    -0.318 A  
ENDBRANCH  19  20
ENDBRANCH  10  19
ENDBRANCH   9  10
ENDBRANCH   8   9
ENDBRANCH   5   8
TORSDOF 6
ENDMDL
MODEL      272
REMARK 921   NORMALIZED FREE ENERGY PREDICTED BY IDOCK:   -2.91 KCAL/MOL
REMARK 922        TOTAL FREE ENERGY PREDICTED BY IDOCK:   -5.06 KCAL/MOL
REMARK 923 INTER-LIGAND FREE ENERGY PREDICTED BY IDOCK:   -4.31 KCAL/MOL
REMARK 924 INTRA-LIGAND FREE ENERGY PREDICTED BY IDOCK:   -0.75 KCAL/MOL
REMARK 927      BINDING AFFINITY PREDICTED BY RF-SCORE:    0.00 PKD
ROOT
HETATM    1 CL   UNL     1      -9.624  10.010  64.706  1.00  0.00    -0.365 Cl 
HETATM    2  C   UNL     1      -9.209   9.195  66.163  1.00  0.00    -0.205 A  
HETATM    3  C   UNL     1      -9.200   9.890  67.369  1.00  0.00    -0.151 A  
HETATM    4  C   UNL     1      -8.849   9.226  68.549  1.00  0.00    -0.129 A  
HETATM    5  C   UNL     1      -8.504   7.865  68.528  1.00  0.00    -0.128 A  
HETATM    6  C   UNL     1      -8.523   7.179  67.305  1.00  0.00    -0.122 A  
HETATM    7  C   UNL     1      -8.877   7.843  66.129  1.00  0.00    -0.197 A  
ENDROOT
BRANCH   5   8
HETATM    8  C   UNL     1      -8.063   7.168  69.794  1.00  0.00    -0.129 C  
BRANCH   8   9
HETATM    9  O   UNL     1      -8.298   5.772  69.665  1.00  0.00    -0.109 OA 
BRANCH   9  10
HETATM   10  C   UNL     1      -9.049   5.155  70.734  1.00  0.00    -0.135 C  
BRANCH  10  11
HETATM   11  C   UNL     1     -10.134   6.139  71.205  1.00  0.00    -0.227 A  
HETATM   12  C   UNL     1     -12.089   7.949  72.176  1.00  0.00    -0.326 A  
HETATM   13  C   UNL     1     -11.220   6.550  70.404  1.00  0.00    -0.355 A  
HETATM   14  C   UNL     1     -10.046   6.712  72.495  1.00  0.00    -0.189 A  
HETATM   15  C   UNL     1     -12.204   7.422  70.896  1.00  0.00    -0.265 A  
HETATM   16 CL   UNL     1     -13.279   9.045  72.762  1.00  0.00    -0.373 Cl 
HETATM   17 CL   UNL     1     -11.403   6.071  68.753  1.00  0.00    -0.232 Cl 
HETATM   18  C   UNL     1     -11.006   7.612  72.972  1.00  0.00    -0.457 A  
ENDBRANCH  10  11
BRANCH  10  19
HETATM   19  C   UNL     1      -8.092   4.632  71.836  1.00  0.00    -0.101 C  
BRANCH  19  20
HETATM   20  N   UNL     1      -7.253   3.528  71.418  1.00  0.00    -0.032 NA 
HETATM   21  C   UNL     1      -7.677   2.268  71.096  1.00  0.00    -0.039 A  
HETATM   22  N   UNL     1      -5.437   2.404  70.852  1.00  0.00    -0.008 NA 
HETATM   23  C   UNL     1      -6.527   1.577  70.797  1.00  0.00    -0.024 A  
HETATM   24  C   UNL     1      -5.908   3.578  71.204  1.00  0.00    -0.013 A  
ENDBRANCH  19  20
ENDBRANCH  10  19
ENDBRANCH   9  10
ENDBRANCH   8   9
ENDBRANCH   5   8
TORSDOF 6
ENDMDL
MODEL      273
REMARK 921   NORMALIZED FREE ENERGY PREDICTED BY IDOCK:   -2.89 KCAL/MOL
REMARK 922        TOTAL FREE ENERGY PREDICTED BY IDOCK:   -5.03 KCAL/MOL
REMARK 923 INTER-LIGAND FREE ENERGY PREDICTED BY IDOCK:   -4.08 KCAL/MOL
REMARK 924 INTRA-LIGAND FREE ENERGY PREDICTED BY IDOCK:   -0.95 KCAL/MOL
REMARK 927      BINDING AFFINITY PREDICTED BY RF-SCORE:    0.00 PKD
ROOT
HETATM    1 CL   UNL     1     -12.027   6.016  72.295  1.00  0.00    -0.332 Cl 
HETATM    2  C   UNL     1     -10.761   6.967  71.625  1.00  0.00    -0.220 A  
HETATM    3  C   UNL     1     -10.408   6.812  70.287  1.00  0.00    -0.224 A  
HETATM    4  C   UNL     1      -9.369   7.578  69.751  1.00  0.00    -0.150 A  
HETATM    5  C   UNL     1      -8.677   8.503  70.549  1.00  0.00    -0.163 A  
HETATM    6  C   UNL     1      -9.048   8.650  71.893  1.00  0.00    -0.326 A  
HETATM    7  C   UNL     1     -10.089   7.887  72.426  1.00  0.00    -0.310 A  
ENDROOT
BRANCH   5   8
HETATM    8  C   UNL     1      -7.512   9.282  69.983  1.00  0.00    -0.094 C  
BRANCH   8   9
HETATM    9  O   UNL     1      -7.347   8.942  68.612  1.00  0.00    -0.075 OA 
BRANCH   9  10
HETATM   10  C   UNL     1      -7.070  10.042  67.717  1.00  0.00    -0.086 C  
BRANCH  10  11
HETATM   11  C   UNL     1      -8.358  10.863  67.531  1.00  0.00    -0.117 A  
HETATM   12  C   UNL     1     -10.787  12.282  67.174  1.00  0.00    -0.244 A  
HETATM   13  C   UNL     1      -8.388  12.273  67.483  1.00  0.00    -0.170 A  
HETATM   14  C   UNL     1      -9.603  10.200  67.440  1.00  0.00    -0.180 A  
HETATM   15  C   UNL     1      -9.587  12.973  67.276  1.00  0.00    -0.225 A  
HETATM   16 CL   UNL     1     -12.259  13.145  66.954  1.00  0.00    -0.357 Cl 
HETATM   17 CL   UNL     1      -6.984  13.252  67.731  1.00  0.00    -0.137 Cl 
HETATM   18  C   UNL     1     -10.804  10.899  67.272  1.00  0.00    -0.342 A  
ENDBRANCH  10  11
BRANCH  10  19
HETATM   19  C   UNL     1      -6.408   9.526  66.413  1.00  0.00    -0.069 C  
BRANCH  19  20
HETATM   20  N   UNL     1      -6.530   8.096  66.212  1.00  0.00    -0.046 NA 
HETATM   21  C   UNL     1      -7.632   7.437  65.740  1.00  0.00    -0.090 A  
HETATM   22  N   UNL     1      -5.974   5.959  66.145  1.00  0.00    -0.024 NA 
HETATM   23  C   UNL     1      -7.278   6.109  65.755  1.00  0.00    -0.075 A  
HETATM   24  C   UNL     1      -5.542   7.175  66.389  1.00  0.00    -0.023 A  
ENDBRANCH  19  20
ENDBRANCH  10  19
ENDBRANCH   9  10
ENDBRANCH   8   9
ENDBRANCH   5   8
TORSDOF 6
ENDMDL
MODEL      274
REMARK 921   NORMALIZED FREE ENERGY PREDICTED BY IDOCK:   -2.87 KCAL/MOL
REMARK 922        TOTAL FREE ENERGY PREDICTED BY IDOCK:   -5.00 KCAL/MOL
REMARK 923 INTER-LIGAND FREE ENERGY PREDICTED BY IDOCK:   -4.23 KCAL/MOL
REMARK 924 INTRA-LIGAND FREE ENERGY PREDICTED BY IDOCK:   -0.77 KCAL/MOL
REMARK 927      BINDING AFFINITY PREDICTED BY RF-SCORE:    0.00 PKD
ROOT
HETATM    1 CL   UNL     1     -10.445  13.743  64.484  1.00  0.00    -0.445 Cl 
HETATM    2  C   UNL     1     -10.440  12.208  65.260  1.00  0.00    -0.276 A  
HETATM    3  C   UNL     1      -9.823  11.121  64.646  1.00  0.00    -0.330 A  
HETATM    4  C   UNL     1      -9.833   9.872  65.274  1.00  0.00    -0.373 A  
HETATM    5  C   UNL     1     -10.461   9.703  66.519  1.00  0.00    -0.213 A  
HETATM    6  C   UNL     1     -11.073  10.809  67.125  1.00  0.00    -0.297 A  
HETATM    7  C   UNL     1     -11.059  12.057  66.498  1.00  0.00    -0.362 A  
ENDROOT
BRANCH   5   8
HETATM    8  C   UNL     1     -10.526   8.338  67.163  1.00  0.00    -0.316 C  
BRANCH   8   9
HETATM    9  O   UNL     1      -9.827   8.372  68.401  1.00  0.00    -0.166 OA 
BRANCH   9  10
HETATM   10  C   UNL     1      -8.724   7.448  68.530  1.00  0.00    -0.127 C  
BRANCH  10  11
HETATM   11  C   UNL     1      -7.884   7.851  69.755  1.00  0.00    -0.104 A  
HETATM   12  C   UNL     1      -6.359   8.492  72.059  1.00  0.00    -0.071 A  
HETATM   13  C   UNL     1      -7.343   9.140  69.945  1.00  0.00    -0.064 A  
HETATM   14  C   UNL     1      -7.587   6.887  70.746  1.00  0.00    -0.091 A  
HETATM   15  C   UNL     1      -6.615   9.464  71.100  1.00  0.00    -0.058 A  
HETATM   16 CL   UNL     1      -5.436   8.886  73.456  1.00  0.00    -0.101 Cl 
HETATM   17 CL   UNL     1      -7.476  10.397  68.766  1.00  0.00    -0.086 Cl 
HETATM   18  C   UNL     1      -6.827   7.199  71.879  1.00  0.00    -0.059 A  
ENDBRANCH  10  11
BRANCH  10  19
HETATM   19  C   UNL     1      -7.949   7.339  67.192  1.00  0.00    -0.110 C  
BRANCH  19  20
HETATM   20  N   UNL     1      -8.158   6.091  66.486  1.00  0.00    -0.108 NA 
HETATM   21  C   UNL     1      -8.208   4.844  67.045  1.00  0.00    -0.107 A  
HETATM   22  N   UNL     1      -8.533   4.693  64.816  1.00  0.00    -0.130 NA 
HETATM   23  C   UNL     1      -8.393   3.991  65.983  1.00  0.00    -0.109 A  
HETATM   24  C   UNL     1      -8.413   5.957  65.154  1.00  0.00    -0.130 A  
ENDBRANCH  19  20
ENDBRANCH  10  19
ENDBRANCH   9  10
ENDBRANCH   8   9
ENDBRANCH   5   8
TORSDOF 6
ENDMDL
MODEL      275
REMARK 921   NORMALIZED FREE ENERGY PREDICTED BY IDOCK:   -2.87 KCAL/MOL
REMARK 922        TOTAL FREE ENERGY PREDICTED BY IDOCK:   -5.00 KCAL/MOL
REMARK 923 INTER-LIGAND FREE ENERGY PREDICTED BY IDOCK:   -4.05 KCAL/MOL
REMARK 924 INTRA-LIGAND FREE ENERGY PREDICTED BY IDOCK:   -0.94 KCAL/MOL
REMARK 927      BINDING AFFINITY PREDICTED BY RF-SCORE:    0.00 PKD
ROOT
HETATM    1 CL   UNL     1      -8.352   8.682  67.874  1.00  0.00    -0.122 Cl 
HETATM    2  C   UNL     1      -7.452  10.148  67.925  1.00  0.00    -0.088 A  
HETATM    3  C   UNL     1      -6.508  10.418  66.939  1.00  0.00    -0.076 A  
HETATM    4  C   UNL     1      -5.770  11.604  66.992  1.00  0.00    -0.130 A  
HETATM    5  C   UNL     1      -5.972  12.526  68.032  1.00  0.00    -0.081 A  
HETATM    6  C   UNL     1      -6.930  12.240  69.015  1.00  0.00    -0.078 A  
HETATM    7  C   UNL     1      -7.669  11.056  68.958  1.00  0.00    -0.132 A  
ENDROOT
BRANCH   5   8
HETATM    8  C   UNL     1      -5.127  13.775  68.122  1.00  0.00    -0.111 C  
BRANCH   8   9
HETATM    9  O   UNL     1      -5.816  14.850  67.496  1.00  0.00    -0.325 OA 
BRANCH   9  10
HETATM   10  C   UNL     1      -6.276  15.902  68.373  1.00  0.00    -0.107 C  
BRANCH  10  11
HETATM   11  C   UNL     1      -7.810  15.824  68.474  1.00  0.00    -0.139 A  
HETATM   12  C   UNL     1     -10.624  15.625  68.758  1.00  0.00    -0.238 A  
HETATM   13  C   UNL     1      -8.685  16.242  67.449  1.00  0.00    -0.182 A  
HETATM   14  C   UNL     1      -8.408  15.348  69.663  1.00  0.00    -0.127 A  
HETATM   15  C   UNL     1     -10.077  16.114  67.579  1.00  0.00    -0.256 A  
HETATM   16 CL   UNL     1     -12.332  15.503  68.925  1.00  0.00    -0.087 Cl 
HETATM   17 CL   UNL     1      -8.135  16.990  65.991  1.00  0.00    -0.279 Cl 
HETATM   18  C   UNL     1      -9.797  15.257  69.808  1.00  0.00    -0.188 A  
ENDBRANCH  10  11
BRANCH  10  19
HETATM   19  C   UNL     1      -5.701  17.270  67.925  1.00  0.00    -0.117 C  
BRANCH  19  20
HETATM   20  N   UNL     1      -5.943  18.350  68.859  1.00  0.00    -0.205 NA 
HETATM   21  C   UNL     1      -5.341  18.516  70.077  1.00  0.00    -0.226 A  
HETATM   22  N   UNL     1      -6.777  20.216  69.699  1.00  0.00    -0.261 NA 
HETATM   23  C   UNL     1      -5.912  19.653  70.598  1.00  0.00    -0.206 A  
HETATM   24  C   UNL     1      -6.756  19.424  68.652  1.00  0.00    -0.294 A  
ENDBRANCH  19  20
ENDBRANCH  10  19
ENDBRANCH   9  10
ENDBRANCH   8   9
ENDBRANCH   5   8
TORSDOF 6
ENDMDL
MODEL      276
REMARK 921   NORMALIZED FREE ENERGY PREDICTED BY IDOCK:   -2.84 KCAL/MOL
REMARK 922        TOTAL FREE ENERGY PREDICTED BY IDOCK:   -4.97 KCAL/MOL
REMARK 923 INTER-LIGAND FREE ENERGY PREDICTED BY IDOCK:   -4.41 KCAL/MOL
REMARK 924 INTRA-LIGAND FREE ENERGY PREDICTED BY IDOCK:   -0.56 KCAL/MOL
REMARK 927      BINDING AFFINITY PREDICTED BY RF-SCORE:    0.00 PKD
ROOT
HETATM    1 CL   UNL     1      -8.635  11.722  68.446  1.00  0.00    -0.164 Cl 
HETATM    2  C   UNL     1      -9.447  10.517  69.367  1.00  0.00    -0.136 A  
HETATM    3  C   UNL     1      -8.715   9.637  70.159  1.00  0.00    -0.263 A  
HETATM    4  C   UNL     1      -9.379   8.651  70.895  1.00  0.00    -0.235 A  
HETATM    5  C   UNL     1     -10.778   8.539  70.842  1.00  0.00    -0.268 A  
HETATM    6  C   UNL     1     -11.500   9.437  70.043  1.00  0.00    -0.111 A  
HETATM    7  C   UNL     1     -10.835  10.423  69.311  1.00  0.00    -0.280 A  
ENDROOT
BRANCH   5   8
HETATM    8  C   UNL     1     -11.485   7.432  71.588  1.00  0.00    -0.263 C  
BRANCH   8   9
HETATM    9  O   UNL     1     -11.335   6.215  70.868  1.00  0.00    -0.313 OA 
BRANCH   9  10
HETATM   10  C   UNL     1     -10.178   5.418  71.206  1.00  0.00    -0.223 C  
BRANCH  10  11
HETATM   11  C   UNL     1      -9.851   4.495  70.019  1.00  0.00    -0.296 A  
HETATM   12  C   UNL     1      -9.230   2.711  67.904  1.00  0.00    -0.205 A  
HETATM   13  C   UNL     1      -9.779   4.936  68.680  1.00  0.00    -0.160 A  
HETATM   14  C   UNL     1      -9.646   3.114  70.243  1.00  0.00    -0.180 A  
HETATM   15  C   UNL     1      -9.441   4.058  67.638  1.00  0.00    -0.231 A  
HETATM   16 CL   UNL     1      -8.850   1.633  66.618  1.00  0.00    -0.125 Cl 
HETATM   17 CL   UNL     1     -10.152   6.555  68.203  1.00  0.00    -0.150 Cl 
HETATM   18  C   UNL     1      -9.347   2.231  69.199  1.00  0.00    -0.185 A  
ENDBRANCH  10  11
BRANCH  10  19
HETATM   19  C   UNL     1     -10.387   4.711  72.569  1.00  0.00    -0.199 C  
BRANCH  19  20
HETATM   20  N   UNL     1      -9.158   4.360  73.250  1.00  0.00    -0.114 NA 
HETATM   21  C   UNL     1      -8.921   3.207  73.947  1.00  0.00    -0.079 A  
HETATM   22  N   UNL     1      -7.077   4.510  73.979  1.00  0.00    -0.070 NA 
HETATM   23  C   UNL     1      -7.641   3.347  74.430  1.00  0.00    -0.058 A  
HETATM   24  C   UNL     1      -8.005   5.087  73.250  1.00  0.00    -0.104 A  
ENDBRANCH  19  20
ENDBRANCH  10  19
ENDBRANCH   9  10
ENDBRANCH   8   9
ENDBRANCH   5   8
TORSDOF 6
ENDMDL
MODEL      277
REMARK 921   NORMALIZED FREE ENERGY PREDICTED BY IDOCK:   -2.83 KCAL/MOL
REMARK 922        TOTAL FREE ENERGY PREDICTED BY IDOCK:   -4.95 KCAL/MOL
REMARK 923 INTER-LIGAND FREE ENERGY PREDICTED BY IDOCK:   -5.46 KCAL/MOL
REMARK 924 INTRA-LIGAND FREE ENERGY PREDICTED BY IDOCK:    0.52 KCAL/MOL
REMARK 927      BINDING AFFINITY PREDICTED BY RF-SCORE:    0.00 PKD
ROOT
HETATM    1 CL   UNL     1      -7.775  19.106  67.823  1.00  0.00    -0.284 Cl 
HETATM    2  C   UNL     1      -8.062  17.411  67.751  1.00  0.00    -0.214 A  
HETATM    3  C   UNL     1      -8.405  16.816  66.540  1.00  0.00    -0.320 A  
HETATM    4  C   UNL     1      -8.650  15.440  66.489  1.00  0.00    -0.294 A  
HETATM    5  C   UNL     1      -8.555  14.653  67.648  1.00  0.00    -0.182 A  
HETATM    6  C   UNL     1      -8.205  15.268  68.858  1.00  0.00    -0.186 A  
HETATM    7  C   UNL     1      -7.956  16.642  68.907  1.00  0.00    -0.236 A  
ENDROOT
BRANCH   5   8
HETATM    8  C   UNL     1      -8.885  13.179  67.602  1.00  0.00    -0.191 C  
BRANCH   8   9
HETATM    9  O   UNL     1      -9.493  12.877  66.353  1.00  0.00    -0.251 OA 
BRANCH   9  10
HETATM   10  C   UNL     1     -10.335  11.703  66.327  1.00  0.00    -0.235 C  
BRANCH  10  11
HETATM   11  C   UNL     1     -10.990  11.536  67.709  1.00  0.00    -0.291 A  
HETATM   12  C   UNL     1     -12.161  11.120  70.258  1.00  0.00    -0.377 A  
HETATM   13  C   UNL     1     -11.773  12.531  68.331  1.00  0.00    -0.328 A  
HETATM   14  C   UNL     1     -10.780  10.345  68.442  1.00  0.00    -0.263 A  
HETATM   15  C   UNL     1     -12.378  12.312  69.579  1.00  0.00    -0.009 A  
HETATM   16 CL   UNL     1     -12.876  10.871  71.803  1.00  0.00    -0.541 Cl 
HETATM   17 CL   UNL     1     -12.008  14.103  67.651  1.00  0.00    -0.421 Cl 
HETATM   18  C   UNL     1     -11.351  10.142  69.704  1.00  0.00    -0.289 A  
ENDBRANCH  10  11
BRANCH  10  19
HETATM   19  C   UNL     1      -9.541  10.478  65.806  1.00  0.00    -0.210 C  
BRANCH  19  20
HETATM   20  N   UNL     1      -8.138  10.485  66.165  1.00  0.00    -0.140 NA 
HETATM   21  C   UNL     1      -7.091  10.766  65.331  1.00  0.00     0.074 A  
HETATM   22  N   UNL     1      -6.316  10.331  67.407  1.00  0.00    -0.058 NA 
HETATM   23  C   UNL     1      -5.970  10.615  66.113  1.00  0.00    -0.121 A  
HETATM   24  C   UNL     1      -7.629  10.284  67.413  1.00  0.00    -0.094 A  
ENDBRANCH  19  20
ENDBRANCH  10  19
ENDBRANCH   9  10
ENDBRANCH   8   9
ENDBRANCH   5   8
TORSDOF 6
ENDMDL
MODEL      278
REMARK 921   NORMALIZED FREE ENERGY PREDICTED BY IDOCK:   -2.80 KCAL/MOL
REMARK 922        TOTAL FREE ENERGY PREDICTED BY IDOCK:   -4.91 KCAL/MOL
REMARK 923 INTER-LIGAND FREE ENERGY PREDICTED BY IDOCK:   -4.91 KCAL/MOL
REMARK 924 INTRA-LIGAND FREE ENERGY PREDICTED BY IDOCK:   -0.00 KCAL/MOL
REMARK 927      BINDING AFFINITY PREDICTED BY RF-SCORE:    0.00 PKD
ROOT
HETATM    1 CL   UNL     1     -10.864   5.004  74.284  1.00  0.00    -0.226 Cl 
HETATM    2  C   UNL     1     -10.253   6.057  73.068  1.00  0.00    -0.194 A  
HETATM    3  C   UNL     1      -9.035   5.778  72.456  1.00  0.00    -0.133 A  
HETATM    4  C   UNL     1      -8.537   6.644  71.478  1.00  0.00    -0.124 A  
HETATM    5  C   UNL     1      -9.254   7.794  71.108  1.00  0.00    -0.158 A  
HETATM    6  C   UNL     1     -10.481   8.057  71.732  1.00  0.00    -0.287 A  
HETATM    7  C   UNL     1     -10.979   7.189  72.706  1.00  0.00    -0.346 A  
ENDROOT
BRANCH   5   8
HETATM    8  C   UNL     1      -8.681   8.761  70.099  1.00  0.00    -0.149 C  
BRANCH   8   9
HETATM    9  O   UNL     1      -9.390   8.630  68.873  1.00  0.00    -0.145 OA 
BRANCH   9  10
HETATM   10  C   UNL     1      -8.835   9.338  67.742  1.00  0.00    -0.120 C  
BRANCH  10  11
HETATM   11  C   UNL     1      -9.832  10.424  67.302  1.00  0.00    -0.214 A  
HETATM   12  C   UNL     1     -11.703  12.435  66.598  1.00  0.00    -0.372 A  
HETATM   13  C   UNL     1     -10.057  10.781  65.956  1.00  0.00    -0.249 A  
HETATM   14  C   UNL     1     -10.550  11.151  68.279  1.00  0.00    -0.221 A  
HETATM   15  C   UNL     1     -11.006  11.756  65.607  1.00  0.00    -0.348 A  
HETATM   16 CL   UNL     1     -12.840  13.652  66.166  1.00  0.00    -0.284 Cl 
HETATM   17 CL   UNL     1      -9.159  10.107  64.642  1.00  0.00    -0.240 Cl 
HETATM   18  C   UNL     1     -11.467  12.149  67.934  1.00  0.00    -0.392 A  
ENDBRANCH  10  11
BRANCH  10  19
HETATM   19  C   UNL     1      -8.399   8.339  66.640  1.00  0.00    -0.111 C  
BRANCH  19  20
HETATM   20  N   UNL     1      -9.048   7.047  66.720  1.00  0.00    -0.137 NA 
HETATM   21  C   UNL     1      -8.512   5.904  67.247  1.00  0.00    -0.103 A  
HETATM   22  N   UNL     1     -10.613   5.498  66.527  1.00  0.00    -0.295 NA 
HETATM   23  C   UNL     1      -9.484   4.947  67.070  1.00  0.00    -0.148 A  
HETATM   24  C   UNL     1     -10.330   6.769  66.350  1.00  0.00     0.084 A  
ENDBRANCH  19  20
ENDBRANCH  10  19
ENDBRANCH   9  10
ENDBRANCH   8   9
ENDBRANCH   5   8
TORSDOF 6
ENDMDL
MODEL      279
REMARK 921   NORMALIZED FREE ENERGY PREDICTED BY IDOCK:   -2.78 KCAL/MOL
REMARK 922        TOTAL FREE ENERGY PREDICTED BY IDOCK:   -4.89 KCAL/MOL
REMARK 923 INTER-LIGAND FREE ENERGY PREDICTED BY IDOCK:   -4.79 KCAL/MOL
REMARK 924 INTRA-LIGAND FREE ENERGY PREDICTED BY IDOCK:   -0.10 KCAL/MOL
REMARK 927      BINDING AFFINITY PREDICTED BY RF-SCORE:    0.00 PKD
ROOT
HETATM    1 CL   UNL     1     -13.043  13.069  64.754  1.00  0.00    -0.197 Cl 
HETATM    2  C   UNL     1     -11.711  12.094  65.238  1.00  0.00    -0.308 A  
HETATM    3  C   UNL     1     -11.472  11.868  66.590  1.00  0.00    -0.382 A  
HETATM    4  C   UNL     1     -10.380  11.085  66.979  1.00  0.00    -0.269 A  
HETATM    5  C   UNL     1      -9.522  10.527  66.017  1.00  0.00    -0.227 A  
HETATM    6  C   UNL     1      -9.780  10.762  64.659  1.00  0.00    -0.344 A  
HETATM    7  C   UNL     1     -10.874  11.540  64.273  1.00  0.00    -0.421 A  
ENDROOT
BRANCH   5   8
HETATM    8  C   UNL     1      -8.307   9.737  66.444  1.00  0.00    -0.120 C  
BRANCH   8   9
HETATM    9  O   UNL     1      -7.396  10.604  67.108  1.00  0.00    -0.092 OA 
BRANCH   9  10
HETATM   10  C   UNL     1      -7.720  10.934  68.477  1.00  0.00    -0.119 C  
BRANCH  10  11
HETATM   11  C   UNL     1      -7.115  12.309  68.809  1.00  0.00    -0.107 A  
HETATM   12  C   UNL     1      -5.936  14.795  69.498  1.00  0.00    -0.107 A  
HETATM   13  C   UNL     1      -7.573  13.522  68.251  1.00  0.00    -0.135 A  
HETATM   14  C   UNL     1      -6.012  12.394  69.688  1.00  0.00    -0.124 A  
HETATM   15  C   UNL     1      -7.008  14.754  68.616  1.00  0.00    -0.110 A  
HETATM   16 CL   UNL     1      -5.225  16.305  69.915  1.00  0.00    -0.129 Cl 
HETATM   17 CL   UNL     1      -8.809  13.593  67.044  1.00  0.00    -0.241 Cl 
HETATM   18  C   UNL     1      -5.423  13.618  70.023  1.00  0.00    -0.106 A  
ENDBRANCH  10  11
BRANCH  10  19
HETATM   19  C   UNL     1      -7.315   9.775  69.423  1.00  0.00    -0.087 C  
BRANCH  19  20
HETATM   20  N   UNL     1      -8.337   9.407  70.382  1.00  0.00    -0.192 NA 
HETATM   21  C   UNL     1      -9.686   9.392  70.159  1.00  0.00    -0.235 A  
HETATM   22  N   UNL     1      -9.254   8.719  72.270  1.00  0.00    -0.380 NA 
HETATM   23  C   UNL     1     -10.235   9.009  71.361  1.00  0.00    -0.329 A  
HETATM   24  C   UNL     1      -8.121   8.943  71.645  1.00  0.00    -0.026 A  
ENDBRANCH  19  20
ENDBRANCH  10  19
ENDBRANCH   9  10
ENDBRANCH   8   9
ENDBRANCH   5   8
TORSDOF 6
ENDMDL
MODEL      280
REMARK 921   NORMALIZED FREE ENERGY PREDICTED BY IDOCK:   -2.76 KCAL/MOL
REMARK 922        TOTAL FREE ENERGY PREDICTED BY IDOCK:   -4.85 KCAL/MOL
REMARK 923 INTER-LIGAND FREE ENERGY PREDICTED BY IDOCK:   -4.01 KCAL/MOL
REMARK 924 INTRA-LIGAND FREE ENERGY PREDICTED BY IDOCK:   -0.85 KCAL/MOL
REMARK 927      BINDING AFFINITY PREDICTED BY RF-SCORE:    0.00 PKD
ROOT
HETATM    1 CL   UNL     1      -9.650   2.451  64.952  1.00  0.00    -0.058 Cl 
HETATM    2  C   UNL     1      -9.309   4.114  65.227  1.00  0.00    -0.164 A  
HETATM    3  C   UNL     1     -10.056   4.833  66.155  1.00  0.00    -0.288 A  
HETATM    4  C   UNL     1      -9.783   6.188  66.365  1.00  0.00    -0.152 A  
HETATM    5  C   UNL     1      -8.763   6.832  65.647  1.00  0.00    -0.086 A  
HETATM    6  C   UNL     1      -8.017   6.092  64.719  1.00  0.00    -0.127 A  
HETATM    7  C   UNL     1      -8.288   4.737  64.513  1.00  0.00    -0.128 A  
ENDROOT
BRANCH   5   8
HETATM    8  C   UNL     1      -8.515   8.311  65.829  1.00  0.00    -0.151 C  
BRANCH   8   9
HETATM    9  O   UNL     1      -7.875   8.525  67.081  1.00  0.00    -0.096 OA 
BRANCH   9  10
HETATM   10  C   UNL     1      -8.709   9.053  68.136  1.00  0.00    -0.130 C  
BRANCH  10  11
HETATM   11  C   UNL     1      -8.558  10.584  68.165  1.00  0.00    -0.123 A  
HETATM   12  C   UNL     1      -8.193  13.394  68.286  1.00  0.00    -0.160 A  
HETATM   13  C   UNL     1      -9.468  11.472  67.553  1.00  0.00    -0.169 A  
HETATM   14  C   UNL     1      -7.434  11.164  68.797  1.00  0.00    -0.118 A  
HETATM   15  C   UNL     1      -9.302  12.864  67.640  1.00  0.00    -0.195 A  
HETATM   16 CL   UNL     1      -7.977  15.099  68.360  1.00  0.00    -0.131 Cl 
HETATM   17 CL   UNL     1     -10.812  10.936  66.608  1.00  0.00    -0.290 Cl 
HETATM   18  C   UNL     1      -7.248  12.550  68.850  1.00  0.00    -0.050 A  
ENDBRANCH  10  11
BRANCH  10  19
HETATM   19  C   UNL     1      -8.417   8.324  69.472  1.00  0.00    -0.125 C  
BRANCH  19  20
HETATM   20  N   UNL     1      -9.494   8.398  70.437  1.00  0.00    -0.166 NA 
HETATM   21  C   UNL     1      -9.384   8.782  71.745  1.00  0.00    -0.280 A  
HETATM   22  N   UNL     1     -11.537   8.297  71.273  1.00  0.00    -0.275 NA 
HETATM   23  C   UNL     1     -10.655   8.663  72.254  1.00  0.00    -0.305 A  
HETATM   24  C   UNL     1     -10.814   8.170  70.184  1.00  0.00    -0.241 A  
ENDBRANCH  19  20
ENDBRANCH  10  19
ENDBRANCH   9  10
ENDBRANCH   8   9
ENDBRANCH   5   8
TORSDOF 6
ENDMDL
MODEL      281
REMARK 921   NORMALIZED FREE ENERGY PREDICTED BY IDOCK:   -2.76 KCAL/MOL
REMARK 922        TOTAL FREE ENERGY PREDICTED BY IDOCK:   -4.85 KCAL/MOL
REMARK 923 INTER-LIGAND FREE ENERGY PREDICTED BY IDOCK:   -4.54 KCAL/MOL
REMARK 924 INTRA-LIGAND FREE ENERGY PREDICTED BY IDOCK:   -0.30 KCAL/MOL
REMARK 927      BINDING AFFINITY PREDICTED BY RF-SCORE:    0.00 PKD
ROOT
HETATM    1 CL   UNL     1      -7.712  19.001  68.737  1.00  0.00    -0.383 Cl 
HETATM    2  C   UNL     1      -7.972  17.392  68.189  1.00  0.00    -0.233 A  
HETATM    3  C   UNL     1      -8.380  16.409  69.087  1.00  0.00    -0.182 A  
HETATM    4  C   UNL     1      -8.578  15.100  68.639  1.00  0.00    -0.172 A  
HETATM    5  C   UNL     1      -8.367  14.765  67.291  1.00  0.00    -0.234 A  
HETATM    6  C   UNL     1      -7.960  15.768  66.399  1.00  0.00    -0.039 A  
HETATM    7  C   UNL     1      -7.767  17.076  66.848  1.00  0.00    -0.251 A  
ENDROOT
BRANCH   5   8
HETATM    8  C   UNL     1      -8.518  13.336  66.825  1.00  0.00     0.028 C  
BRANCH   8   9
HETATM    9  O   UNL     1      -8.649  12.487  67.959  1.00  0.00    -0.168 OA 
BRANCH   9  10
HETATM   10  C   UNL     1      -9.735  11.535  67.914  1.00  0.00    -0.183 C  
BRANCH  10  11
HETATM   11  C   UNL     1      -9.257  10.278  67.166  1.00  0.00    -0.163 A  
HETATM   12  C   UNL     1      -8.336   7.921  65.886  1.00  0.00    -0.132 A  
HETATM   13  C   UNL     1      -9.339  10.120  65.767  1.00  0.00    -0.188 A  
HETATM   14  C   UNL     1      -8.738   9.184  67.898  1.00  0.00    -0.128 A  
HETATM   15  C   UNL     1      -8.854   8.966  65.131  1.00  0.00    -0.209 A  
HETATM   16 CL   UNL     1      -7.775   6.495  65.104  1.00  0.00    -0.090 Cl 
HETATM   17 CL   UNL     1     -10.083  11.287  64.732  1.00  0.00    -0.315 Cl 
HETATM   18  C   UNL     1      -8.291   8.017  67.268  1.00  0.00    -0.122 A  
ENDBRANCH  10  11
BRANCH  10  19
HETATM   19  C   UNL     1     -11.018  12.202  67.356  1.00  0.00    -0.260 C  
BRANCH  19  20
HETATM   20  N   UNL     1     -11.590  13.208  68.225  1.00  0.00    -0.312 NA 
HETATM   21  C   UNL     1     -12.077  14.428  67.841  1.00  0.00    -0.245 A  
HETATM   22  N   UNL     1     -12.321  14.179  70.072  1.00  0.00    -0.346 NA 
HETATM   23  C   UNL     1     -12.479  15.029  69.010  1.00  0.00     0.107 A  
HETATM   24  C   UNL     1     -11.808  13.081  69.565  1.00  0.00    -0.323 A  
ENDBRANCH  19  20
ENDBRANCH  10  19
ENDBRANCH   9  10
ENDBRANCH   8   9
ENDBRANCH   5   8
TORSDOF 6
ENDMDL
MODEL      282
REMARK 921   NORMALIZED FREE ENERGY PREDICTED BY IDOCK:   -2.73 KCAL/MOL
REMARK 922        TOTAL FREE ENERGY PREDICTED BY IDOCK:   -4.81 KCAL/MOL
REMARK 923 INTER-LIGAND FREE ENERGY PREDICTED BY IDOCK:   -4.06 KCAL/MOL
REMARK 924 INTRA-LIGAND FREE ENERGY PREDICTED BY IDOCK:   -0.75 KCAL/MOL
REMARK 927      BINDING AFFINITY PREDICTED BY RF-SCORE:    0.00 PKD
ROOT
HETATM    1 CL   UNL     1      -5.130  14.533  71.454  1.00  0.00    -0.131 Cl 
HETATM    2  C   UNL     1      -5.937  13.907  70.070  1.00  0.00    -0.143 A  
HETATM    3  C   UNL     1      -6.093  14.702  68.938  1.00  0.00    -0.086 A  
HETATM    4  C   UNL     1      -6.762  14.193  67.821  1.00  0.00    -0.190 A  
HETATM    5  C   UNL     1      -7.280  12.887  67.830  1.00  0.00    -0.125 A  
HETATM    6  C   UNL     1      -7.110  12.099  68.977  1.00  0.00    -0.062 A  
HETATM    7  C   UNL     1      -6.438  12.607  70.091  1.00  0.00     0.179 A  
ENDROOT
BRANCH   5   8
HETATM    8  C   UNL     1      -8.059  12.365  66.646  1.00  0.00     0.104 C  
BRANCH   8   9
HETATM    9  O   UNL     1      -9.260  11.760  67.107  1.00  0.00    -0.172 OA 
BRANCH   9  10
HETATM   10  C   UNL     1     -10.466  12.130  66.403  1.00  0.00    -0.230 C  
BRANCH  10  11
HETATM   11  C   UNL     1     -10.478  13.658  66.215  1.00  0.00    -0.291 A  
HETATM   12  C   UNL     1     -10.495  16.456  65.757  1.00  0.00    -0.354 A  
HETATM   13  C   UNL     1     -10.405  14.579  67.281  1.00  0.00    -0.260 A  
HETATM   14  C   UNL     1     -10.607  14.201  64.916  1.00  0.00    -0.449 A  
HETATM   15  C   UNL     1     -10.383  15.964  67.051  1.00  0.00    -0.297 A  
HETATM   16 CL   UNL     1     -10.502  18.155  65.483  1.00  0.00    -0.125 Cl 
HETATM   17 CL   UNL     1     -10.397  14.096  68.941  1.00  0.00    -0.228 Cl 
HETATM   18  C   UNL     1     -10.625  15.582  64.689  1.00  0.00    -0.085 A  
ENDBRANCH  10  11
BRANCH  10  19
HETATM   19  C   UNL     1     -11.710  11.531  67.107  1.00  0.00    -0.055 C  
BRANCH  19  20
HETATM   20  N   UNL     1     -11.405  10.479  68.056  1.00  0.00    -0.366 NA 
HETATM   21  C   UNL     1     -10.842   9.267  67.766  1.00  0.00    -0.126 A  
HETATM   22  N   UNL     1     -11.214   9.423  69.987  1.00  0.00    -0.223 NA 
HETATM   23  C   UNL     1     -10.780   8.612  68.973  1.00  0.00    -0.101 A  
HETATM   24  C   UNL     1     -11.560  10.550  69.408  1.00  0.00    -0.246 A  
ENDBRANCH  19  20
ENDBRANCH  10  19
ENDBRANCH   9  10
ENDBRANCH   8   9
ENDBRANCH   5   8
TORSDOF 6
ENDMDL
MODEL      283
REMARK 921   NORMALIZED FREE ENERGY PREDICTED BY IDOCK:   -2.66 KCAL/MOL
REMARK 922        TOTAL FREE ENERGY PREDICTED BY IDOCK:   -4.72 KCAL/MOL
REMARK 923 INTER-LIGAND FREE ENERGY PREDICTED BY IDOCK:   -4.23 KCAL/MOL
REMARK 924 INTRA-LIGAND FREE ENERGY PREDICTED BY IDOCK:   -0.48 KCAL/MOL
REMARK 927      BINDING AFFINITY PREDICTED BY RF-SCORE:    0.00 PKD
ROOT
HETATM    1 CL   UNL     1     -10.050   3.360  63.304  1.00  0.00    -0.146 Cl 
HETATM    2  C   UNL     1      -9.396   4.183  64.666  1.00  0.00    -0.163 A  
HETATM    3  C   UNL     1      -9.684   3.735  65.952  1.00  0.00    -0.137 A  
HETATM    4  C   UNL     1      -9.161   4.415  67.056  1.00  0.00    -0.154 A  
HETATM    5  C   UNL     1      -8.349   5.547  66.880  1.00  0.00    -0.108 A  
HETATM    6  C   UNL     1      -8.066   5.982  65.578  1.00  0.00    -0.133 A  
HETATM    7  C   UNL     1      -8.586   5.299  64.476  1.00  0.00    -0.109 A  
ENDROOT
BRANCH   5   8
HETATM    8  C   UNL     1      -7.840   6.317  68.076  1.00  0.00    -0.104 C  
BRANCH   8   9
HETATM    9  O   UNL     1      -7.975   7.710  67.826  1.00  0.00    -0.117 OA 
BRANCH   9  10
HETATM   10  C   UNL     1      -7.739   8.582  68.953  1.00  0.00    -0.100 C  
BRANCH  10  11
HETATM   11  C   UNL     1      -9.011   8.624  69.819  1.00  0.00    -0.145 A  
HETATM   12  C   UNL     1     -11.290   8.700  71.505  1.00  0.00    -0.289 A  
HETATM   13  C   UNL     1     -10.318   8.553  69.294  1.00  0.00    -0.221 A  
HETATM   14  C   UNL     1      -8.898   8.783  71.219  1.00  0.00    -0.288 A  
HETATM   15  C   UNL     1     -11.445   8.560  70.132  1.00  0.00     0.002 A  
HETATM   16 CL   UNL     1     -12.675   8.742  72.524  1.00  0.00    -0.434 Cl 
HETATM   17 CL   UNL     1     -10.648   8.512  67.597  1.00  0.00    -0.297 Cl 
HETATM   18  C   UNL     1     -10.022   8.829  72.052  1.00  0.00    -0.391 A  
ENDBRANCH  10  11
BRANCH  10  19
HETATM   19  C   UNL     1      -7.206   9.956  68.473  1.00  0.00    -0.076 C  
BRANCH  19  20
HETATM   20  N   UNL     1      -8.036  10.598  67.474  1.00  0.00    -0.109 NA 
HETATM   21  C   UNL     1      -8.935  11.605  67.695  1.00  0.00    -0.166 A  
HETATM   22  N   UNL     1      -8.896  11.085  65.498  1.00  0.00    -0.191 NA 
HETATM   23  C   UNL     1      -9.490  11.855  66.462  1.00  0.00    -0.217 A  
HETATM   24  C   UNL     1      -8.007  10.357  66.133  1.00  0.00    -0.138 A  
ENDBRANCH  19  20
ENDBRANCH  10  19
ENDBRANCH   9  10
ENDBRANCH   8   9
ENDBRANCH   5   8
TORSDOF 6
ENDMDL
MODEL      284
REMARK 921   NORMALIZED FREE ENERGY PREDICTED BY IDOCK:   -2.64 KCAL/MOL
REMARK 922        TOTAL FREE ENERGY PREDICTED BY IDOCK:   -4.69 KCAL/MOL
REMARK 923 INTER-LIGAND FREE ENERGY PREDICTED BY IDOCK:   -4.44 KCAL/MOL
REMARK 924 INTRA-LIGAND FREE ENERGY PREDICTED BY IDOCK:   -0.25 KCAL/MOL
REMARK 927      BINDING AFFINITY PREDICTED BY RF-SCORE:    0.00 PKD
ROOT
HETATM    1 CL   UNL     1      -8.974   3.392  67.551  1.00  0.00    -0.154 Cl 
HETATM    2  C   UNL     1      -9.328   5.034  67.180  1.00  0.00    -0.125 A  
HETATM    3  C   UNL     1      -8.292   5.925  66.916  1.00  0.00    -0.108 A  
HETATM    4  C   UNL     1      -8.584   7.261  66.627  1.00  0.00    -0.128 A  
HETATM    5  C   UNL     1      -9.913   7.714  66.602  1.00  0.00    -0.284 A  
HETATM    6  C   UNL     1     -10.945   6.802  66.866  1.00  0.00    -0.370 A  
HETATM    7  C   UNL     1     -10.651   5.466  67.151  1.00  0.00    -0.274 A  
ENDROOT
BRANCH   5   8
HETATM    8  C   UNL     1     -10.220   9.172  66.355  1.00  0.00    -0.230 C  
BRANCH   8   9
HETATM    9  O   UNL     1      -9.268   9.973  67.044  1.00  0.00    -0.144 OA 
BRANCH   9  10
HETATM   10  C   UNL     1      -9.404  10.021  68.481  1.00  0.00    -0.145 C  
BRANCH  10  11
HETATM   11  C   UNL     1     -10.284  11.227  68.853  1.00  0.00    -0.195 A  
HETATM   12  C   UNL     1     -11.963  13.384  69.609  1.00  0.00    -0.324 A  
HETATM   13  C   UNL     1     -10.205  12.482  68.213  1.00  0.00    -0.234 A  
HETATM   14  C   UNL     1     -11.206  11.117  69.919  1.00  0.00    -0.293 A  
HETATM   15  C   UNL     1     -11.058  13.539  68.567  1.00  0.00    -0.300 A  
HETATM   16 CL   UNL     1     -12.982  14.693  70.063  1.00  0.00    -0.096 Cl 
HETATM   17 CL   UNL     1      -9.032  12.843  66.995  1.00  0.00    -0.220 Cl 
HETATM   18  C   UNL     1     -12.030  12.183  70.299  1.00  0.00    -0.389 A  
ENDBRANCH  10  11
BRANCH  10  19
HETATM   19  C   UNL     1      -8.010   9.972  69.159  1.00  0.00    -0.116 C  
BRANCH  19  20
HETATM   20  N   UNL     1      -6.932  10.477  68.334  1.00  0.00    -0.065 NA 
HETATM   21  C   UNL     1      -6.406  11.739  68.374  1.00  0.00    -0.051 A  
HETATM   22  N   UNL     1      -5.315  10.507  66.828  1.00  0.00    -0.042 NA 
HETATM   23  C   UNL     1      -5.439  11.747  67.397  1.00  0.00    -0.094 A  
HETATM   24  C   UNL     1      -6.209   9.757  67.430  1.00  0.00    -0.060 A  
ENDBRANCH  19  20
ENDBRANCH  10  19
ENDBRANCH   9  10
ENDBRANCH   8   9
ENDBRANCH   5   8
TORSDOF 6
ENDMDL
MODEL      285
REMARK 921   NORMALIZED FREE ENERGY PREDICTED BY IDOCK:   -2.60 KCAL/MOL
REMARK 922        TOTAL FREE ENERGY PREDICTED BY IDOCK:   -4.63 KCAL/MOL
REMARK 923 INTER-LIGAND FREE ENERGY PREDICTED BY IDOCK:   -4.27 KCAL/MOL
REMARK 924 INTRA-LIGAND FREE ENERGY PREDICTED BY IDOCK:   -0.37 KCAL/MOL
REMARK 927      BINDING AFFINITY PREDICTED BY RF-SCORE:    0.00 PKD
ROOT
HETATM    1 CL   UNL     1      -8.318   2.596  64.490  1.00  0.00    -0.086 Cl 
HETATM    2  C   UNL     1      -8.967   3.992  65.256  1.00  0.00    -0.132 A  
HETATM    3  C   UNL     1      -9.925   3.854  66.257  1.00  0.00    -0.058 A  
HETATM    4  C   UNL     1     -10.459   4.992  66.867  1.00  0.00    -0.243 A  
HETATM    5  C   UNL     1     -10.039   6.275  66.480  1.00  0.00    -0.168 A  
HETATM    6  C   UNL     1      -9.070   6.397  65.474  1.00  0.00     0.111 A  
HETATM    7  C   UNL     1      -8.534   5.258  64.867  1.00  0.00    -0.150 A  
ENDROOT
BRANCH   5   8
HETATM    8  C   UNL     1     -10.666   7.504  67.096  1.00  0.00    -0.309 C  
BRANCH   8   9
HETATM    9  O   UNL     1     -10.335   7.554  68.478  1.00  0.00    -0.193 OA 
BRANCH   9  10
HETATM   10  C   UNL     1      -9.708   8.772  68.935  1.00  0.00    -0.172 C  
BRANCH  10  11
HETATM   11  C   UNL     1     -10.093   9.914  67.977  1.00  0.00    -0.202 A  
HETATM   12  C   UNL     1     -10.714  11.990  66.148  1.00  0.00    -0.275 A  
HETATM   13  C   UNL     1     -11.131  10.835  68.233  1.00  0.00    -0.271 A  
HETATM   14  C   UNL     1      -9.414  10.051  66.745  1.00  0.00    -0.209 A  
HETATM   15  C   UNL     1     -11.417  11.880  67.341  1.00  0.00    -0.393 A  
HETATM   16 CL   UNL     1     -11.092  13.253  65.043  1.00  0.00    -0.314 Cl 
HETATM   17 CL   UNL     1     -12.165  10.725  69.614  1.00  0.00    -0.366 Cl 
HETATM   18  C   UNL     1      -9.725  11.070  65.837  1.00  0.00    -0.267 A  
ENDBRANCH  10  11
BRANCH  10  19
HETATM   19  C   UNL     1      -8.188   8.554  69.144  1.00  0.00    -0.119 C  
BRANCH  19  20
HETATM   20  N   UNL     1      -7.830   7.208  69.541  1.00  0.00    -0.116 NA 
HETATM   21  C   UNL     1      -8.104   6.620  70.745  1.00  0.00    -0.119 A  
HETATM   22  N   UNL     1      -7.018   5.157  69.413  1.00  0.00    -0.053 NA 
HETATM   23  C   UNL     1      -7.547   5.367  70.658  1.00  0.00    -0.081 A  
HETATM   24  C   UNL     1      -7.226   6.274  68.754  1.00  0.00    -0.084 A  
ENDBRANCH  19  20
ENDBRANCH  10  19
ENDBRANCH   9  10
ENDBRANCH   8   9
ENDBRANCH   5   8
TORSDOF 6
ENDMDL
MODEL      286
REMARK 921   NORMALIZED FREE ENERGY PREDICTED BY IDOCK:   -2.58 KCAL/MOL
REMARK 922        TOTAL FREE ENERGY PREDICTED BY IDOCK:   -4.61 KCAL/MOL
REMARK 923 INTER-LIGAND FREE ENERGY PREDICTED BY IDOCK:   -3.36 KCAL/MOL
REMARK 924 INTRA-LIGAND FREE ENERGY PREDICTED BY IDOCK:   -1.26 KCAL/MOL
REMARK 927      BINDING AFFINITY PREDICTED BY RF-SCORE:    0.00 PKD
ROOT
HETATM    1 CL   UNL     1      -8.967  10.837  64.758  1.00  0.00    -0.206 Cl 
HETATM    2  C   UNL     1      -9.428  10.195  66.285  1.00  0.00    -0.180 A  
HETATM    3  C   UNL     1      -8.945  10.773  67.456  1.00  0.00    -0.132 A  
HETATM    4  C   UNL     1      -9.312  10.239  68.695  1.00  0.00    -0.162 A  
HETATM    5  C   UNL     1     -10.163   9.125  68.770  1.00  0.00    -0.228 A  
HETATM    6  C   UNL     1     -10.644   8.558  67.581  1.00  0.00    -0.268 A  
HETATM    7  C   UNL     1     -10.279   9.095  66.344  1.00  0.00    -0.300 A  
ENDROOT
BRANCH   5   8
HETATM    8  C   UNL     1     -10.504   8.512  70.108  1.00  0.00    -0.220 C  
BRANCH   8   9
HETATM    9  O   UNL     1     -10.114   7.144  70.107  1.00  0.00    -0.186 OA 
BRANCH   9  10
HETATM   10  C   UNL     1      -8.697   6.890  70.230  1.00  0.00    -0.144 C  
BRANCH  10  11
HETATM   11  C   UNL     1      -8.142   6.517  68.844  1.00  0.00    -0.115 A  
HETATM   12  C   UNL     1      -7.058   5.925  66.292  1.00  0.00    -0.068 A  
HETATM   13  C   UNL     1      -8.586   5.408  68.095  1.00  0.00    -0.096 A  
HETATM   14  C   UNL     1      -7.099   7.286  68.279  1.00  0.00    -0.081 A  
HETATM   15  C   UNL     1      -8.070   5.133  66.818  1.00  0.00    -0.108 A  
HETATM   16 CL   UNL     1      -6.405   5.564  64.742  1.00  0.00    -0.036 Cl 
HETATM   17 CL   UNL     1      -9.743   4.271  68.694  1.00  0.00    -0.206 Cl 
HETATM   18  C   UNL     1      -6.556   6.990  67.024  1.00  0.00    -0.055 A  
ENDBRANCH  10  11
BRANCH  10  19
HETATM   19  C   UNL     1      -8.427   5.865  71.361  1.00  0.00    -0.128 C  
BRANCH  19  20
HETATM   20  N   UNL     1      -7.659   6.392  72.469  1.00  0.00    -0.099 NA 
HETATM   21  C   UNL     1      -6.301   6.545  72.512  1.00  0.00    -0.058 A  
HETATM   22  N   UNL     1      -7.210   7.275  74.445  1.00  0.00    -0.106 NA 
HETATM   23  C   UNL     1      -6.044   7.048  73.766  1.00  0.00    -0.062 A  
HETATM   24  C   UNL     1      -8.168   6.894  73.630  1.00  0.00    -0.112 A  
ENDBRANCH  19  20
ENDBRANCH  10  19
ENDBRANCH   9  10
ENDBRANCH   8   9
ENDBRANCH   5   8
TORSDOF 6
ENDMDL
MODEL      287
REMARK 921   NORMALIZED FREE ENERGY PREDICTED BY IDOCK:   -2.56 KCAL/MOL
REMARK 922        TOTAL FREE ENERGY PREDICTED BY IDOCK:   -4.58 KCAL/MOL
REMARK 923 INTER-LIGAND FREE ENERGY PREDICTED BY IDOCK:   -3.84 KCAL/MOL
REMARK 924 INTRA-LIGAND FREE ENERGY PREDICTED BY IDOCK:   -0.74 KCAL/MOL
REMARK 927      BINDING AFFINITY PREDICTED BY RF-SCORE:    0.00 PKD
ROOT
HETATM    1 CL   UNL     1      -8.684   9.875  62.449  1.00  0.00    -0.204 Cl 
HETATM    2  C   UNL     1      -8.116   9.436  64.012  1.00  0.00    -0.150 A  
HETATM    3  C   UNL     1      -8.651   8.326  64.659  1.00  0.00    -0.005 A  
HETATM    4  C   UNL     1      -8.195   7.981  65.935  1.00  0.00    -0.127 A  
HETATM    5  C   UNL     1      -7.203   8.744  66.571  1.00  0.00    -0.081 A  
HETATM    6  C   UNL     1      -6.672   9.857  65.903  1.00  0.00    -0.097 A  
HETATM    7  C   UNL     1      -7.125  10.198  64.627  1.00  0.00    -0.124 A  
ENDROOT
BRANCH   5   8
HETATM    8  C   UNL     1      -6.760   8.407  67.975  1.00  0.00    -0.065 C  
BRANCH   8   9
HETATM    9  O   UNL     1      -7.900   8.067  68.755  1.00  0.00    -0.110 OA 
BRANCH   9  10
HETATM   10  C   UNL     1      -7.886   8.521  70.127  1.00  0.00    -0.099 C  
BRANCH  10  11
HETATM   11  C   UNL     1      -8.813   7.613  70.955  1.00  0.00    -0.146 A  
HETATM   12  C   UNL     1     -10.580   5.921  72.388  1.00  0.00    -0.217 A  
HETATM   13  C   UNL     1      -8.707   7.451  72.352  1.00  0.00    -0.120 A  
HETATM   14  C   UNL     1      -9.811   6.852  70.304  1.00  0.00    -0.186 A  
HETATM   15  C   UNL     1      -9.602   6.638  73.065  1.00  0.00    -0.162 A  
HETATM   16 CL   UNL     1     -11.653   4.898  73.262  1.00  0.00    -0.374 Cl 
HETATM   17 CL   UNL     1      -7.451   8.182  73.290  1.00  0.00    -0.181 Cl 
HETATM   18  C   UNL     1     -10.679   6.011  71.008  1.00  0.00    -0.325 A  
ENDBRANCH  10  11
BRANCH  10  19
HETATM   19  C   UNL     1      -8.193  10.038  70.198  1.00  0.00    -0.053 C  
BRANCH  19  20
HETATM   20  N   UNL     1      -9.125  10.503  69.191  1.00  0.00    -0.181 NA 
HETATM   21  C   UNL     1     -10.387  10.024  68.974  1.00  0.00    -0.206 A  
HETATM   22  N   UNL     1      -9.952  11.704  67.531  1.00  0.00    -0.186 NA 
HETATM   23  C   UNL     1     -10.860  10.752  67.908  1.00  0.00    -0.264 A  
HETATM   24  C   UNL     1      -8.927  11.547  68.338  1.00  0.00    -0.173 A  
ENDBRANCH  19  20
ENDBRANCH  10  19
ENDBRANCH   9  10
ENDBRANCH   8   9
ENDBRANCH   5   8
TORSDOF 6
ENDMDL
MODEL      288
REMARK 921   NORMALIZED FREE ENERGY PREDICTED BY IDOCK:   -2.52 KCAL/MOL
REMARK 922        TOTAL FREE ENERGY PREDICTED BY IDOCK:   -4.53 KCAL/MOL
REMARK 923 INTER-LIGAND FREE ENERGY PREDICTED BY IDOCK:   -3.43 KCAL/MOL
REMARK 924 INTRA-LIGAND FREE ENERGY PREDICTED BY IDOCK:   -1.10 KCAL/MOL
REMARK 927      BINDING AFFINITY PREDICTED BY RF-SCORE:    0.00 PKD
ROOT
HETATM    1 CL   UNL     1     -10.881   3.856  64.158  1.00  0.00    -0.267 Cl 
HETATM    2  C   UNL     1      -9.711   4.173  65.378  1.00  0.00    -0.201 A  
HETATM    3  C   UNL     1      -8.842   5.252  65.244  1.00  0.00    -0.144 A  
HETATM    4  C   UNL     1      -7.884   5.497  66.233  1.00  0.00    -0.100 A  
HETATM    5  C   UNL     1      -7.790   4.664  67.360  1.00  0.00    -0.090 A  
HETATM    6  C   UNL     1      -8.676   3.584  67.481  1.00  0.00    -0.130 A  
HETATM    7  C   UNL     1      -9.635   3.343  66.494  1.00  0.00    -0.080 A  
ENDROOT
BRANCH   5   8
HETATM    8  C   UNL     1      -6.711   4.893  68.392  1.00  0.00    -0.050 C  
BRANCH   8   9
HETATM    9  O   UNL     1      -7.285   4.818  69.691  1.00  0.00    -0.053 OA 
BRANCH   9  10
HETATM   10  C   UNL     1      -8.303   5.799  69.991  1.00  0.00    -0.123 C  
BRANCH  10  11
HETATM   11  C   UNL     1      -7.701   7.204  69.812  1.00  0.00    -0.108 A  
HETATM   12  C   UNL     1      -6.516   9.768  69.559  1.00  0.00    -0.046 A  
HETATM   13  C   UNL     1      -8.273   8.203  68.996  1.00  0.00    -0.127 A  
HETATM   14  C   UNL     1      -6.486   7.531  70.455  1.00  0.00    -0.038 A  
HETATM   15  C   UNL     1      -7.702   9.482  68.896  1.00  0.00    -0.076 A  
HETATM   16 CL   UNL     1      -5.802  11.325  69.406  1.00  0.00    -0.052 Cl 
HETATM   17 CL   UNL     1      -9.671   7.929  68.016  1.00  0.00    -0.171 Cl 
HETATM   18  C   UNL     1      -5.895   8.793  70.325  1.00  0.00    -0.030 A  
ENDBRANCH  10  11
BRANCH  10  19
HETATM   19  C   UNL     1      -8.940   5.513  71.374  1.00  0.00    -0.139 C  
BRANCH  19  20
HETATM   20  N   UNL     1     -10.102   6.325  71.672  1.00  0.00    -0.187 NA 
HETATM   21  C   UNL     1     -10.182   7.303  72.625  1.00  0.00    -0.212 A  
HETATM   22  N   UNL     1     -12.150   7.143  71.530  1.00  0.00    -0.321 NA 
HETATM   23  C   UNL     1     -11.476   7.760  72.550  1.00  0.00    -0.373 A  
HETATM   24  C   UNL     1     -11.289   6.302  71.004  1.00  0.00    -0.316 A  
ENDBRANCH  19  20
ENDBRANCH  10  19
ENDBRANCH   9  10
ENDBRANCH   8   9
ENDBRANCH   5   8
TORSDOF 6
ENDMDL
MODEL      289
REMARK 921   NORMALIZED FREE ENERGY PREDICTED BY IDOCK:   -2.49 KCAL/MOL
REMARK 922        TOTAL FREE ENERGY PREDICTED BY IDOCK:   -4.49 KCAL/MOL
REMARK 923 INTER-LIGAND FREE ENERGY PREDICTED BY IDOCK:   -4.19 KCAL/MOL
REMARK 924 INTRA-LIGAND FREE ENERGY PREDICTED BY IDOCK:   -0.30 KCAL/MOL
REMARK 927      BINDING AFFINITY PREDICTED BY RF-SCORE:    0.00 PKD
ROOT
HETATM    1 CL   UNL     1      -8.743  11.689  66.194  1.00  0.00    -0.143 Cl 
HETATM    2  C   UNL     1      -9.209  10.990  67.694  1.00  0.00    -0.149 A  
HETATM    3  C   UNL     1      -8.251  10.745  68.674  1.00  0.00    -0.139 A  
HETATM    4  C   UNL     1      -8.633  10.165  69.887  1.00  0.00    -0.100 A  
HETATM    5  C   UNL     1      -9.975   9.825  70.126  1.00  0.00    -0.315 A  
HETATM    6  C   UNL     1     -10.927  10.082  69.130  1.00  0.00    -0.256 A  
HETATM    7  C   UNL     1     -10.545  10.666  67.921  1.00  0.00    -0.266 A  
ENDROOT
BRANCH   5   8
HETATM    8  C   UNL     1     -10.372   9.138  71.412  1.00  0.00    -0.338 C  
BRANCH   8   9
HETATM    9  O   UNL     1     -10.402   7.732  71.200  1.00  0.00    -0.200 OA 
BRANCH   9  10
HETATM   10  C   UNL     1      -9.149   7.037  71.387  1.00  0.00    -0.147 C  
BRANCH  10  11
HETATM   11  C   UNL     1      -8.984   6.006  70.257  1.00  0.00    -0.152 A  
HETATM   12  C   UNL     1      -8.573   4.093  68.205  1.00  0.00    -0.096 A  
HETATM   13  C   UNL     1      -9.985   5.719  69.305  1.00  0.00    -0.182 A  
HETATM   14  C   UNL     1      -7.788   5.257  70.163  1.00  0.00    -0.080 A  
HETATM   15  C   UNL     1      -9.769   4.794  68.271  1.00  0.00    -0.200 A  
HETATM   16 CL   UNL     1      -8.326   2.935  66.956  1.00  0.00    -0.088 Cl 
HETATM   17 CL   UNL     1     -11.562   6.425  69.360  1.00  0.00    -0.382 Cl 
HETATM   18  C   UNL     1      -7.587   4.307  69.156  1.00  0.00    -0.055 A  
ENDBRANCH  10  11
BRANCH  10  19
HETATM   19  C   UNL     1      -9.052   6.476  72.829  1.00  0.00    -0.136 C  
BRANCH  19  20
HETATM   20  N   UNL     1      -9.925   5.349  73.087  1.00  0.00    -0.165 NA 
HETATM   21  C   UNL     1      -9.533   4.078  73.406  1.00  0.00    -0.110 A  
HETATM   22  N   UNL     1     -11.787   4.193  73.366  1.00  0.00    -0.013 NA 
HETATM   23  C   UNL     1     -10.705   3.369  73.525  1.00  0.00    -0.214 A  
HETATM   24  C   UNL     1     -11.287   5.384  73.129  1.00  0.00    -0.263 A  
ENDBRANCH  19  20
ENDBRANCH  10  19
ENDBRANCH   9  10
ENDBRANCH   8   9
ENDBRANCH   5   8
TORSDOF 6
ENDMDL
MODEL      290
REMARK 921   NORMALIZED FREE ENERGY PREDICTED BY IDOCK:   -2.45 KCAL/MOL
REMARK 922        TOTAL FREE ENERGY PREDICTED BY IDOCK:   -4.43 KCAL/MOL
REMARK 923 INTER-LIGAND FREE ENERGY PREDICTED BY IDOCK:   -3.57 KCAL/MOL
REMARK 924 INTRA-LIGAND FREE ENERGY PREDICTED BY IDOCK:   -0.86 KCAL/MOL
REMARK 927      BINDING AFFINITY PREDICTED BY RF-SCORE:    0.00 PKD
ROOT
HETATM    1 CL   UNL     1     -10.263   3.779  63.695  1.00  0.00    -0.198 Cl 
HETATM    2  C   UNL     1      -9.257   4.105  65.051  1.00  0.00    -0.154 A  
HETATM    3  C   UNL     1      -8.522   5.286  65.104  1.00  0.00    -0.149 A  
HETATM    4  C   UNL     1      -7.695   5.540  66.202  1.00  0.00    -0.095 A  
HETATM    5  C   UNL     1      -7.598   4.613  67.254  1.00  0.00    -0.086 A  
HETATM    6  C   UNL     1      -8.348   3.431  67.187  1.00  0.00    -0.093 A  
HETATM    7  C   UNL     1      -9.176   3.180  66.090  1.00  0.00    -0.135 A  
ENDROOT
BRANCH   5   8
HETATM    8  C   UNL     1      -6.654   4.862  68.407  1.00  0.00    -0.049 C  
BRANCH   8   9
HETATM    9  O   UNL     1      -7.296   4.499  69.622  1.00  0.00    -0.050 OA 
BRANCH   9  10
HETATM   10  C   UNL     1      -8.310   5.412  70.099  1.00  0.00    -0.114 C  
BRANCH  10  11
HETATM   11  C   UNL     1      -7.693   6.305  71.190  1.00  0.00    -0.102 A  
HETATM   12  C   UNL     1      -6.572   8.040  73.133  1.00  0.00    -0.085 A  
HETATM   13  C   UNL     1      -7.131   5.808  72.385  1.00  0.00    -0.085 A  
HETATM   14  C   UNL     1      -7.711   7.710  71.035  1.00  0.00    -0.088 A  
HETATM   15  C   UNL     1      -6.549   6.666  73.332  1.00  0.00    -0.065 A  
HETATM   16 CL   UNL     1      -5.888   9.089  74.313  1.00  0.00    -0.131 Cl 
HETATM   17 CL   UNL     1      -7.161   4.133  72.811  1.00  0.00    -0.060 Cl 
HETATM   18  C   UNL     1      -7.166   8.568  71.997  1.00  0.00    -0.108 A  
ENDBRANCH  10  11
BRANCH  10  19
HETATM   19  C   UNL     1      -9.588   4.636  70.508  1.00  0.00    -0.198 C  
BRANCH  19  20
HETATM   20  N   UNL     1     -10.700   5.483  70.887  1.00  0.00    -0.241 NA 
HETATM   21  C   UNL     1     -11.232   5.606  72.141  1.00  0.00    -0.227 A  
HETATM   22  N   UNL     1     -12.333   6.960  70.708  1.00  0.00    -0.337 NA 
HETATM   23  C   UNL     1     -12.274   6.491  71.993  1.00  0.00    -0.295 A  
HETATM   24  C   UNL     1     -11.357   6.355  70.072  1.00  0.00    -0.430 A  
ENDBRANCH  19  20
ENDBRANCH  10  19
ENDBRANCH   9  10
ENDBRANCH   8   9
ENDBRANCH   5   8
TORSDOF 6
ENDMDL
MODEL      291
REMARK 921   NORMALIZED FREE ENERGY PREDICTED BY IDOCK:   -2.41 KCAL/MOL
REMARK 922        TOTAL FREE ENERGY PREDICTED BY IDOCK:   -4.39 KCAL/MOL
REMARK 923 INTER-LIGAND FREE ENERGY PREDICTED BY IDOCK:   -3.75 KCAL/MOL
REMARK 924 INTRA-LIGAND FREE ENERGY PREDICTED BY IDOCK:   -0.64 KCAL/MOL
REMARK 927      BINDING AFFINITY PREDICTED BY RF-SCORE:    0.00 PKD
ROOT
HETATM    1 CL   UNL     1      -5.126  15.782  72.426  1.00  0.00     0.257 Cl 
HETATM    2  C   UNL     1      -5.932  15.355  70.967  1.00  0.00     0.269 A  
HETATM    3  C   UNL     1      -5.774  16.141  69.830  1.00  0.00    -0.172 A  
HETATM    4  C   UNL     1      -6.442  15.797  68.651  1.00  0.00    -0.111 A  
HETATM    5  C   UNL     1      -7.272  14.666  68.603  1.00  0.00    -0.122 A  
HETATM    6  C   UNL     1      -7.417  13.882  69.757  1.00  0.00     0.502 A  
HETATM    7  C   UNL     1      -6.746  14.225  70.933  1.00  0.00     0.486 A  
ENDROOT
BRANCH   5   8
HETATM    8  C   UNL     1      -8.043  14.335  67.347  1.00  0.00    -0.196 C  
BRANCH   8   9
HETATM    9  O   UNL     1      -9.316  13.813  67.705  1.00  0.00    -0.199 OA 
BRANCH   9  10
HETATM   10  C   UNL     1     -10.431  14.257  66.900  1.00  0.00    -0.272 C  
BRANCH  10  11
HETATM   11  C   UNL     1     -10.408  15.794  66.831  1.00  0.00    -0.295 A  
HETATM   12  C   UNL     1     -10.365  18.619  66.591  1.00  0.00    -0.415 A  
HETATM   13  C   UNL     1     -10.262  16.627  67.960  1.00  0.00    -0.280 A  
HETATM   14  C   UNL     1     -10.579  16.440  65.585  1.00  0.00    -0.337 A  
HETATM   15  C   UNL     1     -10.210  18.024  67.836  1.00  0.00    -0.386 A  
HETATM   16 CL   UNL     1     -10.336  20.333  66.450  1.00  0.00    -0.492 Cl 
HETATM   17 CL   UNL     1     -10.194  16.016  69.576  1.00  0.00    -0.262 Cl 
HETATM   18  C   UNL     1     -10.567  17.834  65.466  1.00  0.00    -0.044 A  
ENDBRANCH  10  11
BRANCH  10  19
HETATM   19  C   UNL     1     -11.753  13.627  67.412  1.00  0.00    -0.381 C  
BRANCH  19  20
HETATM   20  N   UNL     1     -11.592  12.323  68.019  1.00  0.00    -0.329 NA 
HETATM   21  C   UNL     1     -11.352  11.148  67.360  1.00  0.00    -0.255 A  
HETATM   22  N   UNL     1     -11.436  10.771  69.585  1.00  0.00    -0.278 NA 
HETATM   23  C   UNL     1     -11.309  10.194  68.349  1.00  0.00    -0.113 A  
HETATM   24  C   UNL     1     -11.580  12.056  69.355  1.00  0.00    -0.330 A  
ENDBRANCH  19  20
ENDBRANCH  10  19
ENDBRANCH   9  10
ENDBRANCH   8   9
ENDBRANCH   5   8
TORSDOF 6
ENDMDL
MODEL      292
REMARK 921   NORMALIZED FREE ENERGY PREDICTED BY IDOCK:   -2.40 KCAL/MOL
REMARK 922        TOTAL FREE ENERGY PREDICTED BY IDOCK:   -4.37 KCAL/MOL
REMARK 923 INTER-LIGAND FREE ENERGY PREDICTED BY IDOCK:   -3.62 KCAL/MOL
REMARK 924 INTRA-LIGAND FREE ENERGY PREDICTED BY IDOCK:   -0.75 KCAL/MOL
REMARK 927      BINDING AFFINITY PREDICTED BY RF-SCORE:    0.00 PKD
ROOT
HETATM    1 CL   UNL     1      -5.297  14.723  71.652  1.00  0.00    -0.121 Cl 
HETATM    2  C   UNL     1      -5.768  13.862  70.240  1.00  0.00    -0.139 A  
HETATM    3  C   UNL     1      -6.043  14.554  69.064  1.00  0.00    -0.090 A  
HETATM    4  C   UNL     1      -6.438  13.850  67.922  1.00  0.00    -0.168 A  
HETATM    5  C   UNL     1      -6.561  12.451  67.951  1.00  0.00    -0.097 A  
HETATM    6  C   UNL     1      -6.277  11.770  69.143  1.00  0.00    -0.083 A  
HETATM    7  C   UNL     1      -5.878  12.474  70.281  1.00  0.00    -0.159 A  
ENDROOT
BRANCH   5   8
HETATM    8  C   UNL     1      -7.052  11.702  66.734  1.00  0.00    -0.083 C  
BRANCH   8   9
HETATM    9  O   UNL     1      -7.931  10.664  67.149  1.00  0.00    -0.117 OA 
BRANCH   9  10
HETATM   10  C   UNL     1      -9.152  10.528  66.388  1.00  0.00    -0.162 C  
BRANCH  10  11
HETATM   11  C   UNL     1      -9.785  11.921  66.219  1.00  0.00    -0.247 A  
HETATM   12  C   UNL     1     -10.937  14.478  65.798  1.00  0.00    -0.319 A  
HETATM   13  C   UNL     1     -10.153  12.751  67.300  1.00  0.00    -0.226 A  
HETATM   14  C   UNL     1     -10.065  12.409  64.922  1.00  0.00    -0.259 A  
HETATM   15  C   UNL     1     -10.694  14.029  67.090  1.00  0.00    -0.283 A  
HETATM   16 CL   UNL     1     -11.632  16.031  65.547  1.00  0.00     0.314 Cl 
HETATM   17 CL   UNL     1     -10.027  12.254  68.951  1.00  0.00    -0.037 Cl 
HETATM   18  C   UNL     1     -10.641  13.668  64.713  1.00  0.00    -0.436 A  
ENDBRANCH  10  11
BRANCH  10  19
HETATM   19  C   UNL     1     -10.066   9.447  67.019  1.00  0.00    -0.240 C  
BRANCH  19  20
HETATM   20  N   UNL     1      -9.412   8.627  68.018  1.00  0.00    -0.139 NA 
HETATM   21  C   UNL     1      -9.175   8.975  69.320  1.00  0.00    -0.145 A  
HETATM   22  N   UNL     1      -8.416   6.883  68.939  1.00  0.00    -0.125 NA 
HETATM   23  C   UNL     1      -8.512   7.896  69.856  1.00  0.00    -0.127 A  
HETATM   24  C   UNL     1      -8.989   7.343  67.850  1.00  0.00    -0.131 A  
ENDBRANCH  19  20
ENDBRANCH  10  19
ENDBRANCH   9  10
ENDBRANCH   8   9
ENDBRANCH   5   8
TORSDOF 6
ENDMDL
MODEL      293
REMARK 921   NORMALIZED FREE ENERGY PREDICTED BY IDOCK:   -2.40 KCAL/MOL
REMARK 922        TOTAL FREE ENERGY PREDICTED BY IDOCK:   -4.37 KCAL/MOL
REMARK 923 INTER-LIGAND FREE ENERGY PREDICTED BY IDOCK:   -3.98 KCAL/MOL
REMARK 924 INTRA-LIGAND FREE ENERGY PREDICTED BY IDOCK:   -0.39 KCAL/MOL
REMARK 927      BINDING AFFINITY PREDICTED BY RF-SCORE:    0.00 PKD
ROOT
HETATM    1 CL   UNL     1     -10.304   6.378  73.413  1.00  0.00    -0.239 Cl 
HETATM    2  C   UNL     1      -9.580   7.462  72.291  1.00  0.00    -0.151 A  
HETATM    3  C   UNL     1      -8.194   7.527  72.184  1.00  0.00    -0.118 A  
HETATM    4  C   UNL     1      -7.610   8.420  71.280  1.00  0.00    -0.100 A  
HETATM    5  C   UNL     1      -8.409   9.252  70.479  1.00  0.00    -0.237 A  
HETATM    6  C   UNL     1      -9.803   9.171  70.597  1.00  0.00    -0.308 A  
HETATM    7  C   UNL     1     -10.385   8.276  71.498  1.00  0.00    -0.276 A  
ENDROOT
BRANCH   5   8
HETATM    8  C   UNL     1      -7.773  10.261  69.551  1.00  0.00    -0.165 C  
BRANCH   8   9
HETATM    9  O   UNL     1      -8.429  10.214  68.291  1.00  0.00    -0.112 OA 
BRANCH   9  10
HETATM   10  C   UNL     1      -7.860  11.039  67.250  1.00  0.00    -0.122 C  
BRANCH  10  11
HETATM   11  C   UNL     1      -8.925  12.047  66.783  1.00  0.00    -0.198 A  
HETATM   12  C   UNL     1     -10.832  13.985  65.977  1.00  0.00    -0.295 A  
HETATM   13  C   UNL     1     -10.089  11.685  66.072  1.00  0.00    -0.224 A  
HETATM   14  C   UNL     1      -8.737  13.427  67.028  1.00  0.00    -0.195 A  
HETATM   15  C   UNL     1     -11.047  12.641  65.701  1.00  0.00    -0.327 A  
HETATM   16 CL   UNL     1     -11.993  15.157  65.489  1.00  0.00     0.007 Cl 
HETATM   17 CL   UNL     1     -10.406  10.067  65.552  1.00  0.00    -0.248 Cl 
HETATM   18  C   UNL     1      -9.673  14.385  66.624  1.00  0.00    -0.289 A  
ENDBRANCH  10  11
BRANCH  10  19
HETATM   19  C   UNL     1      -7.238  10.155  66.139  1.00  0.00    -0.115 C  
BRANCH  19  20
HETATM   20  N   UNL     1      -6.702   8.896  66.613  1.00  0.00    -0.071 NA 
HETATM   21  C   UNL     1      -5.415   8.665  67.014  1.00  0.00    -0.037 A  
HETATM   22  N   UNL     1      -6.630   6.774  67.226  1.00  0.00    -0.052 NA 
HETATM   23  C   UNL     1      -5.384   7.330  67.342  1.00  0.00    -0.021 A  
HETATM   24  C   UNL     1      -7.408   7.747  66.809  1.00  0.00    -0.089 A  
ENDBRANCH  19  20
ENDBRANCH  10  19
ENDBRANCH   9  10
ENDBRANCH   8   9
ENDBRANCH   5   8
TORSDOF 6
ENDMDL
MODEL      294
REMARK 921   NORMALIZED FREE ENERGY PREDICTED BY IDOCK:   -2.37 KCAL/MOL
REMARK 922        TOTAL FREE ENERGY PREDICTED BY IDOCK:   -4.32 KCAL/MOL
REMARK 923 INTER-LIGAND FREE ENERGY PREDICTED BY IDOCK:   -3.36 KCAL/MOL
REMARK 924 INTRA-LIGAND FREE ENERGY PREDICTED BY IDOCK:   -0.96 KCAL/MOL
REMARK 927      BINDING AFFINITY PREDICTED BY RF-SCORE:    0.00 PKD
ROOT
HETATM    1 CL   UNL     1      -9.046   2.274  69.485  1.00  0.00    -0.165 Cl 
HETATM    2  C   UNL     1      -8.279   3.625  68.747  1.00  0.00    -0.072 A  
HETATM    3  C   UNL     1      -7.101   3.447  68.026  1.00  0.00    -0.051 A  
HETATM    4  C   UNL     1      -6.474   4.550  67.439  1.00  0.00    -0.045 A  
HETATM    5  C   UNL     1      -7.021   5.837  67.571  1.00  0.00    -0.069 A  
HETATM    6  C   UNL     1      -8.210   5.998  68.297  1.00  0.00    -0.110 A  
HETATM    7  C   UNL     1      -8.837   4.894  68.879  1.00  0.00    -0.115 A  
ENDROOT
BRANCH   5   8
HETATM    8  C   UNL     1      -6.306   7.035  66.991  1.00  0.00    -0.048 C  
BRANCH   8   9
HETATM    9  O   UNL     1      -7.249   7.863  66.323  1.00  0.00    -0.072 OA 
BRANCH   9  10
HETATM   10  C   UNL     1      -7.151   9.279  66.593  1.00  0.00    -0.082 C  
BRANCH  10  11
HETATM   11  C   UNL     1      -8.434   9.733  67.312  1.00  0.00    -0.125 A  
HETATM   12  C   UNL     1     -10.856  10.499  68.572  1.00  0.00    -0.234 A  
HETATM   13  C   UNL     1      -8.473  10.778  68.259  1.00  0.00    -0.130 A  
HETATM   14  C   UNL     1      -9.652   9.059  67.062  1.00  0.00    -0.231 A  
HETATM   15  C   UNL     1      -9.678  11.176  68.860  1.00  0.00    -0.163 A  
HETATM   16 CL   UNL     1     -12.324  10.969  69.337  1.00  0.00    -0.329 Cl 
HETATM   17 CL   UNL     1      -7.057  11.608  68.801  1.00  0.00    -0.099 Cl 
HETATM   18  C   UNL     1     -10.846   9.431  67.689  1.00  0.00    -0.222 A  
ENDBRANCH  10  11
BRANCH  10  19
HETATM   19  C   UNL     1      -6.796  10.054  65.299  1.00  0.00    -0.128 C  
BRANCH  19  20
HETATM   20  N   UNL     1      -7.628   9.720  64.160  1.00  0.00    -0.129 NA 
HETATM   21  C   UNL     1      -8.685  10.450  63.689  1.00  0.00    -0.198 A  
HETATM   22  N   UNL     1      -8.385   8.622  62.399  1.00  0.00    -0.195 NA 
HETATM   23  C   UNL     1      -9.167   9.722  62.627  1.00  0.00    -0.243 A  
HETATM   24  C   UNL     1      -7.451   8.661  63.322  1.00  0.00    -0.106 A  
ENDBRANCH  19  20
ENDBRANCH  10  19
ENDBRANCH   9  10
ENDBRANCH   8   9
ENDBRANCH   5   8
TORSDOF 6
ENDMDL
MODEL      295
REMARK 921   NORMALIZED FREE ENERGY PREDICTED BY IDOCK:   -2.32 KCAL/MOL
REMARK 922        TOTAL FREE ENERGY PREDICTED BY IDOCK:   -4.26 KCAL/MOL
REMARK 923 INTER-LIGAND FREE ENERGY PREDICTED BY IDOCK:   -4.32 KCAL/MOL
REMARK 924 INTRA-LIGAND FREE ENERGY PREDICTED BY IDOCK:    0.06 KCAL/MOL
REMARK 927      BINDING AFFINITY PREDICTED BY RF-SCORE:    0.00 PKD
ROOT
HETATM    1 CL   UNL     1     -13.015  13.124  64.717  1.00  0.00    -0.276 Cl 
HETATM    2  C   UNL     1     -11.744  12.077  65.212  1.00  0.00    -0.252 A  
HETATM    3  C   UNL     1     -11.489  11.886  66.567  1.00  0.00    -0.381 A  
HETATM    4  C   UNL     1     -10.446  11.043  66.965  1.00  0.00    -0.284 A  
HETATM    5  C   UNL     1      -9.652  10.389  66.009  1.00  0.00    -0.251 A  
HETATM    6  C   UNL     1      -9.925  10.589  64.649  1.00  0.00    -0.415 A  
HETATM    7  C   UNL     1     -10.969  11.428  64.253  1.00  0.00    -0.390 A  
ENDROOT
BRANCH   5   8
HETATM    8  C   UNL     1      -8.485   9.532  66.442  1.00  0.00    -0.126 C  
BRANCH   8   9
HETATM    9  O   UNL     1      -7.388  10.372  66.775  1.00  0.00    -0.102 OA 
BRANCH   9  10
HETATM   10  C   UNL     1      -7.258  10.721  68.171  1.00  0.00    -0.083 C  
BRANCH  10  11
HETATM   11  C   UNL     1      -7.855   9.584  69.020  1.00  0.00    -0.077 A  
HETATM   12  C   UNL     1      -9.028   7.562  70.626  1.00  0.00    -0.154 A  
HETATM   13  C   UNL     1      -7.300   8.288  69.095  1.00  0.00    -0.081 A  
HETATM   14  C   UNL     1      -9.047   9.805  69.746  1.00  0.00    -0.246 A  
HETATM   15  C   UNL     1      -7.864   7.297  69.914  1.00  0.00    -0.112 A  
HETATM   16 CL   UNL     1      -9.734   6.333  71.601  1.00  0.00    -0.174 Cl 
HETATM   17 CL   UNL     1      -5.935   7.795  68.157  1.00  0.00    -0.039 Cl 
HETATM   18  C   UNL     1      -9.632   8.806  70.532  1.00  0.00    -0.226 A  
ENDBRANCH  10  11
BRANCH  10  19
HETATM   19  C   UNL     1      -7.842  12.132  68.434  1.00  0.00    -0.149 C  
BRANCH  19  20
HETATM   20  N   UNL     1      -6.974  13.000  69.202  1.00  0.00    -0.065 NA 
HETATM   21  C   UNL     1      -5.764  12.661  69.742  1.00  0.00    -0.112 A  
HETATM   22  N   UNL     1      -6.222  14.824  70.198  1.00  0.00    -0.158 NA 
HETATM   23  C   UNL     1      -5.342  13.795  70.395  1.00  0.00    -0.116 A  
HETATM   24  C   UNL     1      -7.182  14.323  69.454  1.00  0.00    -0.051 A  
ENDBRANCH  19  20
ENDBRANCH  10  19
ENDBRANCH   9  10
ENDBRANCH   8   9
ENDBRANCH   5   8
TORSDOF 6
ENDMDL
MODEL      296
REMARK 921   NORMALIZED FREE ENERGY PREDICTED BY IDOCK:   -2.32 KCAL/MOL
REMARK 922        TOTAL FREE ENERGY PREDICTED BY IDOCK:   -4.26 KCAL/MOL
REMARK 923 INTER-LIGAND FREE ENERGY PREDICTED BY IDOCK:   -4.24 KCAL/MOL
REMARK 924 INTRA-LIGAND FREE ENERGY PREDICTED BY IDOCK:   -0.02 KCAL/MOL
REMARK 927      BINDING AFFINITY PREDICTED BY RF-SCORE:    0.00 PKD
ROOT
HETATM    1 CL   UNL     1      -5.395  11.749  69.130  1.00  0.00    -0.047 Cl 
HETATM    2  C   UNL     1      -6.808  10.846  68.748  1.00  0.00    -0.070 A  
HETATM    3  C   UNL     1      -7.165  10.643  67.418  1.00  0.00    -0.092 A  
HETATM    4  C   UNL     1      -8.322   9.919  67.113  1.00  0.00    -0.121 A  
HETATM    5  C   UNL     1      -9.129   9.396  68.137  1.00  0.00    -0.129 A  
HETATM    6  C   UNL     1      -8.752   9.606  69.471  1.00  0.00    -0.191 A  
HETATM    7  C   UNL     1      -7.594  10.326  69.774  1.00  0.00    -0.168 A  
ENDROOT
BRANCH   5   8
HETATM    8  C   UNL     1     -10.412   8.671  67.804  1.00  0.00    -0.224 C  
BRANCH   8   9
HETATM    9  O   UNL     1     -10.131   7.625  66.883  1.00  0.00    -0.232 OA 
BRANCH   9  10
HETATM   10  C   UNL     1     -10.318   6.280  67.377  1.00  0.00    -0.211 C  
BRANCH  10  11
HETATM   11  C   UNL     1     -10.378   6.323  68.914  1.00  0.00    -0.246 A  
HETATM   12  C   UNL     1     -10.596   6.430  71.739  1.00  0.00    -0.220 A  
HETATM   13  C   UNL     1      -9.249   6.171  69.746  1.00  0.00    -0.144 A  
HETATM   14  C   UNL     1     -11.625   6.483  69.560  1.00  0.00    -0.298 A  
HETATM   15  C   UNL     1      -9.354   6.255  71.144  1.00  0.00    -0.169 A  
HETATM   16 CL   UNL     1     -10.724   6.498  73.453  1.00  0.00    -0.294 Cl 
HETATM   17 CL   UNL     1      -7.671   5.815  69.135  1.00  0.00    -0.088 Cl 
HETATM   18  C   UNL     1     -11.736   6.527  70.955  1.00  0.00    -0.416 A  
ENDBRANCH  10  11
BRANCH  10  19
HETATM   19  C   UNL     1      -9.253   5.329  66.772  1.00  0.00    -0.126 C  
BRANCH  19  20
HETATM   20  N   UNL     1      -9.580   4.836  65.450  1.00  0.00    -0.161 NA 
HETATM   21  C   UNL     1     -10.771   4.285  65.064  1.00  0.00    -0.111 A  
HETATM   22  N   UNL     1      -9.357   4.352  63.305  1.00  0.00    -0.135 NA 
HETATM   23  C   UNL     1     -10.589   3.948  63.743  1.00  0.00    -0.205 A  
HETATM   24  C   UNL     1      -8.781   4.907  64.348  1.00  0.00    -0.140 A  
ENDBRANCH  19  20
ENDBRANCH  10  19
ENDBRANCH   9  10
ENDBRANCH   8   9
ENDBRANCH   5   8
TORSDOF 6
ENDMDL
MODEL      297
REMARK 921   NORMALIZED FREE ENERGY PREDICTED BY IDOCK:   -2.25 KCAL/MOL
REMARK 922        TOTAL FREE ENERGY PREDICTED BY IDOCK:   -4.17 KCAL/MOL
REMARK 923 INTER-LIGAND FREE ENERGY PREDICTED BY IDOCK:   -4.19 KCAL/MOL
REMARK 924 INTRA-LIGAND FREE ENERGY PREDICTED BY IDOCK:    0.02 KCAL/MOL
REMARK 927      BINDING AFFINITY PREDICTED BY RF-SCORE:    0.00 PKD
ROOT
HETATM    1 CL   UNL     1     -12.628   8.862  72.405  1.00  0.00    -0.444 Cl 
HETATM    2  C   UNL     1     -11.912   9.716  71.095  1.00  0.00    -0.367 A  
HETATM    3  C   UNL     1     -11.176   9.027  70.135  1.00  0.00    -0.191 A  
HETATM    4  C   UNL     1     -10.584   9.727  69.080  1.00  0.00    -0.238 A  
HETATM    5  C   UNL     1     -10.725  11.121  68.978  1.00  0.00    -0.265 A  
HETATM    6  C   UNL     1     -11.473  11.799  69.951  1.00  0.00    -0.285 A  
HETATM    7  C   UNL     1     -12.067  11.098  71.003  1.00  0.00    -0.380 A  
ENDROOT
BRANCH   5   8
HETATM    8  C   UNL     1     -10.030  11.882  67.873  1.00  0.00    -0.191 C  
BRANCH   8   9
HETATM    9  O   UNL     1      -9.318  12.976  68.437  1.00  0.00    -0.206 OA 
BRANCH   9  10
HETATM   10  C   UNL     1      -9.429  14.233  67.734  1.00  0.00    -0.216 C  
BRANCH  10  11
HETATM   11  C   UNL     1      -8.451  15.239  68.366  1.00  0.00    -0.158 A  
HETATM   12  C   UNL     1      -6.588  17.008  69.567  1.00  0.00    -0.194 A  
HETATM   13  C   UNL     1      -8.679  16.631  68.410  1.00  0.00    -0.225 A  
HETATM   14  C   UNL     1      -7.228  14.780  68.907  1.00  0.00    -0.126 A  
HETATM   15  C   UNL     1      -7.770  17.502  69.032  1.00  0.00    -0.139 A  
HETATM   16 CL   UNL     1      -5.461  18.083  70.297  1.00  0.00    -0.244 Cl 
HETATM   17 CL   UNL     1     -10.045  17.383  67.664  1.00  0.00    -0.314 Cl 
HETATM   18  C   UNL     1      -6.303  15.653  69.492  1.00  0.00    -0.166 A  
ENDBRANCH  10  11
BRANCH  10  19
HETATM   19  C   UNL     1     -10.909  14.686  67.666  1.00  0.00    -0.284 C  
BRANCH  19  20
HETATM   20  N   UNL     1     -11.370  15.012  66.332  1.00  0.00    -0.317 NA 
HETATM   21  C   UNL     1     -10.615  14.999  65.190  1.00  0.00    -0.418 A  
HETATM   22  N   UNL     1     -12.739  15.583  64.694  1.00  0.00     0.177 NA 
HETATM   23  C   UNL     1     -11.476  15.405  64.197  1.00  0.00    -0.028 A  
HETATM   24  C   UNL     1     -12.650  15.315  65.977  1.00  0.00     1.026 A  
ENDBRANCH  19  20
ENDBRANCH  10  19
ENDBRANCH   9  10
ENDBRANCH   8   9
ENDBRANCH   5   8
TORSDOF 6
ENDMDL
MODEL      298
REMARK 921   NORMALIZED FREE ENERGY PREDICTED BY IDOCK:   -2.16 KCAL/MOL
REMARK 922        TOTAL FREE ENERGY PREDICTED BY IDOCK:   -4.04 KCAL/MOL
REMARK 923 INTER-LIGAND FREE ENERGY PREDICTED BY IDOCK:   -3.28 KCAL/MOL
REMARK 924 INTRA-LIGAND FREE ENERGY PREDICTED BY IDOCK:   -0.76 KCAL/MOL
REMARK 927      BINDING AFFINITY PREDICTED BY RF-SCORE:    0.00 PKD
ROOT
HETATM    1 CL   UNL     1     -11.715   9.051  72.678  1.00  0.00    -0.004 Cl 
HETATM    2  C   UNL     1     -10.900   8.935  71.168  1.00  0.00    -0.281 A  
HETATM    3  C   UNL     1      -9.736   8.180  71.063  1.00  0.00    -0.193 A  
HETATM    4  C   UNL     1      -9.070   8.100  69.836  1.00  0.00    -0.151 A  
HETATM    5  C   UNL     1      -9.564   8.776  68.709  1.00  0.00    -0.160 A  
HETATM    6  C   UNL     1     -10.740   9.529  68.831  1.00  0.00    -0.220 A  
HETATM    7  C   UNL     1     -11.406   9.605  70.056  1.00  0.00    -0.239 A  
ENDROOT
BRANCH   5   8
HETATM    8  C   UNL     1      -8.805   8.741  67.403  1.00  0.00    -0.133 C  
BRANCH   8   9
HETATM    9  O   UNL     1      -9.495   7.900  66.486  1.00  0.00    -0.196 OA 
BRANCH   9  10
HETATM   10  C   UNL     1      -8.723   7.424  65.361  1.00  0.00     0.030 C  
BRANCH  10  11
HETATM   11  C   UNL     1      -8.216   6.005  65.677  1.00  0.00    -0.139 A  
HETATM   12  C   UNL     1      -7.178   3.431  66.256  1.00  0.00    -0.067 A  
HETATM   13  C   UNL     1      -9.054   4.872  65.746  1.00  0.00    -0.148 A  
HETATM   14  C   UNL     1      -6.846   5.799  65.957  1.00  0.00    -0.058 A  
HETATM   15  C   UNL     1      -8.534   3.593  66.003  1.00  0.00    -0.111 A  
HETATM   16 CL   UNL     1      -6.551   1.867  66.604  1.00  0.00    -0.030 Cl 
HETATM   17 CL   UNL     1     -10.772   4.962  65.583  1.00  0.00    -0.219 Cl 
HETATM   18  C   UNL     1      -6.333   4.531  66.252  1.00  0.00    -0.036 A  
ENDBRANCH  10  11
BRANCH  10  19
HETATM   19  C   UNL     1      -7.634   8.456  64.975  1.00  0.00    -0.094 C  
BRANCH  19  20
HETATM   20  N   UNL     1      -8.063   9.435  63.998  1.00  0.00    -0.140 NA 
HETATM   21  C   UNL     1      -9.356   9.785  63.718  1.00  0.00    -0.120 A  
HETATM   22  N   UNL     1      -7.944  10.996  62.438  1.00  0.00    -0.147 NA 
HETATM   23  C   UNL     1      -9.256  10.718  62.713  1.00  0.00    -0.327 A  
HETATM   24  C   UNL     1      -7.249  10.228  63.245  1.00  0.00    -0.102 A  
ENDBRANCH  19  20
ENDBRANCH  10  19
ENDBRANCH   9  10
ENDBRANCH   8   9
ENDBRANCH   5   8
TORSDOF 6
ENDMDL
MODEL      299
REMARK 921   NORMALIZED FREE ENERGY PREDICTED BY IDOCK:   -2.14 KCAL/MOL
REMARK 922        TOTAL FREE ENERGY PREDICTED BY IDOCK:   -4.02 KCAL/MOL
REMARK 923 INTER-LIGAND FREE ENERGY PREDICTED BY IDOCK:   -3.01 KCAL/MOL
REMARK 924 INTRA-LIGAND FREE ENERGY PREDICTED BY IDOCK:   -1.01 KCAL/MOL
REMARK 927      BINDING AFFINITY PREDICTED BY RF-SCORE:    0.00 PKD
ROOT
HETATM    1 CL   UNL     1      -5.244  15.711  72.500  1.00  0.00     0.277 Cl 
HETATM    2  C   UNL     1      -5.756  15.189  70.943  1.00  0.00    -0.022 A  
HETATM    3  C   UNL     1      -5.133  15.689  69.803  1.00  0.00    -0.099 A  
HETATM    4  C   UNL     1      -5.562  15.272  68.540  1.00  0.00    -0.096 A  
HETATM    5  C   UNL     1      -6.616  14.353  68.409  1.00  0.00    -0.104 A  
HETATM    6  C   UNL     1      -7.230  13.856  69.568  1.00  0.00     0.147 A  
HETATM    7  C   UNL     1      -6.797  14.271  70.830  1.00  0.00     0.546 A  
ENDROOT
BRANCH   5   8
HETATM    8  C   UNL     1      -7.120  13.955  67.042  1.00  0.00     0.592 C  
BRANCH   8   9
HETATM    9  O   UNL     1      -8.539  14.040  67.024  1.00  0.00    -0.213 OA 
BRANCH   9  10
HETATM   10  C   UNL     1      -9.104  14.996  66.099  1.00  0.00    -0.202 C  
BRANCH  10  11
HETATM   11  C   UNL     1      -9.387  16.306  66.857  1.00  0.00    -0.241 A  
HETATM   12  C   UNL     1     -10.006  18.676  68.286  1.00  0.00    -0.384 A  
HETATM   13  C   UNL     1      -8.563  17.449  66.779  1.00  0.00    -0.260 A  
HETATM   14  C   UNL     1     -10.505  16.388  67.718  1.00  0.00    -0.300 A  
HETATM   15  C   UNL     1      -8.888  18.631  67.463  1.00  0.00    -0.284 A  
HETATM   16 CL   UNL     1     -10.379  20.116  69.149  1.00  0.00    -0.278 Cl 
HETATM   17 CL   UNL     1      -7.076  17.478  65.898  1.00  0.00    -0.289 Cl 
HETATM   18  C   UNL     1     -10.807  17.553  68.431  1.00  0.00    -0.190 A  
ENDBRANCH  10  11
BRANCH  10  19
HETATM   19  C   UNL     1     -10.312  14.377  65.352  1.00  0.00    -0.378 C  
BRANCH  19  20
HETATM   20  N   UNL     1     -10.505  12.964  65.603  1.00  0.00    -0.273 NA 
HETATM   21  C   UNL     1      -9.655  11.955  65.242  1.00  0.00    -0.138 A  
HETATM   22  N   UNL     1     -11.433  11.098  66.339  1.00  0.00    -0.196 NA 
HETATM   23  C   UNL     1     -10.277  10.805  65.666  1.00  0.00    -0.257 A  
HETATM   24  C   UNL     1     -11.531  12.408  66.307  1.00  0.00    -0.371 A  
ENDBRANCH  19  20
ENDBRANCH  10  19
ENDBRANCH   9  10
ENDBRANCH   8   9
ENDBRANCH   5   8
TORSDOF 6
ENDMDL
MODEL      300
REMARK 921   NORMALIZED FREE ENERGY PREDICTED BY IDOCK:   -2.05 KCAL/MOL
REMARK 922        TOTAL FREE ENERGY PREDICTED BY IDOCK:   -3.90 KCAL/MOL
REMARK 923 INTER-LIGAND FREE ENERGY PREDICTED BY IDOCK:   -3.98 KCAL/MOL
REMARK 924 INTRA-LIGAND FREE ENERGY PREDICTED BY IDOCK:    0.08 KCAL/MOL
REMARK 927      BINDING AFFINITY PREDICTED BY RF-SCORE:    0.00 PKD
ROOT
HETATM    1 CL   UNL     1      -5.177  13.407  68.157  1.00  0.00    -0.096 Cl 
HETATM    2  C   UNL     1      -6.869  13.162  68.348  1.00  0.00    -0.098 A  
HETATM    3  C   UNL     1      -7.641  14.120  68.999  1.00  0.00    -0.058 A  
HETATM    4  C   UNL     1      -9.013  13.910  69.163  1.00  0.00     0.362 A  
HETATM    5  C   UNL     1      -9.621  12.740  68.678  1.00  0.00    -0.028 A  
HETATM    6  C   UNL     1      -8.830  11.787  68.021  1.00  0.00    -0.164 A  
HETATM    7  C   UNL     1      -7.459  12.000  67.854  1.00  0.00    -0.114 A  
ENDROOT
BRANCH   5   8
HETATM    8  C   UNL     1     -11.091  12.487  68.916  1.00  0.00    -0.260 C  
BRANCH   8   9
HETATM    9  O   UNL     1     -11.853  13.400  68.136  1.00  0.00    -0.339 OA 
BRANCH   9  10
HETATM   10  C   UNL     1     -11.198  13.931  66.963  1.00  0.00    -0.313 C  
BRANCH  10  11
HETATM   11  C   UNL     1     -11.058  15.455  67.123  1.00  0.00    -0.291 A  
HETATM   12  C   UNL     1     -10.853  18.256  67.517  1.00  0.00    -0.253 A  
HETATM   13  C   UNL     1     -10.549  16.305  66.119  1.00  0.00    -0.267 A  
HETATM   14  C   UNL     1     -11.415  16.065  68.348  1.00  0.00    -0.331 A  
HETATM   15  C   UNL     1     -10.476  17.695  66.304  1.00  0.00    -0.292 A  
HETATM   16 CL   UNL     1     -10.730  19.956  67.751  1.00  0.00    -0.452 Cl 
HETATM   17 CL   UNL     1      -9.923  15.716  64.619  1.00  0.00     0.513 Cl 
HETATM   18  C   UNL     1     -11.306  17.445  68.547  1.00  0.00     0.499 A  
ENDBRANCH  10  11
BRANCH  10  19
HETATM   19  C   UNL     1     -11.921  13.454  65.677  1.00  0.00    -0.401 C  
BRANCH  19  20
HETATM   20  N   UNL     1     -11.151  12.528  64.872  1.00  0.00    -0.290 NA 
HETATM   21  C   UNL     1     -10.723  11.286  65.255  1.00  0.00    -0.237 A  
HETATM   22  N   UNL     1     -10.075  11.694  63.131  1.00  0.00    -0.402 NA 
HETATM   23  C   UNL     1     -10.016  10.811  64.176  1.00  0.00    -0.343 A  
HETATM   24  C   UNL     1     -10.786  12.707  63.572  1.00  0.00    -0.329 A  
ENDBRANCH  19  20
ENDBRANCH  10  19
ENDBRANCH   9  10
ENDBRANCH   8   9
ENDBRANCH   5   8
TORSDOF 6
ENDMDL
MODEL      301
REMARK 921   NORMALIZED FREE ENERGY PREDICTED BY IDOCK:   -2.04 KCAL/MOL
REMARK 922        TOTAL FREE ENERGY PREDICTED BY IDOCK:   -3.89 KCAL/MOL
REMARK 923 INTER-LIGAND FREE ENERGY PREDICTED BY IDOCK:   -4.51 KCAL/MOL
REMARK 924 INTRA-LIGAND FREE ENERGY PREDICTED BY IDOCK:    0.62 KCAL/MOL
REMARK 927      BINDING AFFINITY PREDICTED BY RF-SCORE:    0.00 PKD
ROOT
HETATM    1 CL   UNL     1      -5.132  11.887  67.110  1.00  0.00    -0.100 Cl 
HETATM    2  C   UNL     1      -6.418  12.885  67.666  1.00  0.00    -0.157 A  
HETATM    3  C   UNL     1      -6.690  14.090  67.024  1.00  0.00     0.837 A  
HETATM    4  C   UNL     1      -7.728  14.903  67.489  1.00  0.00    -0.214 A  
HETATM    5  C   UNL     1      -8.498  14.517  68.598  1.00  0.00    -0.161 A  
HETATM    6  C   UNL     1      -8.213  13.298  69.230  1.00  0.00     0.677 A  
HETATM    7  C   UNL     1      -7.179  12.485  68.762  1.00  0.00    -0.089 A  
ENDROOT
BRANCH   5   8
HETATM    8  C   UNL     1      -9.575  15.429  69.136  1.00  0.00    -0.253 C  
BRANCH   8   9
HETATM    9  O   UNL     1     -10.719  14.654  69.472  1.00  0.00    -0.236 OA 
BRANCH   9  10
HETATM   10  C   UNL     1     -11.487  14.144  68.360  1.00  0.00    -0.302 C  
BRANCH  10  11
HETATM   11  C   UNL     1     -11.266  12.624  68.264  1.00  0.00    -0.312 A  
HETATM   12  C   UNL     1     -10.815   9.838  67.985  1.00  0.00    -0.223 A  
HETATM   13  C   UNL     1     -11.711  11.704  69.237  1.00  0.00    -0.331 A  
HETATM   14  C   UNL     1     -10.544  12.090  67.172  1.00  0.00    -0.255 A  
HETATM   15  C   UNL     1     -11.514  10.323  69.083  1.00  0.00    -0.210 A  
HETATM   16 CL   UNL     1     -10.547   8.147  67.818  1.00  0.00    -0.266 Cl 
HETATM   17 CL   UNL     1     -12.474  12.192  70.710  1.00  0.00    -0.413 Cl 
HETATM   18  C   UNL     1     -10.314  10.716  67.037  1.00  0.00    -0.280 A  
ENDBRANCH  10  11
BRANCH  10  19
HETATM   19  C   UNL     1     -11.177  14.950  67.073  1.00  0.00    -0.344 C  
BRANCH  19  20
HETATM   20  N   UNL     1     -11.708  14.361  65.861  1.00  0.00    -0.367 NA 
HETATM   21  C   UNL     1     -11.022  14.150  64.696  1.00  0.00    -0.382 A  
HETATM   22  N   UNL     1     -13.142  13.407  64.477  1.00  0.00    -0.405 NA 
HETATM   23  C   UNL     1     -11.947  13.603  63.839  1.00  0.00    -0.408 A  
HETATM   24  C   UNL     1     -12.960  13.849  65.700  1.00  0.00    -0.315 A  
ENDBRANCH  19  20
ENDBRANCH  10  19
ENDBRANCH   9  10
ENDBRANCH   8   9
ENDBRANCH   5   8
TORSDOF 6
ENDMDL
MODEL      302
REMARK 921   NORMALIZED FREE ENERGY PREDICTED BY IDOCK:   -2.03 KCAL/MOL
REMARK 922        TOTAL FREE ENERGY PREDICTED BY IDOCK:   -3.88 KCAL/MOL
REMARK 923 INTER-LIGAND FREE ENERGY PREDICTED BY IDOCK:   -4.43 KCAL/MOL
REMARK 924 INTRA-LIGAND FREE ENERGY PREDICTED BY IDOCK:    0.55 KCAL/MOL
REMARK 927      BINDING AFFINITY PREDICTED BY RF-SCORE:    0.00 PKD
ROOT
HETATM    1 CL   UNL     1     -13.232  11.733  63.291  1.00  0.00    -0.074 Cl 
HETATM    2  C   UNL     1     -12.135  12.831  64.031  1.00  0.00    -0.457 A  
HETATM    3  C   UNL     1     -10.777  12.529  64.081  1.00  0.00    -0.423 A  
HETATM    4  C   UNL     1      -9.891  13.419  64.695  1.00  0.00     0.021 A  
HETATM    5  C   UNL     1     -10.358  14.615  65.264  1.00  0.00    -0.425 A  
HETATM    6  C   UNL     1     -11.728  14.906  65.201  1.00  0.00    -0.295 A  
HETATM    7  C   UNL     1     -12.612  14.017  64.583  1.00  0.00    -0.281 A  
ENDROOT
BRANCH   5   8
HETATM    8  C   UNL     1      -9.407  15.542  65.984  1.00  0.00    -0.344 C  
BRANCH   8   9
HETATM    9  O   UNL     1      -8.232  14.823  66.336  1.00  0.00     0.127 OA 
BRANCH   9  10
HETATM   10  C   UNL     1      -7.889  14.821  67.740  1.00  0.00    -0.151 C  
BRANCH  10  11
HETATM   11  C   UNL     1      -7.550  13.380  68.162  1.00  0.00    -0.138 A  
HETATM   12  C   UNL     1      -6.991  10.688  68.856  1.00  0.00    -0.073 A  
HETATM   13  C   UNL     1      -6.799  13.057  69.311  1.00  0.00    -0.019 A  
HETATM   14  C   UNL     1      -7.966  12.299  67.352  1.00  0.00    -0.171 A  
HETATM   15  C   UNL     1      -6.549  11.723  69.670  1.00  0.00    -0.081 A  
HETATM   16 CL   UNL     1      -6.653   9.056  69.283  1.00  0.00    -0.048 Cl 
HETATM   17 CL   UNL     1      -6.080  14.253  70.332  1.00  0.00    -0.171 Cl 
HETATM   18  C   UNL     1      -7.684  10.970  67.689  1.00  0.00    -0.112 A  
ENDBRANCH  10  11
BRANCH  10  19
HETATM   19  C   UNL     1      -8.995  15.522  68.569  1.00  0.00    -0.191 C  
BRANCH  19  20
HETATM   20  N   UNL     1     -10.186  14.722  68.765  1.00  0.00    -0.234 NA 
HETATM   21  C   UNL     1     -10.237  13.359  68.872  1.00  0.00    -0.037 A  
HETATM   22  N   UNL     1     -12.315  14.218  69.077  1.00  0.00    -0.213 NA 
HETATM   23  C   UNL     1     -11.573  13.069  69.015  1.00  0.00    -0.318 A  
HETATM   24  C   UNL     1     -11.450  15.198  68.949  1.00  0.00    -0.320 A  
ENDBRANCH  19  20
ENDBRANCH  10  19
ENDBRANCH   9  10
ENDBRANCH   8   9
ENDBRANCH   5   8
TORSDOF 6
ENDMDL
MODEL      303
REMARK 921   NORMALIZED FREE ENERGY PREDICTED BY IDOCK:   -1.99 KCAL/MOL
REMARK 922        TOTAL FREE ENERGY PREDICTED BY IDOCK:   -3.81 KCAL/MOL
REMARK 923 INTER-LIGAND FREE ENERGY PREDICTED BY IDOCK:   -3.01 KCAL/MOL
REMARK 924 INTRA-LIGAND FREE ENERGY PREDICTED BY IDOCK:   -0.80 KCAL/MOL
REMARK 927      BINDING AFFINITY PREDICTED BY RF-SCORE:    0.00 PKD
ROOT
HETATM    1 CL   UNL     1     -10.156  10.354  65.707  1.00  0.00    -0.327 Cl 
HETATM    2  C   UNL     1     -10.304   9.410  67.137  1.00  0.00    -0.258 A  
HETATM    3  C   UNL     1      -9.843   9.912  68.351  1.00  0.00    -0.166 A  
HETATM    4  C   UNL     1      -9.954   9.135  69.509  1.00  0.00    -0.193 A  
HETATM    5  C   UNL     1     -10.525   7.853  69.458  1.00  0.00    -0.226 A  
HETATM    6  C   UNL     1     -10.988   7.365  68.228  1.00  0.00     0.006 A  
HETATM    7  C   UNL     1     -10.880   8.144  67.074  1.00  0.00    -0.086 A  
ENDROOT
BRANCH   5   8
HETATM    8  C   UNL     1     -10.582   6.993  70.699  1.00  0.00    -0.225 C  
BRANCH   8   9
HETATM    9  O   UNL     1      -9.704   5.886  70.540  1.00  0.00    -0.168 OA 
BRANCH   9  10
HETATM   10  C   UNL     1      -8.311   6.137  70.827  1.00  0.00    -0.126 C  
BRANCH  10  11
HETATM   11  C   UNL     1      -7.586   6.461  69.508  1.00  0.00    -0.095 A  
HETATM   12  C   UNL     1      -6.200   7.143  67.130  1.00  0.00    -0.049 A  
HETATM   13  C   UNL     1      -7.863   5.818  68.283  1.00  0.00    -0.100 A  
HETATM   14  C   UNL     1      -6.553   7.426  69.497  1.00  0.00    -0.037 A  
HETATM   15  C   UNL     1      -7.198   6.178  67.101  1.00  0.00    -0.075 A  
HETATM   16 CL   UNL     1      -5.363   7.556  65.685  1.00  0.00    -0.028 Cl 
HETATM   17 CL   UNL     1      -8.985   4.510  68.142  1.00  0.00    -0.128 Cl 
HETATM   18  C   UNL     1      -5.861   7.757  68.326  1.00  0.00    -0.036 A  
ENDBRANCH  10  11
BRANCH  10  19
HETATM   19  C   UNL     1      -7.710   4.972  71.654  1.00  0.00    -0.106 C  
BRANCH  19  20
HETATM   20  N   UNL     1      -8.625   4.393  72.615  1.00  0.00    -0.108 NA 
HETATM   21  C   UNL     1      -9.566   3.433  72.359  1.00  0.00    -0.133 A  
HETATM   22  N   UNL     1      -9.616   3.985  74.548  1.00  0.00    -0.111 NA 
HETATM   23  C   UNL     1     -10.199   3.234  73.563  1.00  0.00    -0.133 A  
HETATM   24  C   UNL     1      -8.655   4.653  73.953  1.00  0.00    -0.103 A  
ENDBRANCH  19  20
ENDBRANCH  10  19
ENDBRANCH   9  10
ENDBRANCH   8   9
ENDBRANCH   5   8
TORSDOF 6
ENDMDL
MODEL      304
REMARK 921   NORMALIZED FREE ENERGY PREDICTED BY IDOCK:   -1.86 KCAL/MOL
REMARK 922        TOTAL FREE ENERGY PREDICTED BY IDOCK:   -3.64 KCAL/MOL
REMARK 923 INTER-LIGAND FREE ENERGY PREDICTED BY IDOCK:   -2.60 KCAL/MOL
REMARK 924 INTRA-LIGAND FREE ENERGY PREDICTED BY IDOCK:   -1.05 KCAL/MOL
REMARK 927      BINDING AFFINITY PREDICTED BY RF-SCORE:    0.00 PKD
ROOT
HETATM    1 CL   UNL     1     -11.000   4.167  64.542  1.00  0.00    -0.200 Cl 
HETATM    2  C   UNL     1      -9.559   4.148  65.482  1.00  0.00    -0.188 A  
HETATM    3  C   UNL     1      -8.955   5.346  65.853  1.00  0.00    -0.151 A  
HETATM    4  C   UNL     1      -7.777   5.324  66.605  1.00  0.00    -0.096 A  
HETATM    5  C   UNL     1      -7.197   4.105  66.991  1.00  0.00    -0.068 A  
HETATM    6  C   UNL     1      -7.821   2.907  66.613  1.00  0.00    -0.076 A  
HETATM    7  C   UNL     1      -9.000   2.931  65.864  1.00  0.00    -0.145 A  
ENDROOT
BRANCH   5   8
HETATM    8  C   UNL     1      -5.890   4.085  67.748  1.00  0.00    -0.023 C  
BRANCH   8   9
HETATM    9  O   UNL     1      -6.133   4.421  69.108  1.00  0.00    -0.025 OA 
BRANCH   9  10
HETATM   10  C   UNL     1      -7.395   3.976  69.653  1.00  0.00    -0.049 C  
BRANCH  10  11
HETATM   11  C   UNL     1      -8.054   5.153  70.394  1.00  0.00    -0.090 A  
HETATM   12  C   UNL     1      -9.174   7.334  71.820  1.00  0.00    -0.142 A  
HETATM   13  C   UNL     1      -9.400   5.537  70.215  1.00  0.00    -0.154 A  
HETATM   14  C   UNL     1      -7.284   5.940  71.282  1.00  0.00    -0.078 A  
HETATM   15  C   UNL     1      -9.961   6.598  70.944  1.00  0.00    -0.204 A  
HETATM   16 CL   UNL     1      -9.858   8.654  72.685  1.00  0.00    -0.274 Cl 
HETATM   17 CL   UNL     1     -10.445   4.788  69.059  1.00  0.00    -0.006 Cl 
HETATM   18  C   UNL     1      -7.833   7.021  71.980  1.00  0.00    -0.093 A  
ENDBRANCH  10  11
BRANCH  10  19
HETATM   19  C   UNL     1      -7.200   2.683  70.485  1.00  0.00    -0.033 C  
BRANCH  19  20
HETATM   20  N   UNL     1      -8.253   2.431  71.447  1.00  0.00    -0.053 NA 
HETATM   21  C   UNL     1      -8.229   2.754  72.776  1.00  0.00    -0.070 A  
HETATM   22  N   UNL     1     -10.199   1.777  72.264  1.00  0.00    -0.157 NA 
HETATM   23  C   UNL     1      -9.427   2.293  73.270  1.00  0.00    -0.083 A  
HETATM   24  C   UNL     1      -9.477   1.897  71.174  1.00  0.00    -0.136 A  
ENDBRANCH  19  20
ENDBRANCH  10  19
ENDBRANCH   9  10
ENDBRANCH   8   9
ENDBRANCH   5   8
TORSDOF 6
ENDMDL
MODEL      305
REMARK 921   NORMALIZED FREE ENERGY PREDICTED BY IDOCK:   -1.71 KCAL/MOL
REMARK 922        TOTAL FREE ENERGY PREDICTED BY IDOCK:   -3.43 KCAL/MOL
REMARK 923 INTER-LIGAND FREE ENERGY PREDICTED BY IDOCK:   -4.90 KCAL/MOL
REMARK 924 INTRA-LIGAND FREE ENERGY PREDICTED BY IDOCK:    1.47 KCAL/MOL
REMARK 927      BINDING AFFINITY PREDICTED BY RF-SCORE:    0.00 PKD
ROOT
HETATM    1 CL   UNL     1      -9.600   3.712  67.104  1.00  0.00    -0.235 Cl 
HETATM    2  C   UNL     1      -9.686   5.394  67.452  1.00  0.00    -0.140 A  
HETATM    3  C   UNL     1     -10.689   6.171  66.880  1.00  0.00    -0.413 A  
HETATM    4  C   UNL     1     -10.746   7.541  67.155  1.00  0.00    -0.379 A  
HETATM    5  C   UNL     1      -9.800   8.140  68.002  1.00  0.00    -0.200 A  
HETATM    6  C   UNL     1      -8.799   7.342  68.573  1.00  0.00    -0.126 A  
HETATM    7  C   UNL     1      -8.745   5.973  68.300  1.00  0.00    -0.113 A  
ENDROOT
BRANCH   5   8
HETATM    8  C   UNL     1      -9.827   9.631  68.245  1.00  0.00    -0.150 C  
BRANCH   8   9
HETATM    9  O   UNL     1      -8.640  10.211  67.719  1.00  0.00    -0.118 OA 
BRANCH   9  10
HETATM   10  C   UNL     1      -8.825  11.308  66.797  1.00  0.00    -0.170 C  
BRANCH  10  11
HETATM   11  C   UNL     1      -8.179  12.569  67.397  1.00  0.00    -0.183 A  
HETATM   12  C   UNL     1      -7.029  14.953  68.415  1.00  0.00    -0.110 A  
HETATM   13  C   UNL     1      -7.342  12.557  68.532  1.00  0.00    -0.115 A  
HETATM   14  C   UNL     1      -8.451  13.833  66.825  1.00  0.00     0.007 A  
HETATM   15  C   UNL     1      -6.749  13.734  69.017  1.00  0.00    -0.111 A  
HETATM   16 CL   UNL     1      -6.327  16.397  69.033  1.00  0.00    -0.154 Cl 
HETATM   17 CL   UNL     1      -7.024  11.126  69.450  1.00  0.00    -0.123 Cl 
HETATM   18  C   UNL     1      -7.892  15.012  67.331  1.00  0.00    -0.226 A  
ENDBRANCH  10  11
BRANCH  10  19
HETATM   19  C   UNL     1     -10.319  11.439  66.405  1.00  0.00    -0.242 C  
BRANCH  19  20
HETATM   20  N   UNL     1     -11.023  12.497  67.099  1.00  0.00    -0.253 NA 
HETATM   21  C   UNL     1     -11.274  12.557  68.442  1.00  0.00    -0.272 A  
HETATM   22  N   UNL     1     -12.103  14.397  67.430  1.00  0.00    -0.374 NA 
HETATM   23  C   UNL     1     -11.988  13.719  68.614  1.00  0.00    -0.366 A  
HETATM   24  C   UNL     1     -11.491  13.649  66.540  1.00  0.00    -0.335 A  
ENDBRANCH  19  20
ENDBRANCH  10  19
ENDBRANCH   9  10
ENDBRANCH   8   9
ENDBRANCH   5   8
TORSDOF 6
ENDMDL
MODEL      306
REMARK 921   NORMALIZED FREE ENERGY PREDICTED BY IDOCK:   -1.55 KCAL/MOL
REMARK 922        TOTAL FREE ENERGY PREDICTED BY IDOCK:   -3.23 KCAL/MOL
REMARK 923 INTER-LIGAND FREE ENERGY PREDICTED BY IDOCK:   -2.63 KCAL/MOL
REMARK 924 INTRA-LIGAND FREE ENERGY PREDICTED BY IDOCK:   -0.59 KCAL/MOL
REMARK 927      BINDING AFFINITY PREDICTED BY RF-SCORE:    0.00 PKD
ROOT
HETATM    1 CL   UNL     1      -8.701  10.622  64.613  1.00  0.00    -0.183 Cl 
HETATM    2  C   UNL     1      -8.930   9.620  65.992  1.00  0.00    -0.162 A  
HETATM    3  C   UNL     1      -8.445  10.023  67.232  1.00  0.00    -0.122 A  
HETATM    4  C   UNL     1      -8.623   9.198  68.347  1.00  0.00    -0.129 A  
HETATM    5  C   UNL     1      -9.285   7.966  68.227  1.00  0.00    -0.137 A  
HETATM    6  C   UNL     1      -9.771   7.577  66.971  1.00  0.00    -0.257 A  
HETATM    7  C   UNL     1      -9.596   8.404  65.859  1.00  0.00    -0.119 A  
ENDROOT
BRANCH   5   8
HETATM    8  C   UNL     1      -9.417   7.048  69.420  1.00  0.00    -0.145 C  
BRANCH   8   9
HETATM    9  O   UNL     1      -9.192   5.707  69.005  1.00  0.00    -0.120 OA 
BRANCH   9  10
HETATM   10  C   UNL     1      -8.056   5.042  69.600  1.00  0.00    -0.078 C  
BRANCH  10  11
HETATM   11  C   UNL     1      -7.532   5.906  70.761  1.00  0.00    -0.091 A  
HETATM   12  C   UNL     1      -6.490   7.541  72.831  1.00  0.00    -0.061 A  
HETATM   13  C   UNL     1      -7.996   5.799  72.089  1.00  0.00    -0.107 A  
HETATM   14  C   UNL     1      -6.558   6.900  70.509  1.00  0.00    -0.052 A  
HETATM   15  C   UNL     1      -7.458   6.587  73.118  1.00  0.00    -0.089 A  
HETATM   16 CL   UNL     1      -5.858   8.528  74.090  1.00  0.00    -0.115 Cl 
HETATM   17 CL   UNL     1      -9.289   4.747  72.550  1.00  0.00    -0.149 Cl 
HETATM   18  C   UNL     1      -6.049   7.714  71.528  1.00  0.00    -0.035 A  
ENDBRANCH  10  11
BRANCH  10  19
HETATM   19  C   UNL     1      -7.014   4.674  68.513  1.00  0.00    -0.052 C  
BRANCH  19  20
HETATM   20  N   UNL     1      -7.557   3.923  67.401  1.00  0.00    -0.071 NA 
HETATM   21  C   UNL     1      -8.099   2.668  67.459  1.00  0.00    -0.069 A  
HETATM   22  N   UNL     1      -8.198   3.443  65.341  1.00  0.00    -0.096 NA 
HETATM   23  C   UNL     1      -8.443   2.374  66.161  1.00  0.00    -0.101 A  
HETATM   24  C   UNL     1      -7.688   4.369  66.120  1.00  0.00    -0.094 A  
ENDBRANCH  19  20
ENDBRANCH  10  19
ENDBRANCH   9  10
ENDBRANCH   8   9
ENDBRANCH   5   8
TORSDOF 6
ENDMDL
MODEL      307
REMARK 921   NORMALIZED FREE ENERGY PREDICTED BY IDOCK:   -1.51 KCAL/MOL
REMARK 922        TOTAL FREE ENERGY PREDICTED BY IDOCK:   -3.17 KCAL/MOL
REMARK 923 INTER-LIGAND FREE ENERGY PREDICTED BY IDOCK:   -3.31 KCAL/MOL
REMARK 924 INTRA-LIGAND FREE ENERGY PREDICTED BY IDOCK:    0.14 KCAL/MOL
REMARK 927      BINDING AFFINITY PREDICTED BY RF-SCORE:    0.00 PKD
ROOT
HETATM    1 CL   UNL     1     -11.814  16.256  70.728  1.00  0.00    -0.260 Cl 
HETATM    2  C   UNL     1     -11.011  14.976  69.906  1.00  0.00    -0.261 A  
HETATM    3  C   UNL     1      -9.623  14.977  69.805  1.00  0.00     0.022 A  
HETATM    4  C   UNL     1      -8.976  13.941  69.125  1.00  0.00     0.362 A  
HETATM    5  C   UNL     1      -9.714  12.899  68.540  1.00  0.00    -0.129 A  
HETATM    6  C   UNL     1     -11.112  12.911  68.655  1.00  0.00    -0.307 A  
HETATM    7  C   UNL     1     -11.756  13.945  69.338  1.00  0.00    -0.367 A  
ENDROOT
BRANCH   5   8
HETATM    8  C   UNL     1      -9.016  11.817  67.750  1.00  0.00    -0.173 C  
BRANCH   8   9
HETATM    9  O   UNL     1      -9.728  10.596  67.902  1.00  0.00    -0.158 OA 
BRANCH   9  10
HETATM   10  C   UNL     1      -9.563   9.631  66.839  1.00  0.00    -0.167 C  
BRANCH  10  11
HETATM   11  C   UNL     1      -8.680   8.479  67.353  1.00  0.00    -0.136 A  
HETATM   12  C   UNL     1      -7.146   6.296  68.312  1.00  0.00    -0.083 A  
HETATM   13  C   UNL     1      -7.294   8.599  67.586  1.00  0.00    -0.089 A  
HETATM   14  C   UNL     1      -9.252   7.206  67.576  1.00  0.00    -0.131 A  
HETATM   15  C   UNL     1      -6.541   7.526  68.089  1.00  0.00    -0.050 A  
HETATM   16 CL   UNL     1      -6.212   4.975  68.897  1.00  0.00    -0.029 Cl 
HETATM   17 CL   UNL     1      -6.400  10.034  67.222  1.00  0.00    -0.066 Cl 
HETATM   18  C   UNL     1      -8.495   6.125  68.041  1.00  0.00    -0.116 A  
ENDBRANCH  10  11
BRANCH  10  19
HETATM   19  C   UNL     1      -9.072  10.328  65.545  1.00  0.00    -0.176 C  
BRANCH  19  20
HETATM   20  N   UNL     1     -10.020  11.265  64.980  1.00  0.00    -0.258 NA 
HETATM   21  C   UNL     1      -9.747  12.230  64.049  1.00  0.00    -0.057 A  
HETATM   22  N   UNL     1     -11.942  12.278  64.575  1.00  0.00    -0.388 NA 
HETATM   23  C   UNL     1     -10.945  12.876  63.852  1.00  0.00    -0.384 A  
HETATM   24  C   UNL     1     -11.360  11.296  65.224  1.00  0.00     0.091 A  
ENDBRANCH  19  20
ENDBRANCH  10  19
ENDBRANCH   9  10
ENDBRANCH   8   9
ENDBRANCH   5   8
TORSDOF 6
ENDMDL
MODEL      308
REMARK 921   NORMALIZED FREE ENERGY PREDICTED BY IDOCK:   -1.48 KCAL/MOL
REMARK 922        TOTAL FREE ENERGY PREDICTED BY IDOCK:   -3.13 KCAL/MOL
REMARK 923 INTER-LIGAND FREE ENERGY PREDICTED BY IDOCK:   -3.30 KCAL/MOL
REMARK 924 INTRA-LIGAND FREE ENERGY PREDICTED BY IDOCK:    0.17 KCAL/MOL
REMARK 927      BINDING AFFINITY PREDICTED BY RF-SCORE:    0.00 PKD
ROOT
HETATM    1 CL   UNL     1     -13.086   5.409  72.451  1.00  0.00     0.847 Cl 
HETATM    2  C   UNL     1     -11.810   6.425  71.907  1.00  0.00    -0.329 A  
HETATM    3  C   UNL     1     -11.196   6.175  70.683  1.00  0.00    -0.387 A  
HETATM    4  C   UNL     1     -10.150   6.997  70.252  1.00  0.00    -0.198 A  
HETATM    5  C   UNL     1      -9.711   8.071  71.043  1.00  0.00    -0.185 A  
HETATM    6  C   UNL     1     -10.343   8.311  72.271  1.00  0.00    -0.386 A  
HETATM    7  C   UNL     1     -11.391   7.492  72.699  1.00  0.00    -0.395 A  
ENDROOT
BRANCH   5   8
HETATM    8  C   UNL     1      -8.538   8.915  70.603  1.00  0.00    -0.194 C  
BRANCH   8   9
HETATM    9  O   UNL     1      -8.770   9.384  69.281  1.00  0.00    -0.132 OA 
BRANCH   9  10
HETATM   10  C   UNL     1      -7.857   8.903  68.269  1.00  0.00    -0.101 C  
BRANCH  10  11
HETATM   11  C   UNL     1      -8.309   9.442  66.901  1.00  0.00    -0.127 A  
HETATM   12  C   UNL     1      -9.246  10.403  64.403  1.00  0.00    -0.251 A  
HETATM   13  C   UNL     1      -7.422   9.940  65.923  1.00  0.00    -0.108 A  
HETATM   14  C   UNL     1      -9.687   9.492  66.590  1.00  0.00    -0.270 A  
HETATM   15  C   UNL     1      -7.885  10.387  64.675  1.00  0.00    -0.077 A  
HETATM   16 CL   UNL     1      -9.811  10.985  62.885  1.00  0.00    -0.329 Cl 
HETATM   17 CL   UNL     1      -5.721  10.098  66.191  1.00  0.00    -0.060 Cl 
HETATM   18  C   UNL     1     -10.152   9.974  65.361  1.00  0.00    -0.317 A  
ENDBRANCH  10  11
BRANCH  10  19
HETATM   19  C   UNL     1      -7.703   7.364  68.367  1.00  0.00    -0.120 C  
BRANCH  19  20
HETATM   20  N   UNL     1      -6.876   6.783  67.329  1.00  0.00    -0.070 NA 
HETATM   21  C   UNL     1      -7.200   6.674  66.005  1.00  0.00    -0.071 A  
HETATM   22  N   UNL     1      -5.136   5.830  66.357  1.00  0.00    -0.005 NA 
HETATM   23  C   UNL     1      -6.124   6.036  65.433  1.00  0.00    -0.029 A  
HETATM   24  C   UNL     1      -5.607   6.313  67.484  1.00  0.00    -0.005 A  
ENDBRANCH  19  20
ENDBRANCH  10  19
ENDBRANCH   9  10
ENDBRANCH   8   9
ENDBRANCH   5   8
TORSDOF 6
ENDMDL
MODEL      309
REMARK 921   NORMALIZED FREE ENERGY PREDICTED BY IDOCK:   -1.38 KCAL/MOL
REMARK 922        TOTAL FREE ENERGY PREDICTED BY IDOCK:   -3.00 KCAL/MOL
REMARK 923 INTER-LIGAND FREE ENERGY PREDICTED BY IDOCK:   -3.51 KCAL/MOL
REMARK 924 INTRA-LIGAND FREE ENERGY PREDICTED BY IDOCK:    0.51 KCAL/MOL
REMARK 927      BINDING AFFINITY PREDICTED BY RF-SCORE:    0.00 PKD
ROOT
HETATM    1 CL   UNL     1     -12.225  10.610  71.182  1.00  0.00    -0.474 Cl 
HETATM    2  C   UNL     1     -11.241   9.372  70.506  1.00  0.00    -0.275 A  
HETATM    3  C   UNL     1     -11.733   8.074  70.400  1.00  0.00    -0.001 A  
HETATM    4  C   UNL     1     -10.924   7.068  69.863  1.00  0.00    -0.296 A  
HETATM    5  C   UNL     1      -9.619   7.355  69.430  1.00  0.00    -0.155 A  
HETATM    6  C   UNL     1      -9.141   8.668  69.540  1.00  0.00    -0.146 A  
HETATM    7  C   UNL     1      -9.952   9.672  70.074  1.00  0.00    -0.288 A  
ENDROOT
BRANCH   5   8
HETATM    8  C   UNL     1      -8.726   6.252  68.911  1.00  0.00    -0.125 C  
BRANCH   8   9
HETATM    9  O   UNL     1      -8.080   5.620  70.008  1.00  0.00    -0.101 OA 
BRANCH   9  10
HETATM   10  C   UNL     1      -8.392   4.223  70.208  1.00  0.00    -0.065 C  
BRANCH  10  11
HETATM   11  C   UNL     1      -8.294   3.498  68.854  1.00  0.00    -0.087 A  
HETATM   12  C   UNL     1      -8.047   2.245  66.322  1.00  0.00    -0.084 A  
HETATM   13  C   UNL     1      -9.016   2.328  68.537  1.00  0.00    -0.129 A  
HETATM   14  C   UNL     1      -7.408   3.983  67.864  1.00  0.00    -0.067 A  
HETATM   15  C   UNL     1      -8.917   1.727  67.272  1.00  0.00    -0.153 A  
HETATM   16 CL   UNL     1      -7.903   1.484  64.786  1.00  0.00    -0.063 Cl 
HETATM   17 CL   UNL     1     -10.027   1.511  69.677  1.00  0.00     0.126 Cl 
HETATM   18  C   UNL     1      -7.279   3.361  66.617  1.00  0.00    -0.067 A  
ENDBRANCH  10  11
BRANCH  10  19
HETATM   19  C   UNL     1      -9.742   4.072  70.954  1.00  0.00    -0.187 C  
BRANCH  19  20
HETATM   20  N   UNL     1      -9.671   4.358  72.372  1.00  0.00    -0.150 NA 
HETATM   21  C   UNL     1      -8.565   4.233  73.168  1.00  0.00    -0.093 A  
HETATM   22  N   UNL     1     -10.303   4.996  74.391  1.00  0.00    -0.269 NA 
HETATM   23  C   UNL     1      -8.997   4.588  74.425  1.00  0.00    -0.107 A  
HETATM   24  C   UNL     1     -10.675   4.871  73.138  1.00  0.00    -0.254 A  
ENDBRANCH  19  20
ENDBRANCH  10  19
ENDBRANCH   9  10
ENDBRANCH   8   9
ENDBRANCH   5   8
TORSDOF 6
ENDMDL
MODEL      310
REMARK 921   NORMALIZED FREE ENERGY PREDICTED BY IDOCK:   -0.64 KCAL/MOL
REMARK 922        TOTAL FREE ENERGY PREDICTED BY IDOCK:   -1.99 KCAL/MOL
REMARK 923 INTER-LIGAND FREE ENERGY PREDICTED BY IDOCK:   -2.48 KCAL/MOL
REMARK 924 INTRA-LIGAND FREE ENERGY PREDICTED BY IDOCK:    0.48 KCAL/MOL
REMARK 927      BINDING AFFINITY PREDICTED BY RF-SCORE:    0.00 PKD
ROOT
HETATM    1 CL   UNL     1      -9.696   1.678  69.878  1.00  0.00    -0.064 Cl 
HETATM    2  C   UNL     1      -8.747   3.001  69.325  1.00  0.00    -0.082 A  
HETATM    3  C   UNL     1      -7.554   2.766  68.647  1.00  0.00    -0.047 A  
HETATM    4  C   UNL     1      -6.780   3.846  68.211  1.00  0.00    -0.046 A  
HETATM    5  C   UNL     1      -7.194   5.166  68.452  1.00  0.00    -0.063 A  
HETATM    6  C   UNL     1      -8.400   5.385  69.132  1.00  0.00    -0.097 A  
HETATM    7  C   UNL     1      -9.174   4.305  69.563  1.00  0.00    -0.207 A  
ENDROOT
BRANCH   5   8
HETATM    8  C   UNL     1      -6.322   6.328  68.037  1.00  0.00    -0.040 C  
BRANCH   8   9
HETATM    9  O   UNL     1      -7.064   7.183  67.176  1.00  0.00    -0.081 OA 
BRANCH   9  10
HETATM   10  C   UNL     1      -6.798   8.598  67.307  1.00  0.00    -0.067 C  
BRANCH  10  11
HETATM   11  C   UNL     1      -8.081   9.298  67.789  1.00  0.00    -0.104 A  
HETATM   12  C   UNL     1     -10.393  10.612  68.773  1.00  0.00    -0.193 A  
HETATM   13  C   UNL     1      -9.295   9.291  67.069  1.00  0.00    -0.144 A  
HETATM   14  C   UNL     1      -8.065  10.032  68.997  1.00  0.00    -0.118 A  
HETATM   15  C   UNL     1     -10.447   9.916  67.572  1.00  0.00    -0.310 A  
HETATM   16 CL   UNL     1     -11.799  11.405  69.368  1.00  0.00    -0.386 Cl 
HETATM   17 CL   UNL     1      -9.454   8.576  65.504  1.00  0.00    -0.067 Cl 
HETATM   18  C   UNL     1      -9.203  10.688  69.480  1.00  0.00     0.008 A  
ENDBRANCH  10  11
BRANCH  10  19
HETATM   19  C   UNL     1      -6.178   9.155  66.000  1.00  0.00    -0.063 C  
BRANCH  19  20
HETATM   20  N   UNL     1      -6.372   8.306  64.843  1.00  0.00    -0.052 NA 
HETATM   21  C   UNL     1      -5.616   7.218  64.502  1.00  0.00    -0.033 A  
HETATM   22  N   UNL     1      -7.269   7.501  62.991  1.00  0.00    -0.078 NA 
HETATM   23  C   UNL     1      -6.162   6.767  63.324  1.00  0.00    -0.042 A  
HETATM   24  C   UNL     1      -7.385   8.404  63.937  1.00  0.00    -0.102 A  
ENDBRANCH  19  20
ENDBRANCH  10  19
ENDBRANCH   9  10
ENDBRANCH   8   9
ENDBRANCH   5   8
TORSDOF 6
ENDMDL
MODEL      311
REMARK 921   NORMALIZED FREE ENERGY PREDICTED BY IDOCK:   -0.17 KCAL/MOL
REMARK 922        TOTAL FREE ENERGY PREDICTED BY IDOCK:   -1.36 KCAL/MOL
REMARK 923 INTER-LIGAND FREE ENERGY PREDICTED BY IDOCK:   -2.18 KCAL/MOL
REMARK 924 INTRA-LIGAND FREE ENERGY PREDICTED BY IDOCK:    0.82 KCAL/MOL
REMARK 927      BINDING AFFINITY PREDICTED BY RF-SCORE:    0.00 PKD
ROOT
HETATM    1 CL   UNL     1     -10.292   3.753  63.660  1.00  0.00    -0.220 Cl 
HETATM    2  C   UNL     1      -9.313   3.562  65.061  1.00  0.00    -0.155 A  
HETATM    3  C   UNL     1      -8.388   4.545  65.402  1.00  0.00    -0.117 A  
HETATM    4  C   UNL     1      -7.586   4.379  66.534  1.00  0.00    -0.086 A  
HETATM    5  C   UNL     1      -7.703   3.229  67.332  1.00  0.00    -0.077 A  
HETATM    6  C   UNL     1      -8.643   2.251  66.977  1.00  0.00    -0.118 A  
HETATM    7  C   UNL     1      -9.446   2.420  65.847  1.00  0.00     0.148 A  
ENDROOT
BRANCH   5   8
HETATM    8  C   UNL     1      -6.789   3.023  68.517  1.00  0.00    -0.048 C  
BRANCH   8   9
HETATM    9  O   UNL     1      -7.543   2.498  69.602  1.00  0.00    -0.043 OA 
BRANCH   9  10
HETATM   10  C   UNL     1      -8.338   3.452  70.340  1.00  0.00    -0.056 C  
BRANCH  10  11
HETATM   11  C   UNL     1      -8.052   4.861  69.792  1.00  0.00    -0.069 A  
HETATM   12  C   UNL     1      -7.629   7.461  68.741  1.00  0.00    -0.107 A  
HETATM   13  C   UNL     1      -6.785   5.480  69.844  1.00  0.00    -0.051 A  
HETATM   14  C   UNL     1      -9.105   5.621  69.234  1.00  0.00    -0.128 A  
HETATM   15  C   UNL     1      -6.570   6.754  69.296  1.00  0.00    -0.048 A  
HETATM   16 CL   UNL     1      -7.368   9.036  68.102  1.00  0.00    -0.082 Cl 
HETATM   17 CL   UNL     1      -5.421   4.762  70.627  1.00  0.00    -0.007 Cl 
HETATM   18  C   UNL     1      -8.900   6.908  68.723  1.00  0.00    -0.132 A  
ENDBRANCH  10  11
BRANCH  10  19
HETATM   19  C   UNL     1      -8.126   3.268  71.865  1.00  0.00    -0.062 C  
BRANCH  19  20
HETATM   20  N   UNL     1      -8.737   4.300  72.677  1.00  0.00    -0.104 NA 
HETATM   21  C   UNL     1      -8.081   5.289  73.357  1.00  0.00    -0.111 A  
HETATM   22  N   UNL     1     -10.308   5.507  73.657  1.00  0.00    -0.217 NA 
HETATM   23  C   UNL     1      -9.074   5.993  73.996  1.00  0.00    -0.128 A  
HETATM   24  C   UNL     1     -10.075   4.504  72.842  1.00  0.00    -0.157 A  
ENDBRANCH  19  20
ENDBRANCH  10  19
ENDBRANCH   9  10
ENDBRANCH   8   9
ENDBRANCH   5   8
TORSDOF 6
ENDMDL
MODEL      312
REMARK 921   NORMALIZED FREE ENERGY PREDICTED BY IDOCK:    0.70 KCAL/MOL
REMARK 922        TOTAL FREE ENERGY PREDICTED BY IDOCK:   -0.18 KCAL/MOL
REMARK 923 INTER-LIGAND FREE ENERGY PREDICTED BY IDOCK:    0.15 KCAL/MOL
REMARK 924 INTRA-LIGAND FREE ENERGY PREDICTED BY IDOCK:   -0.33 KCAL/MOL
REMARK 927      BINDING AFFINITY PREDICTED BY RF-SCORE:    0.00 PKD
ROOT
HETATM    1 CL   UNL     1      -8.285  20.724  71.740  1.00  0.00     2.069 Cl 
HETATM    2  C   UNL     1      -8.394  19.847  70.264  1.00  0.00     1.316 A  
HETATM    3  C   UNL     1      -7.283  19.163  69.779  1.00  0.00     0.109 A  
HETATM    4  C   UNL     1      -7.373  18.462  68.572  1.00  0.00    -0.302 A  
HETATM    5  C   UNL     1      -8.573  18.444  67.843  1.00  0.00    -0.285 A  
HETATM    6  C   UNL     1      -9.683  19.135  68.349  1.00  0.00    -0.451 A  
HETATM    7  C   UNL     1      -9.593  19.831  69.556  1.00  0.00     0.021 A  
ENDROOT
BRANCH   5   8
HETATM    8  C   UNL     1      -8.647  17.741  66.508  1.00  0.00    -0.257 C  
BRANCH   8   9
HETATM    9  O   UNL     1      -8.251  16.385  66.672  1.00  0.00    -0.218 OA 
BRANCH   9  10
HETATM   10  C   UNL     1      -8.864  15.676  67.771  1.00  0.00    -0.171 C  
BRANCH  10  11
HETATM   11  C   UNL     1      -8.302  14.244  67.809  1.00  0.00    -0.174 A  
HETATM   12  C   UNL     1      -7.206  11.633  67.968  1.00  0.00    -0.083 A  
HETATM   13  C   UNL     1      -8.552  13.277  66.812  1.00  0.00    -0.026 A  
HETATM   14  C   UNL     1      -7.519  13.829  68.911  1.00  0.00    -0.056 A  
HETATM   15  C   UNL     1      -7.984  11.995  66.877  1.00  0.00    -0.112 A  
HETATM   16 CL   UNL     1      -6.540  10.049  68.060  1.00  0.00    -0.062 Cl 
HETATM   17 CL   UNL     1      -9.610  13.560  65.474  1.00  0.00    -0.054 Cl 
HETATM   18  C   UNL     1      -6.984  12.538  68.995  1.00  0.00    -0.066 A  
ENDBRANCH  10  11
BRANCH  10  19
HETATM   19  C   UNL     1     -10.408  15.789  67.695  1.00  0.00    -0.281 C  
BRANCH  19  20
HETATM   20  N   UNL     1     -11.058  15.929  68.982  1.00  0.00    -0.272 NA 
HETATM   21  C   UNL     1     -12.389  15.750  69.240  1.00  0.00     0.030 A  
HETATM   22  N   UNL     1     -11.307  16.278  71.150  1.00  0.00    -0.340 NA 
HETATM   23  C   UNL     1     -12.526  16.021  70.581  1.00  0.00    -0.047 A  
HETATM   24  C   UNL     1     -10.439  16.191  70.168  1.00  0.00    -0.141 A  
ENDBRANCH  19  20
ENDBRANCH  10  19
ENDBRANCH   9  10
ENDBRANCH   8   9
ENDBRANCH   5   8
TORSDOF 6
ENDMDL
MODEL      313
REMARK 921   NORMALIZED FREE ENERGY PREDICTED BY IDOCK:    1.71 KCAL/MOL
REMARK 922        TOTAL FREE ENERGY PREDICTED BY IDOCK:    1.18 KCAL/MOL
REMARK 923 INTER-LIGAND FREE ENERGY PREDICTED BY IDOCK:   -3.38 KCAL/MOL
REMARK 924 INTRA-LIGAND FREE ENERGY PREDICTED BY IDOCK:    4.56 KCAL/MOL
REMARK 927      BINDING AFFINITY PREDICTED BY RF-SCORE:    0.00 PKD
ROOT
HETATM    1 CL   UNL     1      -5.137  13.469  68.335  1.00  0.00    -0.085 Cl 
HETATM    2  C   UNL     1      -6.845  13.343  68.175  1.00  0.00    -0.117 A  
HETATM    3  C   UNL     1      -7.667  14.335  68.703  1.00  0.00    -0.135 A  
HETATM    4  C   UNL     1      -9.055  14.221  68.583  1.00  0.00    -0.160 A  
HETATM    5  C   UNL     1      -9.629  13.114  67.935  1.00  0.00    -0.218 A  
HETATM    6  C   UNL     1      -8.786  12.127  67.405  1.00  0.00    -0.177 A  
HETATM    7  C   UNL     1      -7.399  12.244  67.523  1.00  0.00    -0.137 A  
ENDROOT
BRANCH   5   8
HETATM    8  C   UNL     1     -11.130  12.963  67.864  1.00  0.00    -0.252 C  
BRANCH   8   9
HETATM    9  O   UNL     1     -11.678  14.066  67.154  1.00  0.00    -0.349 OA 
BRANCH   9  10
HETATM   10  C   UNL     1     -10.723  14.988  66.583  1.00  0.00    -0.312 C  
BRANCH  10  11
HETATM   11  C   UNL     1     -10.677  16.254  67.457  1.00  0.00    -0.300 A  
HETATM   12  C   UNL     1     -10.556  18.645  68.977  1.00  0.00     0.404 A  
HETATM   13  C   UNL     1     -10.927  16.258  68.845  1.00  0.00    -0.334 A  
HETATM   14  C   UNL     1     -10.411  17.507  66.858  1.00  0.00    -0.285 A  
HETATM   15  C   UNL     1     -10.837  17.437  69.602  1.00  0.00     0.460 A  
HETATM   16 CL   UNL     1     -10.480  20.092  69.904  1.00  0.00     0.181 Cl 
HETATM   17 CL   UNL     1     -11.417  14.846  69.715  1.00  0.00    -0.305 Cl 
HETATM   18  C   UNL     1     -10.359  18.689  67.605  1.00  0.00    -0.455 A  
ENDBRANCH  10  11
BRANCH  10  19
HETATM   19  C   UNL     1     -11.024  15.219  65.080  1.00  0.00    -0.416 C  
BRANCH  19  20
HETATM   20  N   UNL     1     -11.631  14.084  64.416  1.00  0.00    -0.384 NA 
HETATM   21  C   UNL     1     -12.923  13.657  64.562  1.00  0.00     0.243 A  
HETATM   22  N   UNL     1     -11.846  12.336  63.082  1.00  0.00    -0.331 NA 
HETATM   23  C   UNL     1     -13.016  12.543  63.763  1.00  0.00    -0.058 A  
HETATM   24  C   UNL     1     -11.040  13.294  63.476  1.00  0.00     0.140 A  
ENDBRANCH  19  20
ENDBRANCH  10  19
ENDBRANCH   9  10
ENDBRANCH   8   9
ENDBRANCH   5   8
TORSDOF 6
ENDMDL
MODEL      314
REMARK 921   NORMALIZED FREE ENERGY PREDICTED BY IDOCK:    4.56 KCAL/MOL
REMARK 922        TOTAL FREE ENERGY PREDICTED BY IDOCK:    5.04 KCAL/MOL
REMARK 923 INTER-LIGAND FREE ENERGY PREDICTED BY IDOCK:    3.73 KCAL/MOL
REMARK 924 INTRA-LIGAND FREE ENERGY PREDICTED BY IDOCK:    1.30 KCAL/MOL
REMARK 927      BINDING AFFINITY PREDICTED BY RF-SCORE:    0.00 PKD
ROOT
HETATM    1 CL   UNL     1     -12.439  15.966  70.526  1.00  0.00    -0.347 Cl 
HETATM    2  C   UNL     1     -11.867  14.675  69.545  1.00  0.00    -0.330 A  
HETATM    3  C   UNL     1     -10.501  14.415  69.465  1.00  0.00    -0.028 A  
HETATM    4  C   UNL     1     -10.040  13.372  68.656  1.00  0.00    -0.162 A  
HETATM    5  C   UNL     1     -10.942  12.584  67.921  1.00  0.00    -0.262 A  
HETATM    6  C   UNL     1     -12.314  12.857  68.017  1.00  0.00     0.212 A  
HETATM    7  C   UNL     1     -12.773  13.897  68.829  1.00  0.00     0.797 A  
ENDROOT
BRANCH   5   8
HETATM    8  C   UNL     1     -10.435  11.501  66.998  1.00  0.00    -0.228 C  
BRANCH   8   9
HETATM    9  O   UNL     1     -11.356  10.418  67.000  1.00  0.00    -0.222 OA 
BRANCH   9  10
HETATM   10  C   UNL     1     -11.025   9.304  66.141  1.00  0.00     1.125 C  
BRANCH  10  11
HETATM   11  C   UNL     1     -10.825   8.052  67.013  1.00  0.00    -0.113 A  
HETATM   12  C   UNL     1     -10.558   5.709  68.588  1.00  0.00    -0.198 A  
HETATM   13  C   UNL     1      -9.713   7.856  67.860  1.00  0.00    -0.155 A  
HETATM   14  C   UNL     1     -11.770   7.002  66.955  1.00  0.00     1.657 A  
HETATM   15  C   UNL     1      -9.598   6.710  68.662  1.00  0.00    -0.130 A  
HETATM   16 CL   UNL     1     -10.394   4.291  69.547  1.00  0.00     0.246 Cl 
HETATM   17 CL   UNL     1      -8.388   8.963  67.940  1.00  0.00    -0.117 Cl 
HETATM   18  C   UNL     1     -11.635   5.841  67.725  1.00  0.00     1.500 A  
ENDBRANCH  10  11
BRANCH  10  19
HETATM   19  C   UNL     1      -9.841   9.672  65.210  1.00  0.00    -0.199 C  
BRANCH  19  20
HETATM   20  N   UNL     1     -10.031  10.898  64.464  1.00  0.00    -0.289 NA 
HETATM   21  C   UNL     1      -9.048  11.654  63.887  1.00  0.00     0.244 A  
HETATM   22  N   UNL     1     -11.064  12.587  63.482  1.00  0.00    -0.462 NA 
HETATM   23  C   UNL     1      -9.710  12.722  63.327  1.00  0.00     1.507 A  
HETATM   24  C   UNL     1     -11.229  11.467  64.148  1.00  0.00    -0.314 A  
ENDBRANCH  19  20
ENDBRANCH  10  19
ENDBRANCH   9  10
ENDBRANCH   8   9
ENDBRANCH   5   8
TORSDOF 6
ENDMDL
MODEL      315
REMARK 921   NORMALIZED FREE ENERGY PREDICTED BY IDOCK:    4.59 KCAL/MOL
REMARK 922        TOTAL FREE ENERGY PREDICTED BY IDOCK:    5.08 KCAL/MOL
REMARK 923 INTER-LIGAND FREE ENERGY PREDICTED BY IDOCK:    3.02 KCAL/MOL
REMARK 924 INTRA-LIGAND FREE ENERGY PREDICTED BY IDOCK:    2.06 KCAL/MOL
REMARK 927      BINDING AFFINITY PREDICTED BY RF-SCORE:    0.00 PKD
ROOT
HETATM    1 CL   UNL     1     -10.032   3.594  68.847  1.00  0.00     0.118 Cl 
HETATM    2  C   UNL     1      -8.966   4.860  68.378  1.00  0.00    -0.109 A  
HETATM    3  C   UNL     1      -7.804   4.564  67.672  1.00  0.00    -0.085 A  
HETATM    4  C   UNL     1      -6.935   5.596  67.304  1.00  0.00    -0.065 A  
HETATM    5  C   UNL     1      -7.223   6.929  67.641  1.00  0.00    -0.091 A  
HETATM    6  C   UNL     1      -8.400   7.209  68.349  1.00  0.00    -0.125 A  
HETATM    7  C   UNL     1      -9.269   6.178  68.712  1.00  0.00    -0.124 A  
ENDROOT
BRANCH   5   8
HETATM    8  C   UNL     1      -6.249   8.032  67.299  1.00  0.00    -0.055 C  
BRANCH   8   9
HETATM    9  O   UNL     1      -6.949   9.088  66.655  1.00  0.00    -0.079 OA 
BRANCH   9  10
HETATM   10  C   UNL     1      -6.378  10.408  66.802  1.00  0.00    -0.075 C  
BRANCH  10  11
HETATM   11  C   UNL     1      -7.511  11.404  67.107  1.00  0.00    -0.138 A  
HETATM   12  C   UNL     1      -9.646  13.211  67.572  1.00  0.00    -0.208 A  
HETATM   13  C   UNL     1      -7.511  12.273  68.218  1.00  0.00    -0.119 A  
HETATM   14  C   UNL     1      -8.648  11.447  66.268  1.00  0.00    -0.156 A  
HETATM   15  C   UNL     1      -8.554  13.189  68.430  1.00  0.00    -0.124 A  
HETATM   16 CL   UNL     1     -10.938  14.311  67.855  1.00  0.00    -0.269 Cl 
HETATM   17 CL   UNL     1      -6.279  12.250  69.430  1.00  0.00    -0.101 Cl 
HETATM   18  C   UNL     1      -9.707  12.332  66.501  1.00  0.00    -0.242 A  
ENDBRANCH  10  11
BRANCH  10  19
HETATM   19  C   UNL     1      -5.491  10.753  65.578  1.00  0.00    -0.138 C  
BRANCH  19  20
HETATM   20  N   UNL     1      -6.235  11.118  64.390  1.00  0.00     0.603 NA 
HETATM   21  C   UNL     1      -7.574  10.930  64.185  1.00  0.00     0.495 A  
HETATM   22  N   UNL     1      -6.662  11.942  62.385  1.00  0.00     1.006 NA 
HETATM   23  C   UNL     1      -7.804  11.404  62.915  1.00  0.00     0.626 A  
HETATM   24  C   UNL     1      -5.740  11.778  63.306  1.00  0.00     2.473 A  
ENDBRANCH  19  20
ENDBRANCH  10  19
ENDBRANCH   9  10
ENDBRANCH   8   9
ENDBRANCH   5   8
TORSDOF 6
ENDMDL
MODEL      316
REMARK 921   NORMALIZED FREE ENERGY PREDICTED BY IDOCK:    5.70 KCAL/MOL
REMARK 922        TOTAL FREE ENERGY PREDICTED BY IDOCK:    6.57 KCAL/MOL
REMARK 923 INTER-LIGAND FREE ENERGY PREDICTED BY IDOCK:    6.90 KCAL/MOL
REMARK 924 INTRA-LIGAND FREE ENERGY PREDICTED BY IDOCK:   -0.33 KCAL/MOL
REMARK 927      BINDING AFFINITY PREDICTED BY RF-SCORE:    0.00 PKD
ROOT
HETATM    1 CL   UNL     1     -10.328   9.379  63.998  1.00  0.00     2.271 Cl 
HETATM    2  C   UNL     1      -9.883  10.145  65.473  1.00  0.00    -0.298 A  
HETATM    3  C   UNL     1     -10.207  11.482  65.687  1.00  0.00    -0.292 A  
HETATM    4  C   UNL     1      -9.832  12.104  66.881  1.00  0.00    -0.213 A  
HETATM    5  C   UNL     1      -9.129  11.393  67.868  1.00  0.00    -0.164 A  
HETATM    6  C   UNL     1      -8.814  10.046  67.638  1.00  0.00    -0.121 A  
HETATM    7  C   UNL     1      -9.193   9.425  66.445  1.00  0.00    -0.215 A  
ENDROOT
BRANCH   5   8
HETATM    8  C   UNL     1      -8.668  12.086  69.128  1.00  0.00     0.533 C  
BRANCH   8   9
HETATM    9  O   UNL     1      -7.454  12.777  68.863  1.00  0.00    -0.078 OA 
BRANCH   9  10
HETATM   10  C   UNL     1      -7.175  13.914  69.710  1.00  0.00     0.313 C  
BRANCH  10  11
HETATM   11  C   UNL     1      -7.321  15.198  68.874  1.00  0.00    -0.142 A  
HETATM   12  C   UNL     1      -7.612  17.620  67.429  1.00  0.00    -0.198 A  
HETATM   13  C   UNL     1      -7.273  15.225  67.464  1.00  0.00    -0.197 A  
HETATM   14  C   UNL     1      -7.472  16.443  69.527  1.00  0.00     0.001 A  
HETATM   15  C   UNL     1      -7.448  16.420  66.749  1.00  0.00    -0.278 A  
HETATM   16 CL   UNL     1      -7.791  19.087  66.548  1.00  0.00    -0.264 Cl 
HETATM   17 CL   UNL     1      -6.942  13.823  66.509  1.00  0.00     1.914 Cl 
HETATM   18  C   UNL     1      -7.607  17.641  68.815  1.00  0.00    -0.253 A  
ENDBRANCH  10  11
BRANCH  10  19
HETATM   19  C   UNL     1      -5.814  13.732  70.430  1.00  0.00    -0.162 C  
BRANCH  19  20
HETATM   20  N   UNL     1      -5.867  13.950  71.861  1.00  0.00    -0.375 NA 
HETATM   21  C   UNL     1      -6.612  13.237  72.761  1.00  0.00     3.931 A  
HETATM   22  N   UNL     1      -5.420  14.821  73.842  1.00  0.00     0.169 NA 
HETATM   23  C   UNL     1      -6.355  13.829  73.975  1.00  0.00     1.139 A  
HETATM   24  C   UNL     1      -5.126  14.853  72.562  1.00  0.00    -0.121 A  
ENDBRANCH  19  20
ENDBRANCH  10  19
ENDBRANCH   9  10
ENDBRANCH   8   9
ENDBRANCH   5   8
TORSDOF 6
ENDMDL
MODEL      317
REMARK 921   NORMALIZED FREE ENERGY PREDICTED BY IDOCK:    9.82 KCAL/MOL
REMARK 922        TOTAL FREE ENERGY PREDICTED BY IDOCK:   12.13 KCAL/MOL
REMARK 923 INTER-LIGAND FREE ENERGY PREDICTED BY IDOCK:   10.97 KCAL/MOL
REMARK 924 INTRA-LIGAND FREE ENERGY PREDICTED BY IDOCK:    1.16 KCAL/MOL
REMARK 927      BINDING AFFINITY PREDICTED BY RF-SCORE:    0.00 PKD
ROOT
HETATM    1 CL   UNL     1      -8.389  19.990  73.173  1.00  0.00     3.198 Cl 
HETATM    2  C   UNL     1      -7.960  19.329  71.644  1.00  0.00     4.751 A  
HETATM    3  C   UNL     1      -6.757  18.645  71.496  1.00  0.00     2.811 A  
HETATM    4  C   UNL     1      -6.408  18.120  70.248  1.00  0.00     0.297 A  
HETATM    5  C   UNL     1      -7.259  18.278  69.142  1.00  0.00    -0.174 A  
HETATM    6  C   UNL     1      -8.468  18.966  69.310  1.00  0.00     0.084 A  
HETATM    7  C   UNL     1      -8.818  19.486  70.558  1.00  0.00     1.874 A  
ENDROOT
BRANCH   5   8
HETATM    8  C   UNL     1      -6.847  17.767  67.781  1.00  0.00    -0.182 C  
BRANCH   8   9
HETATM    9  O   UNL     1      -6.714  16.352  67.834  1.00  0.00    -0.123 OA 
BRANCH   9  10
HETATM   10  C   UNL     1      -7.895  15.621  68.234  1.00  0.00    -0.128 C  
BRANCH  10  11
HETATM   11  C   UNL     1      -7.836  14.214  67.614  1.00  0.00    -0.190 A  
HETATM   12  C   UNL     1      -7.829  11.639  66.426  1.00  0.00     0.035 A  
HETATM   13  C   UNL     1      -6.803  13.287  67.869  1.00  0.00    -0.140 A  
HETATM   14  C   UNL     1      -8.838  13.810  66.701  1.00  0.00    -0.089 A  
HETATM   15  C   UNL     1      -6.817  12.002  67.305  1.00  0.00    -0.150 A  
HETATM   16 CL   UNL     1      -7.823  10.074  65.710  1.00  0.00    -0.122 Cl 
HETATM   17 CL   UNL     1      -5.421  13.665  68.836  1.00  0.00    -0.073 Cl 
HETATM   18  C   UNL     1      -8.831  12.543  66.108  1.00  0.00     0.154 A  
ENDBRANCH  10  11
BRANCH  10  19
HETATM   19  C   UNL     1      -9.172  16.441  67.921  1.00  0.00    -0.202 C  
BRANCH  19  20
HETATM   20  N   UNL     1     -10.377  15.921  68.534  1.00  0.00    -0.226 NA 
HETATM   21  C   UNL     1     -11.652  16.367  68.317  1.00  0.00    -0.030 A  
HETATM   22  N   UNL     1     -11.684  14.644  69.776  1.00  0.00    -0.295 NA 
HETATM   23  C   UNL     1     -12.438  15.591  69.136  1.00  0.00     0.111 A  
HETATM   24  C   UNL     1     -10.451  14.850  69.374  1.00  0.00    -0.222 A  
ENDBRANCH  19  20
ENDBRANCH  10  19
ENDBRANCH   9  10
ENDBRANCH   8   9
ENDBRANCH   5   8
TORSDOF 6
ENDMDL
MODEL      318
REMARK 921   NORMALIZED FREE ENERGY PREDICTED BY IDOCK:   17.38 KCAL/MOL
REMARK 922        TOTAL FREE ENERGY PREDICTED BY IDOCK:   22.35 KCAL/MOL
REMARK 923 INTER-LIGAND FREE ENERGY PREDICTED BY IDOCK:   19.03 KCAL/MOL
REMARK 924 INTRA-LIGAND FREE ENERGY PREDICTED BY IDOCK:    3.32 KCAL/MOL
REMARK 927      BINDING AFFINITY PREDICTED BY RF-SCORE:    0.00 PKD
ROOT
HETATM    1 CL   UNL     1      -6.244  18.099  66.090  1.00  0.00    -0.228 Cl 
HETATM    2  C   UNL     1      -7.358  17.030  66.848  1.00  0.00    -0.209 A  
HETATM    3  C   UNL     1      -8.002  16.050  66.097  1.00  0.00     0.172 A  
HETATM    4  C   UNL     1      -8.917  15.193  66.715  1.00  0.00    -0.293 A  
HETATM    5  C   UNL     1      -9.193  15.310  68.087  1.00  0.00    -0.183 A  
HETATM    6  C   UNL     1      -8.533  16.299  68.829  1.00  0.00    -0.240 A  
HETATM    7  C   UNL     1      -7.617  17.153  68.211  1.00  0.00    -0.224 A  
ENDROOT
BRANCH   5   8
HETATM    8  C   UNL     1     -10.231  14.425  68.737  1.00  0.00    -0.239 C  
BRANCH   8   9
HETATM    9  O   UNL     1     -10.913  13.689  67.729  1.00  0.00    -0.251 OA 
BRANCH   9  10
HETATM   10  C   UNL     1     -11.274  12.332  68.071  1.00  0.00    -0.269 C  
BRANCH  10  11
HETATM   11  C   UNL     1     -11.796  12.311  69.519  1.00  0.00    -0.380 A  
HETATM   12  C   UNL     1     -12.680  12.196  72.211  1.00  0.00     0.377 A  
HETATM   13  C   UNL     1     -12.938  13.019  69.950  1.00  0.00     0.788 A  
HETATM   14  C   UNL     1     -11.091  11.584  70.505  1.00  0.00     0.772 A  
HETATM   15  C   UNL     1     -13.392  12.936  71.276  1.00  0.00    -0.038 A  
HETATM   16 CL   UNL     1     -13.221  12.125  73.842  1.00  0.00     8.383 Cl 
HETATM   17 CL   UNL     1     -13.831  14.079  68.918  1.00  0.00     5.449 Cl 
HETATM   18  C   UNL     1     -11.521  11.533  71.836  1.00  0.00     3.533 A  
ENDBRANCH  10  11
BRANCH  10  19
HETATM   19  C   UNL     1     -10.101  11.366  67.765  1.00  0.00    -0.181 C  
BRANCH  19  20
HETATM   20  N   UNL     1      -8.861  11.709  68.431  1.00  0.00    -0.166 NA 
HETATM   21  C   UNL     1      -7.608  11.297  68.069  1.00  0.00    -0.105 A  
HETATM   22  N   UNL     1      -7.475  12.643  69.876  1.00  0.00     1.040 NA 
HETATM   23  C   UNL     1      -6.772  11.850  69.010  1.00  0.00    -0.099 A  
HETATM   24  C   UNL     1      -8.727  12.559  69.488  1.00  0.00     1.619 A  
ENDBRANCH  19  20
ENDBRANCH  10  19
ENDBRANCH   9  10
ENDBRANCH   8   9
ENDBRANCH   5   8
TORSDOF 6
ENDMDL
MODEL      319
REMARK 921   NORMALIZED FREE ENERGY PREDICTED BY IDOCK:   36.20 KCAL/MOL
REMARK 922        TOTAL FREE ENERGY PREDICTED BY IDOCK:   47.77 KCAL/MOL
REMARK 923 INTER-LIGAND FREE ENERGY PREDICTED BY IDOCK:   38.03 KCAL/MOL
REMARK 924 INTRA-LIGAND FREE ENERGY PREDICTED BY IDOCK:    9.74 KCAL/MOL
REMARK 927      BINDING AFFINITY PREDICTED BY RF-SCORE:    0.00 PKD
ROOT
HETATM    1 CL   UNL     1      -5.999   8.755  67.035  1.00  0.00    -0.056 Cl 
HETATM    2  C   UNL     1      -6.550  10.384  66.992  1.00  0.00    -0.075 A  
HETATM    3  C   UNL     1      -5.637  11.422  66.833  1.00  0.00    -0.118 A  
HETATM    4  C   UNL     1      -6.089  12.745  66.812  1.00  0.00     0.885 A  
HETATM    5  C   UNL     1      -7.456  13.037  66.951  1.00  0.00     0.302 A  
HETATM    6  C   UNL     1      -8.362  11.978  67.106  1.00  0.00    -0.181 A  
HETATM    7  C   UNL     1      -7.910  10.657  67.123  1.00  0.00    -0.117 A  
ENDROOT
BRANCH   5   8
HETATM    8  C   UNL     1      -7.932  14.470  66.994  1.00  0.00    -0.041 C  
BRANCH   8   9
HETATM    9  O   UNL     1      -9.284  14.525  66.559  1.00  0.00    -0.265 OA 
BRANCH   9  10
HETATM   10  C   UNL     1      -9.773  15.830  66.177  1.00  0.00    -0.322 C  
BRANCH  10  11
HETATM   11  C   UNL     1      -8.959  16.900  66.925  1.00  0.00    -0.244 A  
HETATM   12  C   UNL     1      -7.530  18.948  68.268  1.00  0.00    -0.286 A  
HETATM   13  C   UNL     1      -7.732  16.640  67.573  1.00  0.00    -0.165 A  
HETATM   14  C   UNL     1      -9.459  18.219  67.022  1.00  0.00    -0.274 A  
HETATM   15  C   UNL     1      -7.011  17.661  68.211  1.00  0.00    -0.220 A  
HETATM   16 CL   UNL     1      -6.658  20.189  69.081  1.00  0.00    -0.336 Cl 
HETATM   17 CL   UNL     1      -7.048  15.056  67.689  1.00  0.00    -0.188 Cl 
HETATM   18  C   UNL     1      -8.759  19.229  67.692  1.00  0.00    -0.335 A  
ENDBRANCH  10  11
BRANCH  10  19
HETATM   19  C   UNL     1     -11.311  15.907  66.360  1.00  0.00     0.222 C  
BRANCH  19  20
HETATM   20  N   UNL     1     -11.985  16.724  65.373  1.00  0.00     1.498 NA 
HETATM   21  C   UNL     1     -11.632  16.863  64.059  1.00  0.00     1.689 A  
HETATM   22  N   UNL     1     -13.477  18.091  64.485  1.00  0.00    13.714 NA 
HETATM   23  C   UNL     1     -12.543  17.754  63.543  1.00  0.00    12.568 A  
HETATM   24  C   UNL     1     -13.131  17.436  65.569  1.00  0.00    10.378 A  
ENDBRANCH  19  20
ENDBRANCH  10  19
ENDBRANCH   9  10
ENDBRANCH   8   9
ENDBRANCH   5   8
TORSDOF 6
ENDMDL
MODEL      320
REMARK 921   NORMALIZED FREE ENERGY PREDICTED BY IDOCK:   43.40 KCAL/MOL
REMARK 922        TOTAL FREE ENERGY PREDICTED BY IDOCK:   57.50 KCAL/MOL
REMARK 923 INTER-LIGAND FREE ENERGY PREDICTED BY IDOCK:    5.67 KCAL/MOL
REMARK 924 INTRA-LIGAND FREE ENERGY PREDICTED BY IDOCK:   51.83 KCAL/MOL
REMARK 927      BINDING AFFINITY PREDICTED BY RF-SCORE:    0.00 PKD
ROOT
HETATM    1 CL   UNL     1      -6.794   9.204  66.549  1.00  0.00    -0.079 Cl 
HETATM    2  C   UNL     1      -7.951   8.113  65.894  1.00  0.00    -0.102 A  
HETATM    3  C   UNL     1      -8.636   8.444  64.729  1.00  0.00    -0.077 A  
HETATM    4  C   UNL     1      -9.586   7.560  64.208  1.00  0.00     3.005 A  
HETATM    5  C   UNL     1      -9.856   6.340  64.850  1.00  0.00     1.828 A  
HETATM    6  C   UNL     1      -9.154   6.021  66.021  1.00  0.00    -0.143 A  
HETATM    7  C   UNL     1      -8.203   6.904  66.538  1.00  0.00    -0.117 A  
ENDROOT
BRANCH   5   8
HETATM    8  C   UNL     1     -10.929   5.418  64.320  1.00  0.00     2.937 C  
BRANCH   8   9
HETATM    9  O   UNL     1     -11.038   4.288  65.177  1.00  0.00    -0.194 OA 
BRANCH   9  10
HETATM   10  C   UNL     1      -9.812   3.568  65.434  1.00  0.00    -0.036 C  
BRANCH  10  11
HETATM   11  C   UNL     1      -9.275   3.985  66.815  1.00  0.00    -0.178 A  
HETATM   12  C   UNL     1      -8.304   4.649  69.395  1.00  0.00    -0.075 A  
HETATM   13  C   UNL     1      -8.933   5.311  67.154  1.00  0.00    -0.112 A  
HETATM   14  C   UNL     1      -9.063   3.002  67.808  1.00  0.00    -0.223 A  
HETATM   15  C   UNL     1      -8.482   5.643  68.442  1.00  0.00    -0.105 A  
HETATM   16 CL   UNL     1      -7.718   5.056  70.960  1.00  0.00    -0.084 Cl 
HETATM   17 CL   UNL     1      -8.982   6.614  66.019  1.00  0.00    -0.155 Cl 
HETATM   18  C   UNL     1      -8.576   3.327  69.079  1.00  0.00    -0.115 A  
ENDBRANCH  10  11
BRANCH  10  19
HETATM   19  C   UNL     1      -8.826   3.739  64.250  1.00  0.00    -0.120 C  
BRANCH  19  20
HETATM   20  N   UNL     1      -7.505   4.187  64.638  1.00  0.00    -0.071 NA 
HETATM   21  C   UNL     1      -7.147   5.468  64.960  1.00  0.00    -0.061 A  
HETATM   22  N   UNL     1      -5.356   4.107  65.151  1.00  0.00    -0.009 NA 
HETATM   23  C   UNL     1      -5.800   5.400  65.226  1.00  0.00    -0.021 A  
HETATM   24  C   UNL     1      -6.410   3.396  64.820  1.00  0.00    -0.024 A  
ENDBRANCH  19  20
ENDBRANCH  10  19
ENDBRANCH   9  10
ENDBRANCH   8   9
ENDBRANCH   5   8
TORSDOF 6
ENDMDL
