MODEL        1
REMARK 921   NORMALIZED FREE ENERGY PREDICTED BY IDOCK:   -5.49 KCAL/MOL
REMARK 922        TOTAL FREE ENERGY PREDICTED BY IDOCK:   -5.97 KCAL/MOL
REMARK 923 INTER-LIGAND FREE ENERGY PREDICTED BY IDOCK:   -5.81 KCAL/MOL
REMARK 924 INTRA-LIGAND FREE ENERGY PREDICTED BY IDOCK:   -0.15 KCAL/MOL
REMARK 927      BINDING AFFINITY PREDICTED BY RF-SCORE:    0.00 PKD
ROOT
HETATM    1  C   UNL     1     -11.609  12.364  66.749  1.00  0.00    -0.444 C  
HETATM    2  C   UNL     1     -11.649  13.582  67.605  1.00  0.00    -0.339 C  
HETATM    3  N   UNL     1     -12.103  13.606  68.818  1.00  0.00    -0.348 NA 
HETATM    4  N   UNL     1     -11.958  14.912  69.261  1.00  0.00    -0.305 N  
HETATM    5  C   UNL     1     -11.178  14.905  67.101  1.00  0.00    -0.345 C  
HETATM    6  C   UNL     1     -11.376  15.767  68.310  1.00  0.00    -0.354 C  
HETATM    7  O   UNL     1     -11.079  16.949  68.362  1.00  0.00    -0.341 OA 
ENDROOT
BRANCH   4   8
HETATM    8  C   UNL     1     -12.417  15.249  70.561  1.00  0.00    -0.405 A  
HETATM    9  C   UNL     1     -13.731  14.986  70.971  1.00  0.00    -0.417 A  
HETATM   10  C   UNL     1     -14.158  15.300  72.266  1.00  0.00    -0.651 A  
HETATM   11  C   UNL     1     -13.280  15.886  73.172  1.00  0.00    -0.692 A  
HETATM   12  C   UNL     1     -11.973  16.162  72.782  1.00  0.00    -0.638 A  
HETATM   13  C   UNL     1     -11.547  15.849  71.487  1.00  0.00    -0.537 A  
ENDBRANCH   4   8
TORSDOF 1
ENDMDL
MODEL        2
REMARK 921   NORMALIZED FREE ENERGY PREDICTED BY IDOCK:   -5.35 KCAL/MOL
REMARK 922        TOTAL FREE ENERGY PREDICTED BY IDOCK:   -5.82 KCAL/MOL
REMARK 923 INTER-LIGAND FREE ENERGY PREDICTED BY IDOCK:   -5.88 KCAL/MOL
REMARK 924 INTRA-LIGAND FREE ENERGY PREDICTED BY IDOCK:    0.07 KCAL/MOL
REMARK 927      BINDING AFFINITY PREDICTED BY RF-SCORE:    0.00 PKD
ROOT
HETATM    1  C   UNL     1     -10.080  12.687  66.368  1.00  0.00    -0.263 C  
HETATM    2  C   UNL     1     -10.371  14.105  66.022  1.00  0.00    -0.309 C  
HETATM    3  N   UNL     1     -10.071  15.116  66.775  1.00  0.00    -0.253 NA 
HETATM    4  N   UNL     1     -10.499  16.246  66.096  1.00  0.00    -0.329 N  
HETATM    5  C   UNL     1     -11.073  14.471  64.757  1.00  0.00    -0.400 C  
HETATM    6  C   UNL     1     -11.086  15.966  64.851  1.00  0.00    -0.389 C  
HETATM    7  O   UNL     1     -11.542  16.700  63.990  1.00  0.00    -1.197 OA 
ENDROOT
BRANCH   4   8
HETATM    8  C   UNL     1     -10.337  17.516  66.709  1.00  0.00    -0.314 A  
HETATM    9  C   UNL     1     -10.436  18.707  65.977  1.00  0.00    -0.456 A  
HETATM   10  C   UNL     1     -10.301  19.951  66.604  1.00  0.00    -0.608 A  
HETATM   11  C   UNL     1     -10.062  20.026  67.972  1.00  0.00    -0.557 A  
HETATM   12  C   UNL     1      -9.953  18.854  68.716  1.00  0.00    -0.466 A  
HETATM   13  C   UNL     1     -10.086  17.611  68.089  1.00  0.00    -0.347 A  
ENDBRANCH   4   8
TORSDOF 1
ENDMDL
MODEL        3
REMARK 921   NORMALIZED FREE ENERGY PREDICTED BY IDOCK:   -5.34 KCAL/MOL
REMARK 922        TOTAL FREE ENERGY PREDICTED BY IDOCK:   -5.80 KCAL/MOL
REMARK 923 INTER-LIGAND FREE ENERGY PREDICTED BY IDOCK:   -5.91 KCAL/MOL
REMARK 924 INTRA-LIGAND FREE ENERGY PREDICTED BY IDOCK:    0.11 KCAL/MOL
REMARK 927      BINDING AFFINITY PREDICTED BY RF-SCORE:    0.00 PKD
ROOT
HETATM    1  C   UNL     1      -9.784  12.814  66.579  1.00  0.00    -0.255 C  
HETATM    2  C   UNL     1     -10.120  14.215  66.203  1.00  0.00    -0.313 C  
HETATM    3  N   UNL     1      -9.893  15.246  66.954  1.00  0.00    -0.231 NA 
HETATM    4  N   UNL     1     -10.340  16.349  66.245  1.00  0.00    -0.323 N  
HETATM    5  C   UNL     1     -10.785  14.537  64.907  1.00  0.00    -0.448 C  
HETATM    6  C   UNL     1     -10.865  16.031  64.981  1.00  0.00    -0.404 C  
HETATM    7  O   UNL     1     -11.316  16.735  64.093  1.00  0.00    -1.194 OA 
ENDROOT
BRANCH   4   8
HETATM    8  C   UNL     1     -10.255  17.631  66.847  1.00  0.00    -0.334 A  
HETATM    9  C   UNL     1      -9.995  17.788  68.216  1.00  0.00    -0.355 A  
HETATM   10  C   UNL     1      -9.888  19.061  68.788  1.00  0.00    -0.485 A  
HETATM   11  C   UNL     1     -10.041  20.199  68.002  1.00  0.00    -0.519 A  
HETATM   12  C   UNL     1     -10.307  20.065  66.643  1.00  0.00    -0.565 A  
HETATM   13  C   UNL     1     -10.415  18.792  66.072  1.00  0.00    -0.483 A  
ENDBRANCH   4   8
TORSDOF 1
ENDMDL
MODEL        4
REMARK 921   NORMALIZED FREE ENERGY PREDICTED BY IDOCK:   -5.30 KCAL/MOL
REMARK 922        TOTAL FREE ENERGY PREDICTED BY IDOCK:   -5.77 KCAL/MOL
REMARK 923 INTER-LIGAND FREE ENERGY PREDICTED BY IDOCK:   -5.57 KCAL/MOL
REMARK 924 INTRA-LIGAND FREE ENERGY PREDICTED BY IDOCK:   -0.20 KCAL/MOL
REMARK 927      BINDING AFFINITY PREDICTED BY RF-SCORE:    0.00 PKD
ROOT
HETATM    1  C   UNL     1     -10.439  16.203  66.279  1.00  0.00    -0.321 C  
HETATM    2  C   UNL     1     -11.019  15.458  67.430  1.00  0.00    -0.312 C  
HETATM    3  N   UNL     1     -11.458  16.016  68.514  1.00  0.00    -0.377 NA 
HETATM    4  N   UNL     1     -11.917  14.988  69.322  1.00  0.00    -0.305 N  
HETATM    5  C   UNL     1     -11.115  13.969  67.426  1.00  0.00    -0.317 C  
HETATM    6  C   UNL     1     -11.787  13.715  68.741  1.00  0.00    -0.360 C  
HETATM    7  O   UNL     1     -12.102  12.607  69.144  1.00  0.00    -0.249 OA 
ENDROOT
BRANCH   4   8
HETATM    8  C   UNL     1     -12.423  15.302  70.610  1.00  0.00    -0.406 A  
HETATM    9  C   UNL     1     -13.759  15.061  70.958  1.00  0.00    -0.417 A  
HETATM   10  C   UNL     1     -14.234  15.351  72.242  1.00  0.00    -0.639 A  
HETATM   11  C   UNL     1     -13.381  15.891  73.200  1.00  0.00    -0.681 A  
HETATM   12  C   UNL     1     -12.053  16.145  72.872  1.00  0.00    -0.643 A  
HETATM   13  C   UNL     1     -11.579  15.855  71.589  1.00  0.00    -0.541 A  
ENDBRANCH   4   8
TORSDOF 1
ENDMDL
MODEL        5
REMARK 921   NORMALIZED FREE ENERGY PREDICTED BY IDOCK:   -5.26 KCAL/MOL
REMARK 922        TOTAL FREE ENERGY PREDICTED BY IDOCK:   -5.72 KCAL/MOL
REMARK 923 INTER-LIGAND FREE ENERGY PREDICTED BY IDOCK:   -5.55 KCAL/MOL
REMARK 924 INTRA-LIGAND FREE ENERGY PREDICTED BY IDOCK:   -0.18 KCAL/MOL
REMARK 927      BINDING AFFINITY PREDICTED BY RF-SCORE:    0.00 PKD
ROOT
HETATM    1  C   UNL     1     -12.190  10.986  70.734  1.00  0.00    -0.480 C  
HETATM    2  C   UNL     1     -11.998  11.854  69.539  1.00  0.00    -0.292 C  
HETATM    3  N   UNL     1     -11.915  11.415  68.323  1.00  0.00    -0.610 NA 
HETATM    4  N   UNL     1     -11.749  12.530  67.518  1.00  0.00    -0.375 N  
HETATM    5  C   UNL     1     -11.859  13.334  69.666  1.00  0.00    -0.391 C  
HETATM    6  C   UNL     1     -11.737  13.742  68.229  1.00  0.00    -0.359 C  
HETATM    7  O   UNL     1     -11.639  14.898  67.853  1.00  0.00    -0.329 OA 
ENDROOT
BRANCH   4   8
HETATM    8  C   UNL     1     -11.586  12.347  66.120  1.00  0.00    -0.396 A  
HETATM    9  C   UNL     1     -12.454  12.937  65.191  1.00  0.00    -0.561 A  
HETATM   10  C   UNL     1     -12.261  12.769  63.816  1.00  0.00    -0.572 A  
HETATM   11  C   UNL     1     -11.198  12.005  63.345  1.00  0.00    -0.481 A  
HETATM   12  C   UNL     1     -10.329  11.404  64.250  1.00  0.00    -0.383 A  
HETATM   13  C   UNL     1     -10.523  11.572  65.625  1.00  0.00    -0.317 A  
ENDBRANCH   4   8
TORSDOF 1
ENDMDL
MODEL        6
REMARK 921   NORMALIZED FREE ENERGY PREDICTED BY IDOCK:   -5.23 KCAL/MOL
REMARK 922        TOTAL FREE ENERGY PREDICTED BY IDOCK:   -5.69 KCAL/MOL
REMARK 923 INTER-LIGAND FREE ENERGY PREDICTED BY IDOCK:   -5.47 KCAL/MOL
REMARK 924 INTRA-LIGAND FREE ENERGY PREDICTED BY IDOCK:   -0.22 KCAL/MOL
REMARK 927      BINDING AFFINITY PREDICTED BY RF-SCORE:    0.00 PKD
ROOT
HETATM    1  C   UNL     1     -11.419  14.555  66.137  1.00  0.00    -0.357 C  
HETATM    2  C   UNL     1     -11.619  14.119  67.547  1.00  0.00    -0.367 C  
HETATM    3  N   UNL     1     -12.022  14.898  68.501  1.00  0.00    -0.283 NA 
HETATM    4  N   UNL     1     -12.085  14.114  69.642  1.00  0.00    -0.334 N  
HETATM    5  C   UNL     1     -11.337  12.719  67.978  1.00  0.00    -0.335 C  
HETATM    6  C   UNL     1     -11.725  12.773  69.424  1.00  0.00    -0.319 C  
HETATM    7  O   UNL     1     -11.690  11.814  70.177  1.00  0.00    -0.316 OA 
ENDROOT
BRANCH   4   8
HETATM    8  C   UNL     1     -12.461  14.719  70.869  1.00  0.00    -0.328 A  
HETATM    9  C   UNL     1     -11.509  15.221  71.768  1.00  0.00    -0.494 A  
HETATM   10  C   UNL     1     -11.899  15.839  72.960  1.00  0.00    -0.551 A  
HETATM   11  C   UNL     1     -13.248  15.964  73.278  1.00  0.00    -0.698 A  
HETATM   12  C   UNL     1     -14.209  15.467  72.403  1.00  0.00    -0.584 A  
HETATM   13  C   UNL     1     -13.818  14.847  71.211  1.00  0.00    -0.500 A  
ENDBRANCH   4   8
TORSDOF 1
ENDMDL
MODEL        7
REMARK 921   NORMALIZED FREE ENERGY PREDICTED BY IDOCK:   -5.21 KCAL/MOL
REMARK 922        TOTAL FREE ENERGY PREDICTED BY IDOCK:   -5.67 KCAL/MOL
REMARK 923 INTER-LIGAND FREE ENERGY PREDICTED BY IDOCK:   -5.56 KCAL/MOL
REMARK 924 INTRA-LIGAND FREE ENERGY PREDICTED BY IDOCK:   -0.11 KCAL/MOL
REMARK 927      BINDING AFFINITY PREDICTED BY RF-SCORE:    0.00 PKD
ROOT
HETATM    1  C   UNL     1      -9.926  11.156  63.224  1.00  0.00    -0.419 C  
HETATM    2  C   UNL     1     -10.770  11.866  64.225  1.00  0.00    -0.338 C  
HETATM    3  N   UNL     1     -10.647  11.734  65.508  1.00  0.00    -0.267 NA 
HETATM    4  N   UNL     1     -11.604  12.560  66.076  1.00  0.00    -0.384 N  
HETATM    5  C   UNL     1     -11.867  12.786  63.806  1.00  0.00    -0.572 C  
HETATM    6  C   UNL     1     -12.370  13.267  65.133  1.00  0.00    -0.466 C  
HETATM    7  O   UNL     1     -13.264  14.085  65.270  1.00  0.00    -0.782 OA 
ENDROOT
BRANCH   4   8
HETATM    8  C   UNL     1     -11.731  12.589  67.489  1.00  0.00    -0.374 A  
HETATM    9  C   UNL     1     -11.845  13.795  68.196  1.00  0.00    -0.411 A  
HETATM   10  C   UNL     1     -11.999  13.803  69.587  1.00  0.00    -0.399 A  
HETATM   11  C   UNL     1     -12.038  12.607  70.296  1.00  0.00    -0.372 A  
HETATM   12  C   UNL     1     -11.919  11.399  69.614  1.00  0.00    -0.416 A  
HETATM   13  C   UNL     1     -11.765  11.392  68.224  1.00  0.00    -0.359 A  
ENDBRANCH   4   8
TORSDOF 1
ENDMDL
MODEL        8
REMARK 921   NORMALIZED FREE ENERGY PREDICTED BY IDOCK:   -5.15 KCAL/MOL
REMARK 922        TOTAL FREE ENERGY PREDICTED BY IDOCK:   -5.60 KCAL/MOL
REMARK 923 INTER-LIGAND FREE ENERGY PREDICTED BY IDOCK:   -5.44 KCAL/MOL
REMARK 924 INTRA-LIGAND FREE ENERGY PREDICTED BY IDOCK:   -0.16 KCAL/MOL
REMARK 927      BINDING AFFINITY PREDICTED BY RF-SCORE:    0.00 PKD
ROOT
HETATM    1  C   UNL     1      -9.590  18.298  68.474  1.00  0.00    -0.358 C  
HETATM    2  C   UNL     1     -10.452  17.089  68.576  1.00  0.00    -0.373 C  
HETATM    3  N   UNL     1     -11.030  16.695  69.668  1.00  0.00    -0.290 NA 
HETATM    4  N   UNL     1     -11.738  15.550  69.341  1.00  0.00    -0.345 N  
HETATM    5  C   UNL     1     -10.699  16.205  67.400  1.00  0.00    -0.291 C  
HETATM    6  C   UNL     1     -11.631  15.189  67.987  1.00  0.00    -0.328 C  
HETATM    7  O   UNL     1     -12.130  14.274  67.353  1.00  0.00    -0.400 OA 
ENDROOT
BRANCH   4   8
HETATM    8  C   UNL     1     -12.445  14.866  70.364  1.00  0.00    -0.350 A  
HETATM    9  C   UNL     1     -12.226  13.507  70.631  1.00  0.00    -0.434 A  
HETATM   10  C   UNL     1     -12.912  12.857  71.663  1.00  0.00    -0.410 A  
HETATM   11  C   UNL     1     -13.831  13.552  72.443  1.00  0.00    -0.687 A  
HETATM   12  C   UNL     1     -14.068  14.899  72.189  1.00  0.00    -0.616 A  
HETATM   13  C   UNL     1     -13.382  15.549  71.157  1.00  0.00    -0.553 A  
ENDBRANCH   4   8
TORSDOF 1
ENDMDL
MODEL        9
REMARK 921   NORMALIZED FREE ENERGY PREDICTED BY IDOCK:   -5.13 KCAL/MOL
REMARK 922        TOTAL FREE ENERGY PREDICTED BY IDOCK:   -5.58 KCAL/MOL
REMARK 923 INTER-LIGAND FREE ENERGY PREDICTED BY IDOCK:   -5.37 KCAL/MOL
REMARK 924 INTRA-LIGAND FREE ENERGY PREDICTED BY IDOCK:   -0.21 KCAL/MOL
REMARK 927      BINDING AFFINITY PREDICTED BY RF-SCORE:    0.00 PKD
ROOT
HETATM    1  C   UNL     1     -11.817  12.811  66.160  1.00  0.00    -0.484 C  
HETATM    2  C   UNL     1     -11.887  12.654  67.639  1.00  0.00    -0.329 C  
HETATM    3  N   UNL     1     -11.870  11.514  68.254  1.00  0.00    -0.542 NA 
HETATM    4  N   UNL     1     -11.944  11.801  69.607  1.00  0.00    -0.317 N  
HETATM    5  C   UNL     1     -12.010  13.835  68.543  1.00  0.00    -0.402 C  
HETATM    6  C   UNL     1     -11.997  13.177  69.889  1.00  0.00    -0.317 C  
HETATM    7  O   UNL     1     -12.041  13.783  70.946  1.00  0.00    -0.341 OA 
ENDROOT
BRANCH   4   8
HETATM    8  C   UNL     1     -11.988  10.727  70.534  1.00  0.00    -0.361 A  
HETATM    9  C   UNL     1     -13.142  10.437  71.275  1.00  0.00    -0.494 A  
HETATM   10  C   UNL     1     -13.176   9.357  72.164  1.00  0.00    -0.541 A  
HETATM   11  C   UNL     1     -12.055   8.549  72.330  1.00  0.00    -0.455 A  
HETATM   12  C   UNL     1     -10.897   8.825  71.609  1.00  0.00    -0.399 A  
HETATM   13  C   UNL     1     -10.864   9.905  70.722  1.00  0.00    -0.387 A  
ENDBRANCH   4   8
TORSDOF 1
ENDMDL
MODEL       10
REMARK 921   NORMALIZED FREE ENERGY PREDICTED BY IDOCK:   -5.07 KCAL/MOL
REMARK 922        TOTAL FREE ENERGY PREDICTED BY IDOCK:   -5.52 KCAL/MOL
REMARK 923 INTER-LIGAND FREE ENERGY PREDICTED BY IDOCK:   -5.31 KCAL/MOL
REMARK 924 INTRA-LIGAND FREE ENERGY PREDICTED BY IDOCK:   -0.21 KCAL/MOL
REMARK 927      BINDING AFFINITY PREDICTED BY RF-SCORE:    0.00 PKD
ROOT
HETATM    1  C   UNL     1     -12.057  15.544  69.725  1.00  0.00    -0.372 C  
HETATM    2  C   UNL     1     -11.984  14.073  69.506  1.00  0.00    -0.339 C  
HETATM    3  N   UNL     1     -12.077  13.189  70.449  1.00  0.00    -0.350 NA 
HETATM    4  N   UNL     1     -11.969  11.952  69.834  1.00  0.00    -0.329 N  
HETATM    5  C   UNL     1     -11.767  13.497  68.147  1.00  0.00    -0.396 C  
HETATM    6  C   UNL     1     -11.814  12.028  68.439  1.00  0.00    -0.300 C  
HETATM    7  O   UNL     1     -11.716  11.159  67.589  1.00  0.00    -0.573 OA 
ENDROOT
BRANCH   4   8
HETATM    8  C   UNL     1     -11.994  10.783  70.638  1.00  0.00    -0.367 A  
HETATM    9  C   UNL     1     -10.869   9.958  70.777  1.00  0.00    -0.387 A  
HETATM   10  C   UNL     1     -10.903   8.824  71.596  1.00  0.00    -0.399 A  
HETATM   11  C   UNL     1     -12.063   8.493  72.289  1.00  0.00    -0.455 A  
HETATM   12  C   UNL     1     -13.193   9.295  72.159  1.00  0.00    -0.535 A  
HETATM   13  C   UNL     1     -13.159  10.428  71.339  1.00  0.00    -0.512 A  
ENDBRANCH   4   8
TORSDOF 1
ENDMDL
MODEL       11
REMARK 921   NORMALIZED FREE ENERGY PREDICTED BY IDOCK:   -5.06 KCAL/MOL
REMARK 922        TOTAL FREE ENERGY PREDICTED BY IDOCK:   -5.50 KCAL/MOL
REMARK 923 INTER-LIGAND FREE ENERGY PREDICTED BY IDOCK:   -5.31 KCAL/MOL
REMARK 924 INTRA-LIGAND FREE ENERGY PREDICTED BY IDOCK:   -0.20 KCAL/MOL
REMARK 927      BINDING AFFINITY PREDICTED BY RF-SCORE:    0.00 PKD
ROOT
HETATM    1  C   UNL     1     -12.410  12.150  63.362  1.00  0.00    -0.648 C  
HETATM    2  C   UNL     1     -11.806  12.627  64.636  1.00  0.00    -0.380 C  
HETATM    3  N   UNL     1     -12.294  12.382  65.811  1.00  0.00    -0.603 NA 
HETATM    4  N   UNL     1     -11.441  12.988  66.720  1.00  0.00    -0.327 N  
HETATM    5  C   UNL     1     -10.573  13.466  64.649  1.00  0.00    -0.431 C  
HETATM    6  C   UNL     1     -10.351  13.640  66.120  1.00  0.00    -0.297 C  
HETATM    7  O   UNL     1      -9.407  14.245  66.601  1.00  0.00    -0.268 OA 
ENDROOT
BRANCH   4   8
HETATM    8  C   UNL     1     -11.753  12.921  68.103  1.00  0.00    -0.352 A  
HETATM    9  C   UNL     1     -12.023  14.072  68.856  1.00  0.00    -0.387 A  
HETATM   10  C   UNL     1     -12.356  13.984  70.212  1.00  0.00    -0.425 A  
HETATM   11  C   UNL     1     -12.423  12.744  70.840  1.00  0.00    -0.373 A  
HETATM   12  C   UNL     1     -12.153  11.590  70.111  1.00  0.00    -0.432 A  
HETATM   13  C   UNL     1     -11.818  11.678  68.756  1.00  0.00    -0.387 A  
ENDBRANCH   4   8
TORSDOF 1
ENDMDL
MODEL       12
REMARK 921   NORMALIZED FREE ENERGY PREDICTED BY IDOCK:   -5.02 KCAL/MOL
REMARK 922        TOTAL FREE ENERGY PREDICTED BY IDOCK:   -5.46 KCAL/MOL
REMARK 923 INTER-LIGAND FREE ENERGY PREDICTED BY IDOCK:   -5.24 KCAL/MOL
REMARK 924 INTRA-LIGAND FREE ENERGY PREDICTED BY IDOCK:   -0.22 KCAL/MOL
REMARK 927      BINDING AFFINITY PREDICTED BY RF-SCORE:    0.00 PKD
ROOT
HETATM    1  C   UNL     1     -10.173  19.611  65.988  1.00  0.00    -0.587 C  
HETATM    2  C   UNL     1     -10.424  18.163  66.230  1.00  0.00    -0.361 C  
HETATM    3  N   UNL     1     -10.522  17.273  65.294  1.00  0.00    -0.656 NA 
HETATM    4  N   UNL     1     -10.747  16.063  65.932  1.00  0.00    -0.309 N  
HETATM    5  C   UNL     1     -10.612  17.625  67.609  1.00  0.00    -0.364 C  
HETATM    6  C   UNL     1     -10.784  16.163  67.333  1.00  0.00    -0.291 C  
HETATM    7  O   UNL     1     -10.931  15.317  68.199  1.00  0.00    -0.270 OA 
ENDROOT
BRANCH   4   8
HETATM    8  C   UNL     1     -10.940  14.899  65.143  1.00  0.00    -0.399 A  
HETATM    9  C   UNL     1      -9.945  13.919  65.018  1.00  0.00    -0.213 A  
HETATM   10  C   UNL     1     -10.163  12.764  64.259  1.00  0.00    -0.352 A  
HETATM   11  C   UNL     1     -11.378  12.570  63.609  1.00  0.00    -0.555 A  
HETATM   12  C   UNL     1     -12.376  13.534  63.715  1.00  0.00    -0.392 A  
HETATM   13  C   UNL     1     -12.157  14.689  64.473  1.00  0.00    -0.490 A  
ENDBRANCH   4   8
TORSDOF 1
ENDMDL
MODEL       13
REMARK 921   NORMALIZED FREE ENERGY PREDICTED BY IDOCK:   -5.01 KCAL/MOL
REMARK 922        TOTAL FREE ENERGY PREDICTED BY IDOCK:   -5.46 KCAL/MOL
REMARK 923 INTER-LIGAND FREE ENERGY PREDICTED BY IDOCK:   -5.28 KCAL/MOL
REMARK 924 INTRA-LIGAND FREE ENERGY PREDICTED BY IDOCK:   -0.18 KCAL/MOL
REMARK 927      BINDING AFFINITY PREDICTED BY RF-SCORE:    0.00 PKD
ROOT
HETATM    1  C   UNL     1      -9.862  19.139  68.521  1.00  0.00    -0.483 C  
HETATM    2  C   UNL     1     -10.251  18.131  67.496  1.00  0.00    -0.371 C  
HETATM    3  N   UNL     1     -10.368  16.862  67.729  1.00  0.00    -0.315 NA 
HETATM    4  N   UNL     1     -10.749  16.281  66.530  1.00  0.00    -0.244 N  
HETATM    5  C   UNL     1     -10.517  18.521  66.081  1.00  0.00    -0.447 C  
HETATM    6  C   UNL     1     -10.901  17.204  65.481  1.00  0.00    -0.055 C  
HETATM    7  O   UNL     1     -11.244  17.056  64.319  1.00  0.00    -1.186 OA 
ENDROOT
BRANCH   4   8
HETATM    8  C   UNL     1     -10.913  14.873  66.473  1.00  0.00    -0.327 A  
HETATM    9  C   UNL     1     -11.859  14.207  67.265  1.00  0.00    -0.452 A  
HETATM   10  C   UNL     1     -12.027  12.821  67.175  1.00  0.00    -0.351 A  
HETATM   11  C   UNL     1     -11.250  12.075  66.294  1.00  0.00    -0.394 A  
HETATM   12  C   UNL     1     -10.300  12.716  65.504  1.00  0.00    -0.305 A  
HETATM   13  C   UNL     1     -10.132  14.102  65.595  1.00  0.00    -0.350 A  
ENDBRANCH   4   8
TORSDOF 1
ENDMDL
MODEL       14
REMARK 921   NORMALIZED FREE ENERGY PREDICTED BY IDOCK:   -5.00 KCAL/MOL
REMARK 922        TOTAL FREE ENERGY PREDICTED BY IDOCK:   -5.44 KCAL/MOL
REMARK 923 INTER-LIGAND FREE ENERGY PREDICTED BY IDOCK:   -5.22 KCAL/MOL
REMARK 924 INTRA-LIGAND FREE ENERGY PREDICTED BY IDOCK:   -0.22 KCAL/MOL
REMARK 927      BINDING AFFINITY PREDICTED BY RF-SCORE:    0.00 PKD
ROOT
HETATM    1  C   UNL     1      -9.867  10.423  64.350  1.00  0.00    -0.395 C  
HETATM    2  C   UNL     1     -10.493  11.764  64.519  1.00  0.00    -0.304 C  
HETATM    3  N   UNL     1     -10.162  12.613  65.440  1.00  0.00    -0.284 NA 
HETATM    4  N   UNL     1     -10.965  13.725  65.250  1.00  0.00    -0.310 N  
HETATM    5  C   UNL     1     -11.597  12.227  63.628  1.00  0.00    -0.581 C  
HETATM    6  C   UNL     1     -11.843  13.606  64.158  1.00  0.00    -0.422 C  
HETATM    7  O   UNL     1     -12.659  14.382  63.689  1.00  0.00    -0.817 OA 
ENDROOT
BRANCH   4   8
HETATM    8  C   UNL     1     -10.851  14.815  66.151  1.00  0.00    -0.321 A  
HETATM    9  C   UNL     1     -10.179  15.995  65.802  1.00  0.00    -0.401 A  
HETATM   10  C   UNL     1     -10.101  17.071  66.693  1.00  0.00    -0.308 A  
HETATM   11  C   UNL     1     -10.689  16.984  67.951  1.00  0.00    -0.348 A  
HETATM   12  C   UNL     1     -11.354  15.819  68.320  1.00  0.00    -0.354 A  
HETATM   13  C   UNL     1     -11.432  14.744  67.429  1.00  0.00    -0.376 A  
ENDBRANCH   4   8
TORSDOF 1
ENDMDL
MODEL       15
REMARK 921   NORMALIZED FREE ENERGY PREDICTED BY IDOCK:   -4.98 KCAL/MOL
REMARK 922        TOTAL FREE ENERGY PREDICTED BY IDOCK:   -5.43 KCAL/MOL
REMARK 923 INTER-LIGAND FREE ENERGY PREDICTED BY IDOCK:   -5.25 KCAL/MOL
REMARK 924 INTRA-LIGAND FREE ENERGY PREDICTED BY IDOCK:   -0.17 KCAL/MOL
REMARK 927      BINDING AFFINITY PREDICTED BY RF-SCORE:    0.00 PKD
ROOT
HETATM    1  C   UNL     1     -11.729  15.662  69.691  1.00  0.00    -0.373 C  
HETATM    2  C   UNL     1     -11.734  14.372  68.947  1.00  0.00    -0.322 C  
HETATM    3  N   UNL     1     -11.540  14.265  67.670  1.00  0.00    -0.348 NA 
HETATM    4  N   UNL     1     -11.615  12.913  67.378  1.00  0.00    -0.339 N  
HETATM    5  C   UNL     1     -11.996  13.075  69.637  1.00  0.00    -0.367 C  
HETATM    6  C   UNL     1     -11.853  12.106  68.504  1.00  0.00    -0.310 C  
HETATM    7  O   UNL     1     -11.951  10.896  68.623  1.00  0.00    -0.484 OA 
ENDROOT
BRANCH   4   8
HETATM    8  C   UNL     1     -11.481  12.496  66.028  1.00  0.00    -0.377 A  
HETATM    9  C   UNL     1     -12.343  12.958  65.023  1.00  0.00    -0.541 A  
HETATM   10  C   UNL     1     -12.179  12.557  63.693  1.00  0.00    -0.642 A  
HETATM   11  C   UNL     1     -11.152  11.685  63.344  1.00  0.00    -0.422 A  
HETATM   12  C   UNL     1     -10.291  11.209  64.328  1.00  0.00    -0.413 A  
HETATM   13  C   UNL     1     -10.456  11.609  65.658  1.00  0.00    -0.314 A  
ENDBRANCH   4   8
TORSDOF 1
ENDMDL
MODEL       16
REMARK 921   NORMALIZED FREE ENERGY PREDICTED BY IDOCK:   -4.93 KCAL/MOL
REMARK 922        TOTAL FREE ENERGY PREDICTED BY IDOCK:   -5.37 KCAL/MOL
REMARK 923 INTER-LIGAND FREE ENERGY PREDICTED BY IDOCK:   -5.33 KCAL/MOL
REMARK 924 INTRA-LIGAND FREE ENERGY PREDICTED BY IDOCK:   -0.05 KCAL/MOL
REMARK 927      BINDING AFFINITY PREDICTED BY RF-SCORE:    0.00 PKD
ROOT
HETATM    1  C   UNL     1     -10.149  16.522  69.233  1.00  0.00    -0.270 C  
HETATM    2  C   UNL     1     -10.428  16.213  67.804  1.00  0.00    -0.295 C  
HETATM    3  N   UNL     1     -10.597  15.017  67.335  1.00  0.00    -0.266 NA 
HETATM    4  N   UNL     1     -10.838  15.161  65.978  1.00  0.00    -0.329 N  
HETATM    5  C   UNL     1     -10.508  17.290  66.774  1.00  0.00    -0.261 C  
HETATM    6  C   UNL     1     -10.840  16.499  65.547  1.00  0.00    -0.188 C  
HETATM    7  O   UNL     1     -11.038  16.992  64.449  1.00  0.00    -1.144 OA 
ENDROOT
BRANCH   4   8
HETATM    8  C   UNL     1     -11.021  13.998  65.187  1.00  0.00    -0.353 A  
HETATM    9  C   UNL     1     -11.929  13.966  64.120  1.00  0.00    -0.464 A  
HETATM   10  C   UNL     1     -12.077  12.818  63.333  1.00  0.00    -0.619 A  
HETATM   11  C   UNL     1     -11.321  11.681  63.601  1.00  0.00    -0.485 A  
HETATM   12  C   UNL     1     -10.418  11.690  64.661  1.00  0.00    -0.354 A  
HETATM   13  C   UNL     1     -10.272  12.837  65.448  1.00  0.00    -0.299 A  
ENDBRANCH   4   8
TORSDOF 1
ENDMDL
MODEL       17
REMARK 921   NORMALIZED FREE ENERGY PREDICTED BY IDOCK:   -4.93 KCAL/MOL
REMARK 922        TOTAL FREE ENERGY PREDICTED BY IDOCK:   -5.37 KCAL/MOL
REMARK 923 INTER-LIGAND FREE ENERGY PREDICTED BY IDOCK:   -5.19 KCAL/MOL
REMARK 924 INTRA-LIGAND FREE ENERGY PREDICTED BY IDOCK:   -0.18 KCAL/MOL
REMARK 927      BINDING AFFINITY PREDICTED BY RF-SCORE:    0.00 PKD
ROOT
HETATM    1  C   UNL     1     -13.778  14.436  72.477  1.00  0.00    -0.589 C  
HETATM    2  C   UNL     1     -13.203  13.240  71.801  1.00  0.00    -0.405 C  
HETATM    3  N   UNL     1     -13.401  12.019  72.186  1.00  0.00    -0.439 NA 
HETATM    4  N   UNL     1     -12.707  11.214  71.297  1.00  0.00    -0.422 N  
HETATM    5  C   UNL     1     -12.311  13.370  70.612  1.00  0.00    -0.423 C  
HETATM    6  C   UNL     1     -12.044  11.933  70.287  1.00  0.00    -0.325 C  
HETATM    7  O   UNL     1     -11.372  11.560  69.339  1.00  0.00    -0.252 OA 
ENDROOT
BRANCH   4   8
HETATM    8  C   UNL     1     -12.709   9.809  71.499  1.00  0.00    -0.406 A  
HETATM    9  C   UNL     1     -13.894   9.062  71.478  1.00  0.00    -0.367 A  
HETATM   10  C   UNL     1     -13.874   7.673  71.651  1.00  0.00    -0.480 A  
HETATM   11  C   UNL     1     -12.669   7.009  71.852  1.00  0.00    -0.314 A  
HETATM   12  C   UNL     1     -11.481   7.733  71.883  1.00  0.00    -0.320 A  
HETATM   13  C   UNL     1     -11.502   9.121  71.711  1.00  0.00    -0.452 A  
ENDBRANCH   4   8
TORSDOF 1
ENDMDL
MODEL       18
REMARK 921   NORMALIZED FREE ENERGY PREDICTED BY IDOCK:   -4.93 KCAL/MOL
REMARK 922        TOTAL FREE ENERGY PREDICTED BY IDOCK:   -5.37 KCAL/MOL
REMARK 923 INTER-LIGAND FREE ENERGY PREDICTED BY IDOCK:   -5.20 KCAL/MOL
REMARK 924 INTRA-LIGAND FREE ENERGY PREDICTED BY IDOCK:   -0.17 KCAL/MOL
REMARK 927      BINDING AFFINITY PREDICTED BY RF-SCORE:    0.00 PKD
ROOT
HETATM    1  C   UNL     1     -11.058  10.158  67.747  1.00  0.00    -0.293 C  
HETATM    2  C   UNL     1     -11.394  11.531  68.213  1.00  0.00    -0.286 C  
HETATM    3  N   UNL     1     -11.608  11.850  69.450  1.00  0.00    -0.302 NA 
HETATM    4  N   UNL     1     -11.878  13.209  69.460  1.00  0.00    -0.316 N  
HETATM    5  C   UNL     1     -11.537  12.666  67.255  1.00  0.00    -0.428 C  
HETATM    6  C   UNL     1     -11.825  13.803  68.187  1.00  0.00    -0.376 C  
HETATM    7  O   UNL     1     -11.980  14.958  67.828  1.00  0.00    -0.321 OA 
ENDROOT
BRANCH   4   8
HETATM    8  C   UNL     1     -12.196  13.836  70.693  1.00  0.00    -0.363 A  
HETATM    9  C   UNL     1     -11.472  14.938  71.170  1.00  0.00    -0.312 A  
HETATM   10  C   UNL     1     -11.818  15.560  72.374  1.00  0.00    -0.570 A  
HETATM   11  C   UNL     1     -12.891  15.090  73.125  1.00  0.00    -0.615 A  
HETATM   12  C   UNL     1     -13.618  13.993  72.673  1.00  0.00    -0.623 A  
HETATM   13  C   UNL     1     -13.271  13.370  71.469  1.00  0.00    -0.395 A  
ENDBRANCH   4   8
TORSDOF 1
ENDMDL
MODEL       19
REMARK 921   NORMALIZED FREE ENERGY PREDICTED BY IDOCK:   -4.92 KCAL/MOL
REMARK 922        TOTAL FREE ENERGY PREDICTED BY IDOCK:   -5.36 KCAL/MOL
REMARK 923 INTER-LIGAND FREE ENERGY PREDICTED BY IDOCK:   -5.45 KCAL/MOL
REMARK 924 INTRA-LIGAND FREE ENERGY PREDICTED BY IDOCK:    0.09 KCAL/MOL
REMARK 927      BINDING AFFINITY PREDICTED BY RF-SCORE:    0.00 PKD
ROOT
HETATM    1  C   UNL     1     -11.689  15.847  69.162  1.00  0.00    -0.369 C  
HETATM    2  C   UNL     1     -12.199  14.763  70.046  1.00  0.00    -0.333 C  
HETATM    3  N   UNL     1     -11.834  13.522  69.964  1.00  0.00    -0.313 NA 
HETATM    4  N   UNL     1     -12.526  12.848  70.957  1.00  0.00    -0.348 N  
HETATM    5  C   UNL     1     -13.217  15.033  71.103  1.00  0.00    -0.498 C  
HETATM    6  C   UNL     1     -13.362  13.678  71.724  1.00  0.00    -0.388 C  
HETATM    7  O   UNL     1     -14.083  13.438  72.678  1.00  0.00    -0.767 OA 
ENDROOT
BRANCH   4   8
HETATM    8  C   UNL     1     -12.354  11.445  71.080  1.00  0.00    -0.343 A  
HETATM    9  C   UNL     1     -13.141  10.678  71.951  1.00  0.00    -0.563 A  
HETATM   10  C   UNL     1     -12.977   9.291  72.038  1.00  0.00    -0.504 A  
HETATM   11  C   UNL     1     -12.022   8.647  71.258  1.00  0.00    -0.339 A  
HETATM   12  C   UNL     1     -11.226   9.391  70.392  1.00  0.00    -0.309 A  
HETATM   13  C   UNL     1     -11.390  10.777  70.307  1.00  0.00    -0.374 A  
ENDBRANCH   4   8
TORSDOF 1
ENDMDL
MODEL       20
REMARK 921   NORMALIZED FREE ENERGY PREDICTED BY IDOCK:   -4.91 KCAL/MOL
REMARK 922        TOTAL FREE ENERGY PREDICTED BY IDOCK:   -5.35 KCAL/MOL
REMARK 923 INTER-LIGAND FREE ENERGY PREDICTED BY IDOCK:   -5.15 KCAL/MOL
REMARK 924 INTRA-LIGAND FREE ENERGY PREDICTED BY IDOCK:   -0.20 KCAL/MOL
REMARK 927      BINDING AFFINITY PREDICTED BY RF-SCORE:    0.00 PKD
ROOT
HETATM    1  C   UNL     1     -12.442  12.237  63.350  1.00  0.00    -0.592 C  
HETATM    2  C   UNL     1     -11.786  12.755  64.583  1.00  0.00    -0.374 C  
HETATM    3  N   UNL     1     -12.308  12.693  65.768  1.00  0.00    -0.619 NA 
HETATM    4  N   UNL     1     -11.388  13.272  66.627  1.00  0.00    -0.310 N  
HETATM    5  C   UNL     1     -10.455  13.426  64.535  1.00  0.00    -0.431 C  
HETATM    6  C   UNL     1     -10.219  13.715  65.985  1.00  0.00    -0.307 C  
HETATM    7  O   UNL     1      -9.207  14.237  66.422  1.00  0.00    -0.264 OA 
ENDROOT
BRANCH   4   8
HETATM    8  C   UNL     1     -11.713  13.382  68.004  1.00  0.00    -0.356 A  
HETATM    9  C   UNL     1     -11.859  12.252  68.822  1.00  0.00    -0.356 A  
HETATM   10  C   UNL     1     -12.152  12.381  70.184  1.00  0.00    -0.366 A  
HETATM   11  C   UNL     1     -12.306  13.642  70.752  1.00  0.00    -0.446 A  
HETATM   12  C   UNL     1     -12.172  14.776  69.957  1.00  0.00    -0.383 A  
HETATM   13  C   UNL     1     -11.881  14.646  68.595  1.00  0.00    -0.346 A  
ENDBRANCH   4   8
TORSDOF 1
ENDMDL
MODEL       21
REMARK 921   NORMALIZED FREE ENERGY PREDICTED BY IDOCK:   -4.86 KCAL/MOL
REMARK 922        TOTAL FREE ENERGY PREDICTED BY IDOCK:   -5.30 KCAL/MOL
REMARK 923 INTER-LIGAND FREE ENERGY PREDICTED BY IDOCK:   -5.17 KCAL/MOL
REMARK 924 INTRA-LIGAND FREE ENERGY PREDICTED BY IDOCK:   -0.13 KCAL/MOL
REMARK 927      BINDING AFFINITY PREDICTED BY RF-SCORE:    0.00 PKD
ROOT
HETATM    1  C   UNL     1     -11.956  12.844  66.953  1.00  0.00    -0.402 C  
HETATM    2  C   UNL     1     -11.558  14.157  66.375  1.00  0.00    -0.369 C  
HETATM    3  N   UNL     1     -10.843  15.041  66.997  1.00  0.00    -0.306 NA 
HETATM    4  N   UNL     1     -10.692  16.104  66.120  1.00  0.00    -0.266 N  
HETATM    5  C   UNL     1     -11.990  14.570  65.008  1.00  0.00    -0.399 C  
HETATM    6  C   UNL     1     -11.318  15.903  64.879  1.00  0.00    -0.256 C  
HETATM    7  O   UNL     1     -11.370  16.600  63.879  1.00  0.00    -1.104 OA 
ENDROOT
BRANCH   4   8
HETATM    8  C   UNL     1      -9.978  17.252  66.552  1.00  0.00    -0.305 A  
HETATM    9  C   UNL     1     -10.498  18.545  66.403  1.00  0.00    -0.443 A  
HETATM   10  C   UNL     1      -9.792  19.663  66.860  1.00  0.00    -0.497 A  
HETATM   11  C   UNL     1      -8.552  19.508  67.472  1.00  0.00    -0.348 A  
HETATM   12  C   UNL     1      -8.015  18.234  67.623  1.00  0.00    -0.245 A  
HETATM   13  C   UNL     1      -8.720  17.117  67.165  1.00  0.00    -0.227 A  
ENDBRANCH   4   8
TORSDOF 1
ENDMDL
MODEL       22
REMARK 921   NORMALIZED FREE ENERGY PREDICTED BY IDOCK:   -4.84 KCAL/MOL
REMARK 922        TOTAL FREE ENERGY PREDICTED BY IDOCK:   -5.28 KCAL/MOL
REMARK 923 INTER-LIGAND FREE ENERGY PREDICTED BY IDOCK:   -5.05 KCAL/MOL
REMARK 924 INTRA-LIGAND FREE ENERGY PREDICTED BY IDOCK:   -0.22 KCAL/MOL
REMARK 927      BINDING AFFINITY PREDICTED BY RF-SCORE:    0.00 PKD
ROOT
HETATM    1  C   UNL     1     -10.543  16.207  65.435  1.00  0.00    -0.399 C  
HETATM    2  C   UNL     1     -11.036  14.803  65.373  1.00  0.00    -0.357 C  
HETATM    3  N   UNL     1     -10.474  13.805  65.979  1.00  0.00    -0.291 NA 
HETATM    4  N   UNL     1     -11.236  12.688  65.676  1.00  0.00    -0.298 N  
HETATM    5  C   UNL     1     -12.233  14.433  64.563  1.00  0.00    -0.483 C  
HETATM    6  C   UNL     1     -12.343  12.968  64.855  1.00  0.00    -0.459 C  
HETATM    7  O   UNL     1     -13.226  12.248  64.419  1.00  0.00    -0.806 OA 
ENDROOT
BRANCH   4   8
HETATM    8  C   UNL     1     -10.829  11.425  66.176  1.00  0.00    -0.255 A  
HETATM    9  C   UNL     1     -11.155  11.003  67.472  1.00  0.00    -0.366 A  
HETATM   10  C   UNL     1     -10.769   9.742  67.939  1.00  0.00    -0.312 A  
HETATM   11  C   UNL     1     -10.046   8.881  67.119  1.00  0.00    -0.316 A  
HETATM   12  C   UNL     1      -9.705   9.284  65.831  1.00  0.00    -0.355 A  
HETATM   13  C   UNL     1     -10.091  10.545  65.365  1.00  0.00    -0.358 A  
ENDBRANCH   4   8
TORSDOF 1
ENDMDL
MODEL       23
REMARK 921   NORMALIZED FREE ENERGY PREDICTED BY IDOCK:   -4.83 KCAL/MOL
REMARK 922        TOTAL FREE ENERGY PREDICTED BY IDOCK:   -5.26 KCAL/MOL
REMARK 923 INTER-LIGAND FREE ENERGY PREDICTED BY IDOCK:   -5.04 KCAL/MOL
REMARK 924 INTRA-LIGAND FREE ENERGY PREDICTED BY IDOCK:   -0.22 KCAL/MOL
REMARK 927      BINDING AFFINITY PREDICTED BY RF-SCORE:    0.00 PKD
ROOT
HETATM    1  C   UNL     1     -11.515  14.504  65.245  1.00  0.00    -0.355 C  
HETATM    2  C   UNL     1     -11.280  14.659  66.707  1.00  0.00    -0.344 C  
HETATM    3  N   UNL     1     -12.131  14.318  67.623  1.00  0.00    -0.354 NA 
HETATM    4  N   UNL     1     -11.534  14.614  68.838  1.00  0.00    -0.281 N  
HETATM    5  C   UNL     1     -10.020  15.258  67.235  1.00  0.00    -0.226 C  
HETATM    6  C   UNL     1     -10.242  15.154  68.713  1.00  0.00    -0.235 C  
HETATM    7  O   UNL     1      -9.427  15.500  69.552  1.00  0.00    -0.258 OA 
ENDROOT
BRANCH   4   8
HETATM    8  C   UNL     1     -12.261  14.382  70.034  1.00  0.00    -0.351 A  
HETATM    9  C   UNL     1     -12.393  13.098  70.580  1.00  0.00    -0.405 A  
HETATM   10  C   UNL     1     -13.091  12.892  71.776  1.00  0.00    -0.458 A  
HETATM   11  C   UNL     1     -13.671  13.965  72.444  1.00  0.00    -0.678 A  
HETATM   12  C   UNL     1     -13.558  15.247  71.914  1.00  0.00    -0.575 A  
HETATM   13  C   UNL     1     -12.861  15.452  70.719  1.00  0.00    -0.524 A  
ENDBRANCH   4   8
TORSDOF 1
ENDMDL
MODEL       24
REMARK 921   NORMALIZED FREE ENERGY PREDICTED BY IDOCK:   -4.82 KCAL/MOL
REMARK 922        TOTAL FREE ENERGY PREDICTED BY IDOCK:   -5.25 KCAL/MOL
REMARK 923 INTER-LIGAND FREE ENERGY PREDICTED BY IDOCK:   -5.26 KCAL/MOL
REMARK 924 INTRA-LIGAND FREE ENERGY PREDICTED BY IDOCK:    0.01 KCAL/MOL
REMARK 927      BINDING AFFINITY PREDICTED BY RF-SCORE:    0.00 PKD
ROOT
HETATM    1  C   UNL     1     -10.487  13.562  64.640  1.00  0.00    -0.439 C  
HETATM    2  C   UNL     1     -10.706  14.528  65.752  1.00  0.00    -0.315 C  
HETATM    3  N   UNL     1     -10.367  15.777  65.711  1.00  0.00    -0.345 NA 
HETATM    4  N   UNL     1     -10.747  16.323  66.926  1.00  0.00    -0.267 N  
HETATM    5  C   UNL     1     -11.329  14.105  67.040  1.00  0.00    -0.346 C  
HETATM    6  C   UNL     1     -11.370  15.403  67.787  1.00  0.00    -0.306 C  
HETATM    7  O   UNL     1     -11.847  15.535  68.902  1.00  0.00    -0.361 OA 
ENDROOT
BRANCH   4   8
HETATM    8  C   UNL     1     -10.458  17.688  67.185  1.00  0.00    -0.319 A  
HETATM    9  C   UNL     1     -10.260  18.168  68.487  1.00  0.00    -0.399 A  
HETATM   10  C   UNL     1      -9.948  19.512  68.721  1.00  0.00    -0.547 A  
HETATM   11  C   UNL     1      -9.832  20.400  67.657  1.00  0.00    -0.538 A  
HETATM   12  C   UNL     1     -10.031  19.946  66.357  1.00  0.00    -0.593 A  
HETATM   13  C   UNL     1     -10.344  18.603  66.124  1.00  0.00    -0.481 A  
ENDBRANCH   4   8
TORSDOF 1
ENDMDL
MODEL       25
REMARK 921   NORMALIZED FREE ENERGY PREDICTED BY IDOCK:   -4.79 KCAL/MOL
REMARK 922        TOTAL FREE ENERGY PREDICTED BY IDOCK:   -5.22 KCAL/MOL
REMARK 923 INTER-LIGAND FREE ENERGY PREDICTED BY IDOCK:   -5.01 KCAL/MOL
REMARK 924 INTRA-LIGAND FREE ENERGY PREDICTED BY IDOCK:   -0.21 KCAL/MOL
REMARK 927      BINDING AFFINITY PREDICTED BY RF-SCORE:    0.00 PKD
ROOT
HETATM    1  C   UNL     1      -9.818  18.511  66.375  1.00  0.00    -0.376 C  
HETATM    2  C   UNL     1     -10.295  17.108  66.527  1.00  0.00    -0.306 C  
HETATM    3  N   UNL     1     -10.324  16.239  65.567  1.00  0.00    -0.509 NA 
HETATM    4  N   UNL     1     -10.822  15.069  66.118  1.00  0.00    -0.324 N  
HETATM    5  C   UNL     1     -10.814  16.599  67.830  1.00  0.00    -0.321 C  
HETATM    6  C   UNL     1     -11.116  15.172  67.488  1.00  0.00    -0.319 C  
HETATM    7  O   UNL     1     -11.536  14.352  68.288  1.00  0.00    -0.293 OA 
ENDROOT
BRANCH   4   8
HETATM    8  C   UNL     1     -11.006  13.940  65.277  1.00  0.00    -0.331 A  
HETATM    9  C   UNL     1     -12.002  13.909  64.291  1.00  0.00    -0.477 A  
HETATM   10  C   UNL     1     -12.151  12.799  63.453  1.00  0.00    -0.619 A  
HETATM   11  C   UNL     1     -11.309  11.699  63.587  1.00  0.00    -0.485 A  
HETATM   12  C   UNL     1     -10.318  11.708  64.565  1.00  0.00    -0.349 A  
HETATM   13  C   UNL     1     -10.171  12.817  65.403  1.00  0.00    -0.299 A  
ENDBRANCH   4   8
TORSDOF 1
ENDMDL
MODEL       26
REMARK 921   NORMALIZED FREE ENERGY PREDICTED BY IDOCK:   -4.75 KCAL/MOL
REMARK 922        TOTAL FREE ENERGY PREDICTED BY IDOCK:   -5.18 KCAL/MOL
REMARK 923 INTER-LIGAND FREE ENERGY PREDICTED BY IDOCK:   -5.15 KCAL/MOL
REMARK 924 INTRA-LIGAND FREE ENERGY PREDICTED BY IDOCK:   -0.03 KCAL/MOL
REMARK 927      BINDING AFFINITY PREDICTED BY RF-SCORE:    0.00 PKD
ROOT
HETATM    1  C   UNL     1     -12.048  13.683  69.431  1.00  0.00    -0.364 C  
HETATM    2  C   UNL     1     -11.499  14.594  68.389  1.00  0.00    -0.311 C  
HETATM    3  N   UNL     1     -11.195  15.837  68.592  1.00  0.00    -0.329 NA 
HETATM    4  N   UNL     1     -10.716  16.322  67.386  1.00  0.00    -0.312 N  
HETATM    5  C   UNL     1     -11.277  14.131  66.988  1.00  0.00    -0.328 C  
HETATM    6  C   UNL     1     -10.691  15.360  66.362  1.00  0.00    -0.311 C  
HETATM    7  O   UNL     1     -10.316  15.423  65.203  1.00  0.00    -0.382 OA 
ENDROOT
BRANCH   4   8
HETATM    8  C   UNL     1     -10.341  17.688  67.298  1.00  0.00    -0.354 A  
HETATM    9  C   UNL     1     -10.515  18.427  66.119  1.00  0.00    -0.422 A  
HETATM   10  C   UNL     1     -10.165  19.780  66.058  1.00  0.00    -0.600 A  
HETATM   11  C   UNL     1      -9.632  20.418  67.174  1.00  0.00    -0.587 A  
HETATM   12  C   UNL     1      -9.445  19.701  68.351  1.00  0.00    -0.452 A  
HETATM   13  C   UNL     1      -9.793  18.347  68.411  1.00  0.00    -0.396 A  
ENDBRANCH   4   8
TORSDOF 1
ENDMDL
MODEL       27
REMARK 921   NORMALIZED FREE ENERGY PREDICTED BY IDOCK:   -4.74 KCAL/MOL
REMARK 922        TOTAL FREE ENERGY PREDICTED BY IDOCK:   -5.17 KCAL/MOL
REMARK 923 INTER-LIGAND FREE ENERGY PREDICTED BY IDOCK:   -4.98 KCAL/MOL
REMARK 924 INTRA-LIGAND FREE ENERGY PREDICTED BY IDOCK:   -0.19 KCAL/MOL
REMARK 927      BINDING AFFINITY PREDICTED BY RF-SCORE:    0.00 PKD
ROOT
HETATM    1  C   UNL     1     -11.997  10.693  70.637  1.00  0.00    -0.466 C  
HETATM    2  C   UNL     1     -12.030  12.042  70.008  1.00  0.00    -0.324 C  
HETATM    3  N   UNL     1     -11.805  12.267  68.752  1.00  0.00    -0.317 NA 
HETATM    4  N   UNL     1     -11.939  13.635  68.573  1.00  0.00    -0.369 N  
HETATM    5  C   UNL     1     -12.308  13.269  70.810  1.00  0.00    -0.425 C  
HETATM    6  C   UNL     1     -12.276  14.326  69.749  1.00  0.00    -0.339 C  
HETATM    7  O   UNL     1     -12.495  15.509  69.956  1.00  0.00    -0.361 OA 
ENDROOT
BRANCH   4   8
HETATM    8  C   UNL     1     -11.704  14.183  67.286  1.00  0.00    -0.392 A  
HETATM    9  C   UNL     1     -12.500  13.845  66.182  1.00  0.00    -0.478 A  
HETATM   10  C   UNL     1     -12.271  14.417  64.926  1.00  0.00    -0.440 A  
HETATM   11  C   UNL     1     -11.240  15.335  64.750  1.00  0.00    -0.405 A  
HETATM   12  C   UNL     1     -10.433  15.678  65.830  1.00  0.00    -0.358 A  
HETATM   13  C   UNL     1     -10.662  15.105  67.086  1.00  0.00    -0.310 A  
ENDBRANCH   4   8
TORSDOF 1
ENDMDL
MODEL       28
REMARK 921   NORMALIZED FREE ENERGY PREDICTED BY IDOCK:   -4.71 KCAL/MOL
REMARK 922        TOTAL FREE ENERGY PREDICTED BY IDOCK:   -5.14 KCAL/MOL
REMARK 923 INTER-LIGAND FREE ENERGY PREDICTED BY IDOCK:   -4.92 KCAL/MOL
REMARK 924 INTRA-LIGAND FREE ENERGY PREDICTED BY IDOCK:   -0.22 KCAL/MOL
REMARK 927      BINDING AFFINITY PREDICTED BY RF-SCORE:    0.00 PKD
ROOT
HETATM    1  C   UNL     1      -9.673  10.958  64.380  1.00  0.00    -0.342 C  
HETATM    2  C   UNL     1     -10.595  11.938  65.019  1.00  0.00    -0.289 C  
HETATM    3  N   UNL     1     -10.350  12.550  66.134  1.00  0.00    -0.248 NA 
HETATM    4  N   UNL     1     -11.441  13.370  66.375  1.00  0.00    -0.317 N  
HETATM    5  C   UNL     1     -11.916  12.274  64.413  1.00  0.00    -0.473 C  
HETATM    6  C   UNL     1     -12.427  13.302  65.375  1.00  0.00    -0.489 C  
HETATM    7  O   UNL     1     -13.487  13.892  65.246  1.00  0.00    -0.612 OA 
ENDROOT
BRANCH   4   8
HETATM    8  C   UNL     1     -11.470  14.140  67.566  1.00  0.00    -0.340 A  
HETATM    9  C   UNL     1     -11.081  15.487  67.584  1.00  0.00    -0.311 A  
HETATM   10  C   UNL     1     -11.142  16.239  68.763  1.00  0.00    -0.355 A  
HETATM   11  C   UNL     1     -11.590  15.657  69.944  1.00  0.00    -0.354 A  
HETATM   12  C   UNL     1     -11.973  14.319  69.949  1.00  0.00    -0.397 A  
HETATM   13  C   UNL     1     -11.911  13.568  68.771  1.00  0.00    -0.390 A  
ENDBRANCH   4   8
TORSDOF 1
ENDMDL
MODEL       29
REMARK 921   NORMALIZED FREE ENERGY PREDICTED BY IDOCK:   -4.71 KCAL/MOL
REMARK 922        TOTAL FREE ENERGY PREDICTED BY IDOCK:   -5.14 KCAL/MOL
REMARK 923 INTER-LIGAND FREE ENERGY PREDICTED BY IDOCK:   -5.08 KCAL/MOL
REMARK 924 INTRA-LIGAND FREE ENERGY PREDICTED BY IDOCK:   -0.06 KCAL/MOL
REMARK 927      BINDING AFFINITY PREDICTED BY RF-SCORE:    0.00 PKD
ROOT
HETATM    1  C   UNL     1     -14.411   7.298  71.893  1.00  0.00    -0.507 C  
HETATM    2  C   UNL     1     -13.497   8.441  71.620  1.00  0.00    -0.337 C  
HETATM    3  N   UNL     1     -13.848   9.687  71.686  1.00  0.00    -0.229 NA 
HETATM    4  N   UNL     1     -12.718  10.425  71.372  1.00  0.00    -0.407 N  
HETATM    5  C   UNL     1     -12.077   8.226  71.215  1.00  0.00    -0.307 C  
HETATM    6  C   UNL     1     -11.585   9.636  71.106  1.00  0.00    -0.381 C  
HETATM    7  O   UNL     1     -10.437   9.940  70.828  1.00  0.00    -0.290 OA 
ENDROOT
BRANCH   4   8
HETATM    8  C   UNL     1     -12.816  11.840  71.323  1.00  0.00    -0.308 A  
HETATM    9  C   UNL     1     -13.524  12.565  72.292  1.00  0.00    -0.490 A  
HETATM   10  C   UNL     1     -13.587  13.962  72.243  1.00  0.00    -0.642 A  
HETATM   11  C   UNL     1     -12.945  14.659  71.224  1.00  0.00    -0.407 A  
HETATM   12  C   UNL     1     -12.243  13.957  70.248  1.00  0.00    -0.428 A  
HETATM   13  C   UNL     1     -12.181  12.561  70.297  1.00  0.00    -0.345 A  
ENDBRANCH   4   8
TORSDOF 1
ENDMDL
MODEL       30
REMARK 921   NORMALIZED FREE ENERGY PREDICTED BY IDOCK:   -4.69 KCAL/MOL
REMARK 922        TOTAL FREE ENERGY PREDICTED BY IDOCK:   -5.12 KCAL/MOL
REMARK 923 INTER-LIGAND FREE ENERGY PREDICTED BY IDOCK:   -5.12 KCAL/MOL
REMARK 924 INTRA-LIGAND FREE ENERGY PREDICTED BY IDOCK:    0.00 KCAL/MOL
REMARK 927      BINDING AFFINITY PREDICTED BY RF-SCORE:    0.00 PKD
ROOT
HETATM    1  C   UNL     1     -10.793   8.753  70.066  1.00  0.00    -0.231 C  
HETATM    2  C   UNL     1     -11.259  10.134  69.756  1.00  0.00    -0.272 C  
HETATM    3  N   UNL     1     -11.680  10.978  70.644  1.00  0.00    -0.321 NA 
HETATM    4  N   UNL     1     -12.008  12.135  69.955  1.00  0.00    -0.338 N  
HETATM    5  C   UNL     1     -11.297  10.647  68.356  1.00  0.00    -0.348 C  
HETATM    6  C   UNL     1     -11.779  12.049  68.571  1.00  0.00    -0.332 C  
HETATM    7  O   UNL     1     -11.925  12.866  67.677  1.00  0.00    -0.352 OA 
ENDROOT
BRANCH   4   8
HETATM    8  C   UNL     1     -12.545  13.232  70.676  1.00  0.00    -0.231 A  
HETATM    9  C   UNL     1     -12.361  14.556  70.251  1.00  0.00    -0.408 A  
HETATM   10  C   UNL     1     -12.922  15.624  70.960  1.00  0.00    -0.518 A  
HETATM   11  C   UNL     1     -13.673  15.389  72.107  1.00  0.00    -0.618 A  
HETATM   12  C   UNL     1     -13.861  14.083  72.550  1.00  0.00    -0.610 A  
HETATM   13  C   UNL     1     -13.299  13.016  71.842  1.00  0.00    -0.539 A  
ENDBRANCH   4   8
TORSDOF 1
ENDMDL
MODEL       31
REMARK 921   NORMALIZED FREE ENERGY PREDICTED BY IDOCK:   -4.68 KCAL/MOL
REMARK 922        TOTAL FREE ENERGY PREDICTED BY IDOCK:   -5.11 KCAL/MOL
REMARK 923 INTER-LIGAND FREE ENERGY PREDICTED BY IDOCK:   -5.01 KCAL/MOL
REMARK 924 INTRA-LIGAND FREE ENERGY PREDICTED BY IDOCK:   -0.10 KCAL/MOL
REMARK 927      BINDING AFFINITY PREDICTED BY RF-SCORE:    0.00 PKD
ROOT
HETATM    1  C   UNL     1     -13.019  15.581  71.622  1.00  0.00    -0.540 C  
HETATM    2  C   UNL     1     -12.864  14.114  71.419  1.00  0.00    -0.355 C  
HETATM    3  N   UNL     1     -12.177  13.579  70.460  1.00  0.00    -0.362 NA 
HETATM    4  N   UNL     1     -12.278  12.207  70.628  1.00  0.00    -0.364 N  
HETATM    5  C   UNL     1     -13.531  13.128  72.318  1.00  0.00    -0.665 C  
HETATM    6  C   UNL     1     -13.046  11.832  71.744  1.00  0.00    -0.375 C  
HETATM    7  O   UNL     1     -13.321  10.736  72.203  1.00  0.00    -0.442 OA 
ENDROOT
BRANCH   4   8
HETATM    8  C   UNL     1     -11.650  11.353  69.685  1.00  0.00    -0.330 A  
HETATM    9  C   UNL     1     -11.765  11.567  68.304  1.00  0.00    -0.371 A  
HETATM   10  C   UNL     1     -11.116  10.731  67.389  1.00  0.00    -0.363 A  
HETATM   11  C   UNL     1     -10.342   9.665  67.838  1.00  0.00    -0.271 A  
HETATM   12  C   UNL     1     -10.221   9.432  69.204  1.00  0.00    -0.209 A  
HETATM   13  C   UNL     1     -10.871  10.267  70.118  1.00  0.00    -0.362 A  
ENDBRANCH   4   8
TORSDOF 1
ENDMDL
MODEL       32
REMARK 921   NORMALIZED FREE ENERGY PREDICTED BY IDOCK:   -4.67 KCAL/MOL
REMARK 922        TOTAL FREE ENERGY PREDICTED BY IDOCK:   -5.09 KCAL/MOL
REMARK 923 INTER-LIGAND FREE ENERGY PREDICTED BY IDOCK:   -4.91 KCAL/MOL
REMARK 924 INTRA-LIGAND FREE ENERGY PREDICTED BY IDOCK:   -0.18 KCAL/MOL
REMARK 927      BINDING AFFINITY PREDICTED BY RF-SCORE:    0.00 PKD
ROOT
HETATM    1  C   UNL     1     -11.595  14.818  67.695  1.00  0.00    -0.374 C  
HETATM    2  C   UNL     1     -11.661  13.840  66.573  1.00  0.00    -0.385 C  
HETATM    3  N   UNL     1     -10.710  13.015  66.268  1.00  0.00    -0.274 NA 
HETATM    4  N   UNL     1     -11.165  12.283  65.183  1.00  0.00    -0.315 N  
HETATM    5  C   UNL     1     -12.854  13.757  65.681  1.00  0.00    -0.456 C  
HETATM    6  C   UNL     1     -12.464  12.631  64.773  1.00  0.00    -0.484 C  
HETATM    7  O   UNL     1     -13.178  12.187  63.889  1.00  0.00    -0.748 OA 
ENDROOT
BRANCH   4   8
HETATM    8  C   UNL     1     -10.304  11.318  64.598  1.00  0.00    -0.315 A  
HETATM    9  C   UNL     1      -9.847  10.205  65.317  1.00  0.00    -0.388 A  
HETATM   10  C   UNL     1      -9.021   9.248  64.716  1.00  0.00    -0.217 A  
HETATM   11  C   UNL     1      -8.636   9.389  63.387  1.00  0.00    -0.218 A  
HETATM   12  C   UNL     1      -9.073  10.491  62.658  1.00  0.00    -0.309 A  
HETATM   13  C   UNL     1      -9.898  11.447  63.259  1.00  0.00    -0.428 A  
ENDBRANCH   4   8
TORSDOF 1
ENDMDL
MODEL       33
REMARK 921   NORMALIZED FREE ENERGY PREDICTED BY IDOCK:   -4.64 KCAL/MOL
REMARK 922        TOTAL FREE ENERGY PREDICTED BY IDOCK:   -5.06 KCAL/MOL
REMARK 923 INTER-LIGAND FREE ENERGY PREDICTED BY IDOCK:   -4.84 KCAL/MOL
REMARK 924 INTRA-LIGAND FREE ENERGY PREDICTED BY IDOCK:   -0.22 KCAL/MOL
REMARK 927      BINDING AFFINITY PREDICTED BY RF-SCORE:    0.00 PKD
ROOT
HETATM    1  C   UNL     1     -10.028  18.106  67.256  1.00  0.00    -0.336 C  
HETATM    2  C   UNL     1     -10.523  16.703  67.197  1.00  0.00    -0.300 C  
HETATM    3  N   UNL     1     -10.444  15.945  66.149  1.00  0.00    -0.315 NA 
HETATM    4  N   UNL     1     -11.004  14.729  66.506  1.00  0.00    -0.320 N  
HETATM    5  C   UNL     1     -11.189  16.060  68.368  1.00  0.00    -0.364 C  
HETATM    6  C   UNL     1     -11.452  14.685  67.837  1.00  0.00    -0.329 C  
HETATM    7  O   UNL     1     -11.963  13.788  68.488  1.00  0.00    -0.356 OA 
ENDROOT
BRANCH   4   8
HETATM    8  C   UNL     1     -11.094  13.703  65.529  1.00  0.00    -0.295 A  
HETATM    9  C   UNL     1     -10.288  12.557  65.586  1.00  0.00    -0.294 A  
HETATM   10  C   UNL     1     -10.410  11.542  64.630  1.00  0.00    -0.349 A  
HETATM   11  C   UNL     1     -11.338  11.656  63.599  1.00  0.00    -0.485 A  
HETATM   12  C   UNL     1     -12.142  12.789  63.521  1.00  0.00    -0.642 A  
HETATM   13  C   UNL     1     -12.019  13.804  64.476  1.00  0.00    -0.458 A  
ENDBRANCH   4   8
TORSDOF 1
ENDMDL
MODEL       34
REMARK 921   NORMALIZED FREE ENERGY PREDICTED BY IDOCK:   -4.63 KCAL/MOL
REMARK 922        TOTAL FREE ENERGY PREDICTED BY IDOCK:   -5.05 KCAL/MOL
REMARK 923 INTER-LIGAND FREE ENERGY PREDICTED BY IDOCK:   -4.91 KCAL/MOL
REMARK 924 INTRA-LIGAND FREE ENERGY PREDICTED BY IDOCK:   -0.15 KCAL/MOL
REMARK 927      BINDING AFFINITY PREDICTED BY RF-SCORE:    0.00 PKD
ROOT
HETATM    1  C   UNL     1     -12.128  10.896  70.787  1.00  0.00    -0.469 C  
HETATM    2  C   UNL     1     -12.120  12.236  70.138  1.00  0.00    -0.287 C  
HETATM    3  N   UNL     1     -11.893  12.435  68.878  1.00  0.00    -0.313 NA 
HETATM    4  N   UNL     1     -11.983  13.803  68.678  1.00  0.00    -0.365 N  
HETATM    5  C   UNL     1     -12.356  13.484  70.921  1.00  0.00    -0.437 C  
HETATM    6  C   UNL     1     -12.294  14.523  69.844  1.00  0.00    -0.298 C  
HETATM    7  O   UNL     1     -12.474  15.714  70.034  1.00  0.00    -0.360 OA 
ENDROOT
BRANCH   4   8
HETATM    8  C   UNL     1     -11.735  14.324  67.382  1.00  0.00    -0.394 A  
HETATM    9  C   UNL     1     -10.813  15.358  67.165  1.00  0.00    -0.321 A  
HETATM   10  C   UNL     1     -10.560  15.840  65.876  1.00  0.00    -0.350 A  
HETATM   11  C   UNL     1     -11.227  15.299  64.781  1.00  0.00    -0.405 A  
HETATM   12  C   UNL     1     -12.151  14.277  64.975  1.00  0.00    -0.428 A  
HETATM   13  C   UNL     1     -12.404  13.796  66.264  1.00  0.00    -0.479 A  
ENDBRANCH   4   8
TORSDOF 1
ENDMDL
MODEL       35
REMARK 921   NORMALIZED FREE ENERGY PREDICTED BY IDOCK:   -4.62 KCAL/MOL
REMARK 922        TOTAL FREE ENERGY PREDICTED BY IDOCK:   -5.04 KCAL/MOL
REMARK 923 INTER-LIGAND FREE ENERGY PREDICTED BY IDOCK:   -4.83 KCAL/MOL
REMARK 924 INTRA-LIGAND FREE ENERGY PREDICTED BY IDOCK:   -0.22 KCAL/MOL
REMARK 927      BINDING AFFINITY PREDICTED BY RF-SCORE:    0.00 PKD
ROOT
HETATM    1  C   UNL     1      -6.486  18.918  65.661  1.00  0.00    -0.301 C  
HETATM    2  C   UNL     1      -7.877  18.551  66.047  1.00  0.00    -0.148 C  
HETATM    3  N   UNL     1      -8.402  17.382  65.854  1.00  0.00    -0.547 NA 
HETATM    4  N   UNL     1      -9.693  17.449  66.354  1.00  0.00    -0.287 N  
HETATM    5  C   UNL     1      -8.798  19.540  66.677  1.00  0.00    -0.388 C  
HETATM    6  C   UNL     1     -10.018  18.701  66.905  1.00  0.00    -0.345 C  
HETATM    7  O   UNL     1     -11.033  19.104  67.448  1.00  0.00    -0.475 OA 
ENDROOT
BRANCH   4   8
HETATM    8  C   UNL     1     -10.532  16.311  66.241  1.00  0.00    -0.308 A  
HETATM    9  C   UNL     1     -10.901  15.551  67.359  1.00  0.00    -0.312 A  
HETATM   10  C   UNL     1     -11.753  14.448  67.232  1.00  0.00    -0.429 A  
HETATM   11  C   UNL     1     -12.247  14.083  65.984  1.00  0.00    -0.484 A  
HETATM   12  C   UNL     1     -11.886  14.819  64.860  1.00  0.00    -0.377 A  
HETATM   13  C   UNL     1     -11.034  15.921  64.987  1.00  0.00    -0.426 A  
ENDBRANCH   4   8
TORSDOF 1
ENDMDL
MODEL       36
REMARK 921   NORMALIZED FREE ENERGY PREDICTED BY IDOCK:   -4.62 KCAL/MOL
REMARK 922        TOTAL FREE ENERGY PREDICTED BY IDOCK:   -5.04 KCAL/MOL
REMARK 923 INTER-LIGAND FREE ENERGY PREDICTED BY IDOCK:   -4.89 KCAL/MOL
REMARK 924 INTRA-LIGAND FREE ENERGY PREDICTED BY IDOCK:   -0.15 KCAL/MOL
REMARK 927      BINDING AFFINITY PREDICTED BY RF-SCORE:    0.00 PKD
ROOT
HETATM    1  C   UNL     1     -12.484  14.686  71.889  1.00  0.00    -0.412 C  
HETATM    2  C   UNL     1     -12.223  14.093  70.548  1.00  0.00    -0.361 C  
HETATM    3  N   UNL     1     -12.053  14.783  69.465  1.00  0.00    -0.305 NA 
HETATM    4  N   UNL     1     -11.832  13.866  68.450  1.00  0.00    -0.360 N  
HETATM    5  C   UNL     1     -12.163  12.615  70.348  1.00  0.00    -0.368 C  
HETATM    6  C   UNL     1     -11.843  12.530  68.887  1.00  0.00    -0.301 C  
HETATM    7  O   UNL     1     -11.662  11.483  68.287  1.00  0.00    -0.385 OA 
ENDROOT
BRANCH   4   8
HETATM    8  C   UNL     1     -11.653  14.340  67.125  1.00  0.00    -0.380 A  
HETATM    9  C   UNL     1     -12.425  13.859  66.058  1.00  0.00    -0.501 A  
HETATM   10  C   UNL     1     -12.254  14.359  64.762  1.00  0.00    -0.458 A  
HETATM   11  C   UNL     1     -11.307  15.346  64.510  1.00  0.00    -0.321 A  
HETATM   12  C   UNL     1     -10.526  15.832  65.554  1.00  0.00    -0.425 A  
HETATM   13  C   UNL     1     -10.696  15.331  66.849  1.00  0.00    -0.313 A  
ENDBRANCH   4   8
TORSDOF 1
ENDMDL
MODEL       37
REMARK 921   NORMALIZED FREE ENERGY PREDICTED BY IDOCK:   -4.62 KCAL/MOL
REMARK 922        TOTAL FREE ENERGY PREDICTED BY IDOCK:   -5.04 KCAL/MOL
REMARK 923 INTER-LIGAND FREE ENERGY PREDICTED BY IDOCK:   -4.83 KCAL/MOL
REMARK 924 INTRA-LIGAND FREE ENERGY PREDICTED BY IDOCK:   -0.21 KCAL/MOL
REMARK 927      BINDING AFFINITY PREDICTED BY RF-SCORE:    0.00 PKD
ROOT
HETATM    1  C   UNL     1     -13.749   8.999  72.516  1.00  0.00    -0.499 C  
HETATM    2  C   UNL     1     -12.767   9.613  71.580  1.00  0.00    -0.407 C  
HETATM    3  N   UNL     1     -13.008  10.657  70.852  1.00  0.00    -0.368 NA 
HETATM    4  N   UNL     1     -11.847  10.908  70.138  1.00  0.00    -0.321 N  
HETATM    5  C   UNL     1     -11.404   9.036  71.392  1.00  0.00    -0.394 C  
HETATM    6  C   UNL     1     -10.807  10.006  70.419  1.00  0.00    -0.318 C  
HETATM    7  O   UNL     1      -9.661   9.940  70.005  1.00  0.00    -0.236 OA 
ENDROOT
BRANCH   4   8
HETATM    8  C   UNL     1     -11.831  11.984  69.213  1.00  0.00    -0.318 A  
HETATM    9  C   UNL     1     -11.847  13.321  69.634  1.00  0.00    -0.391 A  
HETATM   10  C   UNL     1     -11.802  14.369  68.709  1.00  0.00    -0.360 A  
HETATM   11  C   UNL     1     -11.744  14.099  67.345  1.00  0.00    -0.422 A  
HETATM   12  C   UNL     1     -11.735  12.779  66.905  1.00  0.00    -0.447 A  
HETATM   13  C   UNL     1     -11.781  11.732  67.831  1.00  0.00    -0.347 A  
ENDBRANCH   4   8
TORSDOF 1
ENDMDL
MODEL       38
REMARK 921   NORMALIZED FREE ENERGY PREDICTED BY IDOCK:   -4.60 KCAL/MOL
REMARK 922        TOTAL FREE ENERGY PREDICTED BY IDOCK:   -5.02 KCAL/MOL
REMARK 923 INTER-LIGAND FREE ENERGY PREDICTED BY IDOCK:   -4.80 KCAL/MOL
REMARK 924 INTRA-LIGAND FREE ENERGY PREDICTED BY IDOCK:   -0.22 KCAL/MOL
REMARK 927      BINDING AFFINITY PREDICTED BY RF-SCORE:    0.00 PKD
ROOT
HETATM    1  C   UNL     1     -11.813  12.820  63.497  1.00  0.00    -0.618 C  
HETATM    2  C   UNL     1     -11.511  13.712  64.651  1.00  0.00    -0.365 C  
HETATM    3  N   UNL     1     -10.669  14.695  64.612  1.00  0.00    -0.359 NA 
HETATM    4  N   UNL     1     -10.685  15.270  65.872  1.00  0.00    -0.322 N  
HETATM    5  C   UNL     1     -12.158  13.513  65.980  1.00  0.00    -0.489 C  
HETATM    6  C   UNL     1     -11.578  14.651  66.762  1.00  0.00    -0.360 C  
HETATM    7  O   UNL     1     -11.868  14.901  67.921  1.00  0.00    -0.338 OA 
ENDROOT
BRANCH   4   8
HETATM    8  C   UNL     1      -9.815  16.360  66.139  1.00  0.00    -0.338 A  
HETATM    9  C   UNL     1      -8.452  16.169  66.406  1.00  0.00    -0.369 A  
HETATM   10  C   UNL     1      -7.604  17.258  66.640  1.00  0.00    -0.293 A  
HETATM   11  C   UNL     1      -8.105  18.555  66.613  1.00  0.00    -0.280 A  
HETATM   12  C   UNL     1      -9.456  18.766  66.357  1.00  0.00    -0.336 A  
HETATM   13  C   UNL     1     -10.304  17.678  66.125  1.00  0.00    -0.334 A  
ENDBRANCH   4   8
TORSDOF 1
ENDMDL
MODEL       39
REMARK 921   NORMALIZED FREE ENERGY PREDICTED BY IDOCK:   -4.60 KCAL/MOL
REMARK 922        TOTAL FREE ENERGY PREDICTED BY IDOCK:   -5.02 KCAL/MOL
REMARK 923 INTER-LIGAND FREE ENERGY PREDICTED BY IDOCK:   -5.06 KCAL/MOL
REMARK 924 INTRA-LIGAND FREE ENERGY PREDICTED BY IDOCK:    0.05 KCAL/MOL
REMARK 927      BINDING AFFINITY PREDICTED BY RF-SCORE:    0.00 PKD
ROOT
HETATM    1  C   UNL     1     -10.260  16.997  66.941  1.00  0.00    -0.305 C  
HETATM    2  C   UNL     1     -10.921  15.842  67.609  1.00  0.00    -0.298 C  
HETATM    3  N   UNL     1     -11.405  15.873  68.811  1.00  0.00    -0.357 NA 
HETATM    4  N   UNL     1     -11.933  14.614  69.049  1.00  0.00    -0.302 N  
HETATM    5  C   UNL     1     -11.055  14.521  66.929  1.00  0.00    -0.325 C  
HETATM    6  C   UNL     1     -11.803  13.734  67.960  1.00  0.00    -0.373 C  
HETATM    7  O   UNL     1     -12.169  12.580  67.807  1.00  0.00    -0.372 OA 
ENDROOT
BRANCH   4   8
HETATM    8  C   UNL     1     -12.501  14.339  70.320  1.00  0.00    -0.361 A  
HETATM    9  C   UNL     1     -13.063  15.350  71.112  1.00  0.00    -0.565 A  
HETATM   10  C   UNL     1     -13.644  15.055  72.350  1.00  0.00    -0.565 A  
HETATM   11  C   UNL     1     -13.670  13.746  72.820  1.00  0.00    -0.383 A  
HETATM   12  C   UNL     1     -13.111  12.729  72.053  1.00  0.00    -0.474 A  
HETATM   13  C   UNL     1     -12.529  13.024  70.815  1.00  0.00    -0.384 A  
ENDBRANCH   4   8
TORSDOF 1
ENDMDL
MODEL       40
REMARK 921   NORMALIZED FREE ENERGY PREDICTED BY IDOCK:   -4.56 KCAL/MOL
REMARK 922        TOTAL FREE ENERGY PREDICTED BY IDOCK:   -4.98 KCAL/MOL
REMARK 923 INTER-LIGAND FREE ENERGY PREDICTED BY IDOCK:   -4.86 KCAL/MOL
REMARK 924 INTRA-LIGAND FREE ENERGY PREDICTED BY IDOCK:   -0.13 KCAL/MOL
REMARK 927      BINDING AFFINITY PREDICTED BY RF-SCORE:    0.00 PKD
ROOT
HETATM    1  C   UNL     1     -11.684   8.891  70.713  1.00  0.00    -0.269 C  
HETATM    2  C   UNL     1     -12.108  10.298  70.958  1.00  0.00    -0.386 C  
HETATM    3  N   UNL     1     -11.660  11.320  70.300  1.00  0.00    -0.304 NA 
HETATM    4  N   UNL     1     -12.302  12.431  70.822  1.00  0.00    -0.356 N  
HETATM    5  C   UNL     1     -13.089  10.642  72.028  1.00  0.00    -0.501 C  
HETATM    6  C   UNL     1     -13.212  12.123  71.848  1.00  0.00    -0.369 C  
HETATM    7  O   UNL     1     -13.958  12.832  72.505  1.00  0.00    -0.499 OA 
ENDROOT
BRANCH   4   8
HETATM    8  C   UNL     1     -11.973  13.714  70.315  1.00  0.00    -0.327 A  
HETATM    9  C   UNL     1     -11.671  14.789  71.164  1.00  0.00    -0.360 A  
HETATM   10  C   UNL     1     -11.321  16.041  70.646  1.00  0.00    -0.424 A  
HETATM   11  C   UNL     1     -11.269  16.241  69.271  1.00  0.00    -0.312 A  
HETATM   12  C   UNL     1     -11.572  15.190  68.411  1.00  0.00    -0.356 A  
HETATM   13  C   UNL     1     -11.923  13.939  68.929  1.00  0.00    -0.393 A  
ENDBRANCH   4   8
TORSDOF 1
ENDMDL
MODEL       41
REMARK 921   NORMALIZED FREE ENERGY PREDICTED BY IDOCK:   -4.56 KCAL/MOL
REMARK 922        TOTAL FREE ENERGY PREDICTED BY IDOCK:   -4.98 KCAL/MOL
REMARK 923 INTER-LIGAND FREE ENERGY PREDICTED BY IDOCK:   -4.77 KCAL/MOL
REMARK 924 INTRA-LIGAND FREE ENERGY PREDICTED BY IDOCK:   -0.21 KCAL/MOL
REMARK 927      BINDING AFFINITY PREDICTED BY RF-SCORE:    0.00 PKD
ROOT
HETATM    1  C   UNL     1      -8.897  16.229  66.045  1.00  0.00    -0.308 C  
HETATM    2  C   UNL     1     -10.035  15.329  66.379  1.00  0.00    -0.275 C  
HETATM    3  N   UNL     1     -10.148  14.680  67.495  1.00  0.00    -0.224 NA 
HETATM    4  N   UNL     1     -11.337  13.972  67.414  1.00  0.00    -0.314 N  
HETATM    5  C   UNL     1     -11.146  15.084  65.414  1.00  0.00    -0.377 C  
HETATM    6  C   UNL     1     -12.033  14.176  66.210  1.00  0.00    -0.429 C  
HETATM    7  O   UNL     1     -13.102  13.746  65.812  1.00  0.00    -0.493 OA 
ENDROOT
BRANCH   4   8
HETATM    8  C   UNL     1     -11.706  13.126  68.492  1.00  0.00    -0.352 A  
HETATM    9  C   UNL     1     -11.755  11.732  68.353  1.00  0.00    -0.389 A  
HETATM   10  C   UNL     1     -12.093  10.911  69.435  1.00  0.00    -0.362 A  
HETATM   11  C   UNL     1     -12.392  11.470  70.673  1.00  0.00    -0.457 A  
HETATM   12  C   UNL     1     -12.356  12.852  70.830  1.00  0.00    -0.385 A  
HETATM   13  C   UNL     1     -12.019  13.672  69.748  1.00  0.00    -0.404 A  
ENDBRANCH   4   8
TORSDOF 1
ENDMDL
MODEL       42
REMARK 921   NORMALIZED FREE ENERGY PREDICTED BY IDOCK:   -4.54 KCAL/MOL
REMARK 922        TOTAL FREE ENERGY PREDICTED BY IDOCK:   -4.96 KCAL/MOL
REMARK 923 INTER-LIGAND FREE ENERGY PREDICTED BY IDOCK:   -4.76 KCAL/MOL
REMARK 924 INTRA-LIGAND FREE ENERGY PREDICTED BY IDOCK:   -0.19 KCAL/MOL
REMARK 927      BINDING AFFINITY PREDICTED BY RF-SCORE:    0.00 PKD
ROOT
HETATM    1  C   UNL     1     -12.308  10.401  70.518  1.00  0.00    -0.410 C  
HETATM    2  C   UNL     1     -11.535  10.803  69.310  1.00  0.00    -0.298 C  
HETATM    3  N   UNL     1     -12.064  11.305  68.239  1.00  0.00    -0.623 NA 
HETATM    4  N   UNL     1     -11.016  11.545  67.365  1.00  0.00    -0.248 N  
HETATM    5  C   UNL     1     -10.055  10.626  69.237  1.00  0.00    -0.227 C  
HETATM    6  C   UNL     1      -9.757  11.202  67.887  1.00  0.00    -0.174 C  
HETATM    7  O   UNL     1      -8.635  11.300  67.418  1.00  0.00    -0.132 OA 
ENDROOT
BRANCH   4   8
HETATM    8  C   UNL     1     -11.306  12.063  66.076  1.00  0.00    -0.343 A  
HETATM    9  C   UNL     1     -11.006  11.347  64.908  1.00  0.00    -0.284 A  
HETATM   10  C   UNL     1     -11.324  11.862  63.646  1.00  0.00    -0.536 A  
HETATM   11  C   UNL     1     -11.944  13.102  63.529  1.00  0.00    -0.580 A  
HETATM   12  C   UNL     1     -12.242  13.832  64.676  1.00  0.00    -0.440 A  
HETATM   13  C   UNL     1     -11.924  13.318  65.937  1.00  0.00    -0.466 A  
ENDBRANCH   4   8
TORSDOF 1
ENDMDL
MODEL       43
REMARK 921   NORMALIZED FREE ENERGY PREDICTED BY IDOCK:   -4.52 KCAL/MOL
REMARK 922        TOTAL FREE ENERGY PREDICTED BY IDOCK:   -4.93 KCAL/MOL
REMARK 923 INTER-LIGAND FREE ENERGY PREDICTED BY IDOCK:   -4.86 KCAL/MOL
REMARK 924 INTRA-LIGAND FREE ENERGY PREDICTED BY IDOCK:   -0.07 KCAL/MOL
REMARK 927      BINDING AFFINITY PREDICTED BY RF-SCORE:    0.00 PKD
ROOT
HETATM    1  C   UNL     1     -12.749  10.471  71.706  1.00  0.00    -0.508 C  
HETATM    2  C   UNL     1     -12.750  11.900  71.289  1.00  0.00    -0.298 C  
HETATM    3  N   UNL     1     -12.135  12.355  70.244  1.00  0.00    -0.341 NA 
HETATM    4  N   UNL     1     -12.387  13.717  70.207  1.00  0.00    -0.343 N  
HETATM    5  C   UNL     1     -13.458  12.944  72.085  1.00  0.00    -0.619 C  
HETATM    6  C   UNL     1     -13.207  14.166  71.256  1.00  0.00    -0.329 C  
HETATM    7  O   UNL     1     -13.647  15.273  71.520  1.00  0.00    -0.432 OA 
ENDROOT
BRANCH   4   8
HETATM    8  C   UNL     1     -11.797  14.496  69.178  1.00  0.00    -0.319 A  
HETATM    9  C   UNL     1     -11.784  14.067  67.843  1.00  0.00    -0.397 A  
HETATM   10  C   UNL     1     -11.222  14.861  66.837  1.00  0.00    -0.343 A  
HETATM   11  C   UNL     1     -10.661  16.096  67.147  1.00  0.00    -0.294 A  
HETATM   12  C   UNL     1     -10.657  16.536  68.467  1.00  0.00    -0.318 A  
HETATM   13  C   UNL     1     -11.218  15.742  69.473  1.00  0.00    -0.317 A  
ENDBRANCH   4   8
TORSDOF 1
ENDMDL
MODEL       44
REMARK 921   NORMALIZED FREE ENERGY PREDICTED BY IDOCK:   -4.46 KCAL/MOL
REMARK 922        TOTAL FREE ENERGY PREDICTED BY IDOCK:   -4.87 KCAL/MOL
REMARK 923 INTER-LIGAND FREE ENERGY PREDICTED BY IDOCK:   -4.65 KCAL/MOL
REMARK 924 INTRA-LIGAND FREE ENERGY PREDICTED BY IDOCK:   -0.22 KCAL/MOL
REMARK 927      BINDING AFFINITY PREDICTED BY RF-SCORE:    0.00 PKD
ROOT
HETATM    1  C   UNL     1     -13.398  13.606  72.330  1.00  0.00    -0.641 C  
HETATM    2  C   UNL     1     -12.758  13.133  71.072  1.00  0.00    -0.277 C  
HETATM    3  N   UNL     1     -12.410  13.908  70.094  1.00  0.00    -0.342 NA 
HETATM    4  N   UNL     1     -11.851  13.087  69.128  1.00  0.00    -0.312 N  
HETATM    5  C   UNL     1     -12.489  11.685  70.831  1.00  0.00    -0.440 C  
HETATM    6  C   UNL     1     -11.819  11.730  69.492  1.00  0.00    -0.337 C  
HETATM    7  O   UNL     1     -11.385  10.748  68.912  1.00  0.00    -0.244 OA 
ENDROOT
BRANCH   4   8
HETATM    8  C   UNL     1     -11.411  13.665  67.908  1.00  0.00    -0.314 A  
HETATM    9  C   UNL     1     -10.113  14.173  67.758  1.00  0.00    -0.239 A  
HETATM   10  C   UNL     1      -9.688  14.714  66.539  1.00  0.00    -0.297 A  
HETATM   11  C   UNL     1     -10.554  14.759  65.451  1.00  0.00    -0.395 A  
HETATM   12  C   UNL     1     -11.849  14.266  65.582  1.00  0.00    -0.373 A  
HETATM   13  C   UNL     1     -12.273  13.727  66.801  1.00  0.00    -0.440 A  
ENDBRANCH   4   8
TORSDOF 1
ENDMDL
MODEL       45
REMARK 921   NORMALIZED FREE ENERGY PREDICTED BY IDOCK:   -4.44 KCAL/MOL
REMARK 922        TOTAL FREE ENERGY PREDICTED BY IDOCK:   -4.85 KCAL/MOL
REMARK 923 INTER-LIGAND FREE ENERGY PREDICTED BY IDOCK:   -4.63 KCAL/MOL
REMARK 924 INTRA-LIGAND FREE ENERGY PREDICTED BY IDOCK:   -0.22 KCAL/MOL
REMARK 927      BINDING AFFINITY PREDICTED BY RF-SCORE:    0.00 PKD
ROOT
HETATM    1  C   UNL     1      -6.863  19.628  68.986  1.00  0.00    -0.378 C  
HETATM    2  C   UNL     1      -8.097  19.203  68.269  1.00  0.00    -0.332 C  
HETATM    3  N   UNL     1      -8.527  17.982  68.217  1.00  0.00    -0.280 NA 
HETATM    4  N   UNL     1      -9.693  18.013  67.469  1.00  0.00    -0.282 N  
HETATM    5  C   UNL     1      -8.936  20.180  67.515  1.00  0.00    -0.442 C  
HETATM    6  C   UNL     1     -10.045  19.300  67.028  1.00  0.00    -0.374 C  
HETATM    7  O   UNL     1     -11.001  19.698  66.382  1.00  0.00    -0.387 OA 
ENDROOT
BRANCH   4   8
HETATM    8  C   UNL     1     -10.371  16.794  67.208  1.00  0.00    -0.304 A  
HETATM    9  C   UNL     1     -10.346  16.191  65.942  1.00  0.00    -0.384 A  
HETATM   10  C   UNL     1     -10.997  14.975  65.710  1.00  0.00    -0.351 A  
HETATM   11  C   UNL     1     -11.688  14.341  66.738  1.00  0.00    -0.424 A  
HETATM   12  C   UNL     1     -11.731  14.926  68.000  1.00  0.00    -0.344 A  
HETATM   13  C   UNL     1     -11.081  16.143  68.231  1.00  0.00    -0.348 A  
ENDBRANCH   4   8
TORSDOF 1
ENDMDL
MODEL       46
REMARK 921   NORMALIZED FREE ENERGY PREDICTED BY IDOCK:   -4.42 KCAL/MOL
REMARK 922        TOTAL FREE ENERGY PREDICTED BY IDOCK:   -4.83 KCAL/MOL
REMARK 923 INTER-LIGAND FREE ENERGY PREDICTED BY IDOCK:   -4.61 KCAL/MOL
REMARK 924 INTRA-LIGAND FREE ENERGY PREDICTED BY IDOCK:   -0.22 KCAL/MOL
REMARK 927      BINDING AFFINITY PREDICTED BY RF-SCORE:    0.00 PKD
ROOT
HETATM    1  C   UNL     1      -7.555  14.602  68.792  1.00  0.00    -0.138 C  
HETATM    2  C   UNL     1      -8.478  14.769  67.636  1.00  0.00    -0.177 C  
HETATM    3  N   UNL     1      -9.168  13.807  67.109  1.00  0.00    -0.234 NA 
HETATM    4  N   UNL     1      -9.897  14.374  66.075  1.00  0.00    -0.313 N  
HETATM    5  C   UNL     1      -8.660  16.090  66.968  1.00  0.00    -0.238 C  
HETATM    6  C   UNL     1      -9.687  15.756  65.930  1.00  0.00    -0.354 C  
HETATM    7  O   UNL     1     -10.170  16.569  65.159  1.00  0.00    -0.590 OA 
ENDROOT
BRANCH   4   8
HETATM    8  C   UNL     1     -10.723  13.537  65.281  1.00  0.00    -0.323 A  
HETATM    9  C   UNL     1     -12.106  13.445  65.497  1.00  0.00    -0.467 A  
HETATM   10  C   UNL     1     -12.910  12.636  64.686  1.00  0.00    -0.361 A  
HETATM   11  C   UNL     1     -12.346  11.903  63.647  1.00  0.00    -0.591 A  
HETATM   12  C   UNL     1     -10.974  11.976  63.420  1.00  0.00    -0.475 A  
HETATM   13  C   UNL     1     -10.171  12.783  64.231  1.00  0.00    -0.352 A  
ENDBRANCH   4   8
TORSDOF 1
ENDMDL
MODEL       47
REMARK 921   NORMALIZED FREE ENERGY PREDICTED BY IDOCK:   -4.39 KCAL/MOL
REMARK 922        TOTAL FREE ENERGY PREDICTED BY IDOCK:   -4.80 KCAL/MOL
REMARK 923 INTER-LIGAND FREE ENERGY PREDICTED BY IDOCK:   -4.58 KCAL/MOL
REMARK 924 INTRA-LIGAND FREE ENERGY PREDICTED BY IDOCK:   -0.22 KCAL/MOL
REMARK 927      BINDING AFFINITY PREDICTED BY RF-SCORE:    0.00 PKD
ROOT
HETATM    1  C   UNL     1     -10.851  11.220  69.273  1.00  0.00    -0.259 C  
HETATM    2  C   UNL     1     -11.431  10.341  70.326  1.00  0.00    -0.317 C  
HETATM    3  N   UNL     1     -10.816   9.329  70.851  1.00  0.00    -0.269 NA 
HETATM    4  N   UNL     1     -11.685   8.788  71.785  1.00  0.00    -0.321 N  
HETATM    5  C   UNL     1     -12.812  10.555  70.847  1.00  0.00    -0.485 C  
HETATM    6  C   UNL     1     -12.905   9.478  71.884  1.00  0.00    -0.420 C  
HETATM    7  O   UNL     1     -13.875   9.304  72.603  1.00  0.00    -0.449 OA 
ENDROOT
BRANCH   4   8
HETATM    8  C   UNL     1     -11.289   7.626  72.497  1.00  0.00    -0.355 A  
HETATM    9  C   UNL     1     -10.371   7.684  73.554  1.00  0.00    -0.306 A  
HETATM   10  C   UNL     1     -10.014   6.532  74.264  1.00  0.00    -0.362 A  
HETATM   11  C   UNL     1     -10.566   5.301  73.926  1.00  0.00    -0.335 A  
HETATM   12  C   UNL     1     -11.474   5.220  72.874  1.00  0.00    -0.339 A  
HETATM   13  C   UNL     1     -11.830   6.372  72.165  1.00  0.00    -0.361 A  
ENDBRANCH   4   8
TORSDOF 1
ENDMDL
MODEL       48
REMARK 921   NORMALIZED FREE ENERGY PREDICTED BY IDOCK:   -4.34 KCAL/MOL
REMARK 922        TOTAL FREE ENERGY PREDICTED BY IDOCK:   -4.74 KCAL/MOL
REMARK 923 INTER-LIGAND FREE ENERGY PREDICTED BY IDOCK:   -4.52 KCAL/MOL
REMARK 924 INTRA-LIGAND FREE ENERGY PREDICTED BY IDOCK:   -0.22 KCAL/MOL
REMARK 927      BINDING AFFINITY PREDICTED BY RF-SCORE:    0.00 PKD
ROOT
HETATM    1  C   UNL     1     -12.213  11.091  70.770  1.00  0.00    -0.480 C  
HETATM    2  C   UNL     1     -11.777  11.281  69.359  1.00  0.00    -0.339 C  
HETATM    3  N   UNL     1     -11.857  12.402  68.715  1.00  0.00    -0.322 NA 
HETATM    4  N   UNL     1     -11.346  12.161  67.450  1.00  0.00    -0.304 N  
HETATM    5  C   UNL     1     -11.224  10.152  68.555  1.00  0.00    -0.226 C  
HETATM    6  C   UNL     1     -10.904  10.840  67.264  1.00  0.00    -0.288 C  
HETATM    7  O   UNL     1     -10.385  10.289  66.307  1.00  0.00    -0.230 OA 
ENDROOT
BRANCH   4   8
HETATM    8  C   UNL     1     -11.346  13.214  66.499  1.00  0.00    -0.315 A  
HETATM    9  C   UNL     1     -12.376  13.359  65.558  1.00  0.00    -0.528 A  
HETATM   10  C   UNL     1     -12.374  14.420  64.645  1.00  0.00    -0.435 A  
HETATM   11  C   UNL     1     -11.341  15.352  64.656  1.00  0.00    -0.361 A  
HETATM   12  C   UNL     1     -10.306  15.222  65.577  1.00  0.00    -0.408 A  
HETATM   13  C   UNL     1     -10.308  14.161  66.488  1.00  0.00    -0.284 A  
ENDBRANCH   4   8
TORSDOF 1
ENDMDL
MODEL       49
REMARK 921   NORMALIZED FREE ENERGY PREDICTED BY IDOCK:   -4.31 KCAL/MOL
REMARK 922        TOTAL FREE ENERGY PREDICTED BY IDOCK:   -4.72 KCAL/MOL
REMARK 923 INTER-LIGAND FREE ENERGY PREDICTED BY IDOCK:   -4.51 KCAL/MOL
REMARK 924 INTRA-LIGAND FREE ENERGY PREDICTED BY IDOCK:   -0.21 KCAL/MOL
REMARK 927      BINDING AFFINITY PREDICTED BY RF-SCORE:    0.00 PKD
ROOT
HETATM    1  C   UNL     1      -9.136   8.249  72.293  1.00  0.00    -0.289 C  
HETATM    2  C   UNL     1     -10.212   8.990  71.577  1.00  0.00    -0.344 C  
HETATM    3  N   UNL     1     -10.016   9.730  70.532  1.00  0.00    -0.248 NA 
HETATM    4  N   UNL     1     -11.258  10.228  70.171  1.00  0.00    -0.296 N  
HETATM    5  C   UNL     1     -11.629   8.949  72.042  1.00  0.00    -0.435 C  
HETATM    6  C   UNL     1     -12.304   9.787  70.999  1.00  0.00    -0.332 C  
HETATM    7  O   UNL     1     -13.505   9.997  70.965  1.00  0.00    -0.367 OA 
ENDROOT
BRANCH   4   8
HETATM    8  C   UNL     1     -11.345  11.117  69.068  1.00  0.00    -0.276 A  
HETATM    9  C   UNL     1     -11.126  10.686  67.752  1.00  0.00    -0.385 A  
HETATM   10  C   UNL     1     -11.244  11.571  66.675  1.00  0.00    -0.336 A  
HETATM   11  C   UNL     1     -11.580  12.903  66.894  1.00  0.00    -0.425 A  
HETATM   12  C   UNL     1     -11.794  13.353  68.193  1.00  0.00    -0.396 A  
HETATM   13  C   UNL     1     -11.675  12.468  69.270  1.00  0.00    -0.379 A  
ENDBRANCH   4   8
TORSDOF 1
ENDMDL
MODEL       50
REMARK 921   NORMALIZED FREE ENERGY PREDICTED BY IDOCK:   -4.30 KCAL/MOL
REMARK 922        TOTAL FREE ENERGY PREDICTED BY IDOCK:   -4.70 KCAL/MOL
REMARK 923 INTER-LIGAND FREE ENERGY PREDICTED BY IDOCK:   -4.48 KCAL/MOL
REMARK 924 INTRA-LIGAND FREE ENERGY PREDICTED BY IDOCK:   -0.22 KCAL/MOL
REMARK 927      BINDING AFFINITY PREDICTED BY RF-SCORE:    0.00 PKD
ROOT
HETATM    1  C   UNL     1      -9.118   8.063  66.216  1.00  0.00    -0.232 C  
HETATM    2  C   UNL     1      -9.902   9.278  66.571  1.00  0.00    -0.263 C  
HETATM    3  N   UNL     1      -9.978  10.339  65.831  1.00  0.00    -0.243 NA 
HETATM    4  N   UNL     1     -10.802  11.226  66.507  1.00  0.00    -0.277 N  
HETATM    5  C   UNL     1     -10.658   9.371  67.854  1.00  0.00    -0.293 C  
HETATM    6  C   UNL     1     -11.293  10.722  67.723  1.00  0.00    -0.279 C  
HETATM    7  O   UNL     1     -12.049  11.204  68.550  1.00  0.00    -0.586 OA 
ENDROOT
BRANCH   4   8
HETATM    8  C   UNL     1     -11.035  12.508  65.945  1.00  0.00    -0.279 A  
HETATM    9  C   UNL     1     -10.081  13.532  66.022  1.00  0.00    -0.316 A  
HETATM   10  C   UNL     1     -10.317  14.782  65.438  1.00  0.00    -0.410 A  
HETATM   11  C   UNL     1     -11.512  15.030  64.770  1.00  0.00    -0.403 A  
HETATM   12  C   UNL     1     -12.475  14.029  64.689  1.00  0.00    -0.366 A  
HETATM   13  C   UNL     1     -12.239  12.780  65.273  1.00  0.00    -0.535 A  
ENDBRANCH   4   8
TORSDOF 1
ENDMDL
MODEL       51
REMARK 921   NORMALIZED FREE ENERGY PREDICTED BY IDOCK:   -4.26 KCAL/MOL
REMARK 922        TOTAL FREE ENERGY PREDICTED BY IDOCK:   -4.66 KCAL/MOL
REMARK 923 INTER-LIGAND FREE ENERGY PREDICTED BY IDOCK:   -4.56 KCAL/MOL
REMARK 924 INTRA-LIGAND FREE ENERGY PREDICTED BY IDOCK:   -0.10 KCAL/MOL
REMARK 927      BINDING AFFINITY PREDICTED BY RF-SCORE:    0.00 PKD
ROOT
HETATM    1  C   UNL     1      -9.627   8.208  68.380  1.00  0.00    -0.155 C  
HETATM    2  C   UNL     1     -10.404   9.478  68.439  1.00  0.00    -0.206 C  
HETATM    3  N   UNL     1     -10.803  10.038  69.536  1.00  0.00    -0.239 NA 
HETATM    4  N   UNL     1     -11.476  11.190  69.161  1.00  0.00    -0.268 N  
HETATM    5  C   UNL     1     -10.811  10.201  67.199  1.00  0.00    -0.257 C  
HETATM    6  C   UNL     1     -11.507  11.397  67.772  1.00  0.00    -0.281 C  
HETATM    7  O   UNL     1     -11.978  12.300  67.100  1.00  0.00    -0.564 OA 
ENDROOT
BRANCH   4   8
HETATM    8  C   UNL     1     -12.068  11.996  70.168  1.00  0.00    -0.298 A  
HETATM    9  C   UNL     1     -11.955  13.393  70.157  1.00  0.00    -0.396 A  
HETATM   10  C   UNL     1     -12.569  14.174  71.143  1.00  0.00    -0.439 A  
HETATM   11  C   UNL     1     -13.304  13.572  72.158  1.00  0.00    -0.593 A  
HETATM   12  C   UNL     1     -13.422  12.186  72.192  1.00  0.00    -0.383 A  
HETATM   13  C   UNL     1     -12.808  11.406  71.207  1.00  0.00    -0.481 A  
ENDBRANCH   4   8
TORSDOF 1
ENDMDL
MODEL       52
REMARK 921   NORMALIZED FREE ENERGY PREDICTED BY IDOCK:   -4.25 KCAL/MOL
REMARK 922        TOTAL FREE ENERGY PREDICTED BY IDOCK:   -4.65 KCAL/MOL
REMARK 923 INTER-LIGAND FREE ENERGY PREDICTED BY IDOCK:   -4.62 KCAL/MOL
REMARK 924 INTRA-LIGAND FREE ENERGY PREDICTED BY IDOCK:   -0.03 KCAL/MOL
REMARK 927      BINDING AFFINITY PREDICTED BY RF-SCORE:    0.00 PKD
ROOT
HETATM    1  C   UNL     1     -10.321  19.362  66.041  1.00  0.00    -0.584 C  
HETATM    2  C   UNL     1     -10.408  18.039  66.719  1.00  0.00    -0.367 C  
HETATM    3  N   UNL     1     -10.515  16.907  66.098  1.00  0.00    -0.305 NA 
HETATM    4  N   UNL     1     -10.558  15.929  67.079  1.00  0.00    -0.308 N  
HETATM    5  C   UNL     1     -10.404  17.924  68.207  1.00  0.00    -0.389 C  
HETATM    6  C   UNL     1     -10.463  16.438  68.386  1.00  0.00    -0.298 C  
HETATM    7  O   UNL     1     -10.441  15.879  69.470  1.00  0.00    -0.238 OA 
ENDROOT
BRANCH   4   8
HETATM    8  C   UNL     1     -10.717  14.574  66.689  1.00  0.00    -0.305 A  
HETATM    9  C   UNL     1     -11.446  13.663  67.466  1.00  0.00    -0.360 A  
HETATM   10  C   UNL     1     -11.616  12.337  67.051  1.00  0.00    -0.418 A  
HETATM   11  C   UNL     1     -11.058  11.898  65.855  1.00  0.00    -0.365 A  
HETATM   12  C   UNL     1     -10.325  12.786  65.073  1.00  0.00    -0.323 A  
HETATM   13  C   UNL     1     -10.155  14.110  65.488  1.00  0.00    -0.360 A  
ENDBRANCH   4   8
TORSDOF 1
ENDMDL
MODEL       53
REMARK 921   NORMALIZED FREE ENERGY PREDICTED BY IDOCK:   -4.25 KCAL/MOL
REMARK 922        TOTAL FREE ENERGY PREDICTED BY IDOCK:   -4.65 KCAL/MOL
REMARK 923 INTER-LIGAND FREE ENERGY PREDICTED BY IDOCK:   -4.58 KCAL/MOL
REMARK 924 INTRA-LIGAND FREE ENERGY PREDICTED BY IDOCK:   -0.07 KCAL/MOL
REMARK 927      BINDING AFFINITY PREDICTED BY RF-SCORE:    0.00 PKD
ROOT
HETATM    1  C   UNL     1     -10.228   9.104  66.880  1.00  0.00    -0.336 C  
HETATM    2  C   UNL     1     -10.564   9.521  68.270  1.00  0.00    -0.216 C  
HETATM    3  N   UNL     1     -11.274  10.563  68.567  1.00  0.00    -0.273 NA 
HETATM    4  N   UNL     1     -11.360  10.593  69.950  1.00  0.00    -0.290 N  
HETATM    5  C   UNL     1     -10.070   8.759  69.454  1.00  0.00    -0.203 C  
HETATM    6  C   UNL     1     -10.695   9.526  70.578  1.00  0.00    -0.298 C  
HETATM    7  O   UNL     1     -10.586   9.225  71.755  1.00  0.00    -0.355 OA 
ENDROOT
BRANCH   4   8
HETATM    8  C   UNL     1     -12.053  11.665  70.570  1.00  0.00    -0.366 A  
HETATM    9  C   UNL     1     -12.871  11.465  71.691  1.00  0.00    -0.497 A  
HETATM   10  C   UNL     1     -13.525  12.538  72.306  1.00  0.00    -0.490 A  
HETATM   11  C   UNL     1     -13.375  13.829  71.811  1.00  0.00    -0.463 A  
HETATM   12  C   UNL     1     -12.574  14.048  70.694  1.00  0.00    -0.414 A  
HETATM   13  C   UNL     1     -11.921  12.975  70.079  1.00  0.00    -0.383 A  
ENDBRANCH   4   8
TORSDOF 1
ENDMDL
MODEL       54
REMARK 921   NORMALIZED FREE ENERGY PREDICTED BY IDOCK:   -4.24 KCAL/MOL
REMARK 922        TOTAL FREE ENERGY PREDICTED BY IDOCK:   -4.64 KCAL/MOL
REMARK 923 INTER-LIGAND FREE ENERGY PREDICTED BY IDOCK:   -4.43 KCAL/MOL
REMARK 924 INTRA-LIGAND FREE ENERGY PREDICTED BY IDOCK:   -0.22 KCAL/MOL
REMARK 927      BINDING AFFINITY PREDICTED BY RF-SCORE:    0.00 PKD
ROOT
HETATM    1  C   UNL     1     -10.622   9.387  68.378  1.00  0.00    -0.247 C  
HETATM    2  C   UNL     1     -10.999  10.824  68.273  1.00  0.00    -0.255 C  
HETATM    3  N   UNL     1     -10.921  11.520  67.183  1.00  0.00    -0.270 NA 
HETATM    4  N   UNL     1     -11.368  12.793  67.503  1.00  0.00    -0.292 N  
HETATM    5  C   UNL     1     -11.484  11.591  69.457  1.00  0.00    -0.378 C  
HETATM    6  C   UNL     1     -11.764  12.929  68.845  1.00  0.00    -0.327 C  
HETATM    7  O   UNL     1     -12.224  13.878  69.458  1.00  0.00    -0.336 OA 
ENDROOT
BRANCH   4   8
HETATM    8  C   UNL     1     -11.354  13.796  66.500  1.00  0.00    -0.325 A  
HETATM    9  C   UNL     1     -10.400  14.824  66.497  1.00  0.00    -0.287 A  
HETATM   10  C   UNL     1     -10.384  15.789  65.483  1.00  0.00    -0.430 A  
HETATM   11  C   UNL     1     -11.323  15.745  64.458  1.00  0.00    -0.324 A  
HETATM   12  C   UNL     1     -12.283  14.738  64.447  1.00  0.00    -0.447 A  
HETATM   13  C   UNL     1     -12.299  13.774  65.460  1.00  0.00    -0.507 A  
ENDBRANCH   4   8
TORSDOF 1
ENDMDL
MODEL       55
REMARK 921   NORMALIZED FREE ENERGY PREDICTED BY IDOCK:   -4.24 KCAL/MOL
REMARK 922        TOTAL FREE ENERGY PREDICTED BY IDOCK:   -4.64 KCAL/MOL
REMARK 923 INTER-LIGAND FREE ENERGY PREDICTED BY IDOCK:   -4.62 KCAL/MOL
REMARK 924 INTRA-LIGAND FREE ENERGY PREDICTED BY IDOCK:   -0.02 KCAL/MOL
REMARK 927      BINDING AFFINITY PREDICTED BY RF-SCORE:    0.00 PKD
ROOT
HETATM    1  C   UNL     1     -12.561  13.934  65.609  1.00  0.00    -0.553 C  
HETATM    2  C   UNL     1     -11.879  12.735  66.170  1.00  0.00    -0.425 C  
HETATM    3  N   UNL     1     -11.957  12.364  67.409  1.00  0.00    -0.520 NA 
HETATM    4  N   UNL     1     -11.195  11.212  67.518  1.00  0.00    -0.298 N  
HETATM    5  C   UNL     1     -11.011  11.865  65.324  1.00  0.00    -0.354 C  
HETATM    6  C   UNL     1     -10.609  10.807  66.306  1.00  0.00    -0.192 C  
HETATM    7  O   UNL     1      -9.911   9.846  66.028  1.00  0.00    -0.247 OA 
ENDROOT
BRANCH   4   8
HETATM    8  C   UNL     1     -11.061  10.597  68.790  1.00  0.00    -0.265 A  
HETATM    9  C   UNL     1      -9.888   9.929  69.168  1.00  0.00    -0.204 A  
HETATM   10  C   UNL     1      -9.763   9.353  70.437  1.00  0.00    -0.315 A  
HETATM   11  C   UNL     1     -10.810   9.432  71.350  1.00  0.00    -0.430 A  
HETATM   12  C   UNL     1     -11.985  10.085  70.992  1.00  0.00    -0.469 A  
HETATM   13  C   UNL     1     -12.110  10.660  69.723  1.00  0.00    -0.343 A  
ENDBRANCH   4   8
TORSDOF 1
ENDMDL
MODEL       56
REMARK 921   NORMALIZED FREE ENERGY PREDICTED BY IDOCK:   -4.22 KCAL/MOL
REMARK 922        TOTAL FREE ENERGY PREDICTED BY IDOCK:   -4.62 KCAL/MOL
REMARK 923 INTER-LIGAND FREE ENERGY PREDICTED BY IDOCK:   -4.66 KCAL/MOL
REMARK 924 INTRA-LIGAND FREE ENERGY PREDICTED BY IDOCK:    0.04 KCAL/MOL
REMARK 927      BINDING AFFINITY PREDICTED BY RF-SCORE:    0.00 PKD
ROOT
HETATM    1  C   UNL     1      -9.844  15.876  66.814  1.00  0.00    -0.254 C  
HETATM    2  C   UNL     1     -10.469  15.566  68.129  1.00  0.00    -0.259 C  
HETATM    3  N   UNL     1     -10.898  14.393  68.474  1.00  0.00    -0.243 NA 
HETATM    4  N   UNL     1     -11.396  14.524  69.761  1.00  0.00    -0.263 N  
HETATM    5  C   UNL     1     -10.676  16.622  69.162  1.00  0.00    -0.342 C  
HETATM    6  C   UNL     1     -11.276  15.825  70.280  1.00  0.00    -0.366 C  
HETATM    7  O   UNL     1     -11.578  16.291  71.366  1.00  0.00    -0.448 OA 
ENDROOT
BRANCH   4   8
HETATM    8  C   UNL     1     -11.978  13.393  70.389  1.00  0.00    -0.285 A  
HETATM    9  C   UNL     1     -12.894  13.523  71.442  1.00  0.00    -0.440 A  
HETATM   10  C   UNL     1     -13.480  12.397  72.031  1.00  0.00    -0.460 A  
HETATM   11  C   UNL     1     -13.157  11.121  71.580  1.00  0.00    -0.529 A  
HETATM   12  C   UNL     1     -12.243  10.970  70.541  1.00  0.00    -0.472 A  
HETATM   13  C   UNL     1     -11.658  12.096  69.954  1.00  0.00    -0.297 A  
ENDBRANCH   4   8
TORSDOF 1
ENDMDL
MODEL       57
REMARK 921   NORMALIZED FREE ENERGY PREDICTED BY IDOCK:   -4.21 KCAL/MOL
REMARK 922        TOTAL FREE ENERGY PREDICTED BY IDOCK:   -4.61 KCAL/MOL
REMARK 923 INTER-LIGAND FREE ENERGY PREDICTED BY IDOCK:   -4.67 KCAL/MOL
REMARK 924 INTRA-LIGAND FREE ENERGY PREDICTED BY IDOCK:    0.07 KCAL/MOL
REMARK 927      BINDING AFFINITY PREDICTED BY RF-SCORE:    0.00 PKD
ROOT
HETATM    1  C   UNL     1     -12.037  12.786  64.574  1.00  0.00    -0.478 C  
HETATM    2  C   UNL     1     -11.904  12.630  66.049  1.00  0.00    -0.436 C  
HETATM    3  N   UNL     1     -11.588  11.521  66.639  1.00  0.00    -0.459 NA 
HETATM    4  N   UNL     1     -11.563  11.797  67.997  1.00  0.00    -0.314 N  
HETATM    5  C   UNL     1     -12.158  13.768  66.980  1.00  0.00    -0.436 C  
HETATM    6  C   UNL     1     -11.859  13.136  68.304  1.00  0.00    -0.349 C  
HETATM    7  O   UNL     1     -11.902  13.729  69.370  1.00  0.00    -0.297 OA 
ENDROOT
BRANCH   4   8
HETATM    8  C   UNL     1     -11.283  10.744  68.905  1.00  0.00    -0.268 A  
HETATM    9  C   UNL     1     -10.562   9.605  68.517  1.00  0.00    -0.253 A  
HETATM   10  C   UNL     1     -10.271   8.589  69.433  1.00  0.00    -0.211 A  
HETATM   11  C   UNL     1     -10.698   8.691  70.754  1.00  0.00    -0.260 A  
HETATM   12  C   UNL     1     -11.420   9.810  71.158  1.00  0.00    -0.472 A  
HETATM   13  C   UNL     1     -11.712  10.825  70.241  1.00  0.00    -0.442 A  
ENDBRANCH   4   8
TORSDOF 1
ENDMDL
MODEL       58
REMARK 921   NORMALIZED FREE ENERGY PREDICTED BY IDOCK:   -4.21 KCAL/MOL
REMARK 922        TOTAL FREE ENERGY PREDICTED BY IDOCK:   -4.60 KCAL/MOL
REMARK 923 INTER-LIGAND FREE ENERGY PREDICTED BY IDOCK:   -4.39 KCAL/MOL
REMARK 924 INTRA-LIGAND FREE ENERGY PREDICTED BY IDOCK:   -0.21 KCAL/MOL
REMARK 927      BINDING AFFINITY PREDICTED BY RF-SCORE:    0.00 PKD
ROOT
HETATM    1  C   UNL     1     -11.470  11.617  63.931  1.00  0.00    -0.433 C  
HETATM    2  C   UNL     1     -11.275  13.040  64.325  1.00  0.00    -0.373 C  
HETATM    3  N   UNL     1     -10.498  13.431  65.286  1.00  0.00    -0.311 NA 
HETATM    4  N   UNL     1     -10.592  14.813  65.323  1.00  0.00    -0.365 N  
HETATM    5  C   UNL     1     -12.002  14.146  63.638  1.00  0.00    -0.008 C  
HETATM    6  C   UNL     1     -11.449  15.346  64.344  1.00  0.00    -0.255 C  
HETATM    7  O   UNL     1     -11.745  16.497  64.070  1.00  0.00    -1.111 OA 
ENDROOT
BRANCH   4   8
HETATM    8  C   UNL     1      -9.870  15.523  66.318  1.00  0.00    -0.294 A  
HETATM    9  C   UNL     1     -10.226  15.461  67.672  1.00  0.00    -0.246 A  
HETATM   10  C   UNL     1      -9.486  16.145  68.643  1.00  0.00    -0.227 A  
HETATM   11  C   UNL     1      -8.379  16.905  68.277  1.00  0.00    -0.224 A  
HETATM   12  C   UNL     1      -8.014  16.985  66.936  1.00  0.00    -0.256 A  
HETATM   13  C   UNL     1      -8.755  16.302  65.966  1.00  0.00    -0.285 A  
ENDBRANCH   4   8
TORSDOF 1
ENDMDL
MODEL       59
REMARK 921   NORMALIZED FREE ENERGY PREDICTED BY IDOCK:   -4.17 KCAL/MOL
REMARK 922        TOTAL FREE ENERGY PREDICTED BY IDOCK:   -4.57 KCAL/MOL
REMARK 923 INTER-LIGAND FREE ENERGY PREDICTED BY IDOCK:   -4.55 KCAL/MOL
REMARK 924 INTRA-LIGAND FREE ENERGY PREDICTED BY IDOCK:   -0.01 KCAL/MOL
REMARK 927      BINDING AFFINITY PREDICTED BY RF-SCORE:    0.00 PKD
ROOT
HETATM    1  C   UNL     1     -12.238  16.795  74.002  1.00  0.00    -0.291 C  
HETATM    2  C   UNL     1     -12.237  15.814  72.882  1.00  0.00    -0.481 C  
HETATM    3  N   UNL     1     -11.666  16.015  71.736  1.00  0.00    -0.487 NA 
HETATM    4  N   UNL     1     -11.888  14.871  70.986  1.00  0.00    -0.309 N  
HETATM    5  C   UNL     1     -12.937  14.501  72.995  1.00  0.00    -0.596 C  
HETATM    6  C   UNL     1     -12.616  13.882  71.669  1.00  0.00    -0.298 C  
HETATM    7  O   UNL     1     -12.965  12.762  71.336  1.00  0.00    -0.360 OA 
ENDROOT
BRANCH   4   8
HETATM    8  C   UNL     1     -11.405  14.823  69.652  1.00  0.00    -0.283 A  
HETATM    9  C   UNL     1     -12.069  14.098  68.653  1.00  0.00    -0.320 A  
HETATM   10  C   UNL     1     -11.595  14.085  67.336  1.00  0.00    -0.397 A  
HETATM   11  C   UNL     1     -10.446  14.793  66.997  1.00  0.00    -0.270 A  
HETATM   12  C   UNL     1      -9.769  15.513  67.976  1.00  0.00    -0.207 A  
HETATM   13  C   UNL     1     -10.243  15.525  69.292  1.00  0.00    -0.252 A  
ENDBRANCH   4   8
TORSDOF 1
ENDMDL
MODEL       60
REMARK 921   NORMALIZED FREE ENERGY PREDICTED BY IDOCK:   -4.14 KCAL/MOL
REMARK 922        TOTAL FREE ENERGY PREDICTED BY IDOCK:   -4.53 KCAL/MOL
REMARK 923 INTER-LIGAND FREE ENERGY PREDICTED BY IDOCK:   -4.31 KCAL/MOL
REMARK 924 INTRA-LIGAND FREE ENERGY PREDICTED BY IDOCK:   -0.22 KCAL/MOL
REMARK 927      BINDING AFFINITY PREDICTED BY RF-SCORE:    0.00 PKD
ROOT
HETATM    1  C   UNL     1      -8.282   7.927  74.093  1.00  0.00    -0.303 C  
HETATM    2  C   UNL     1      -9.409   8.113  73.138  1.00  0.00    -0.258 C  
HETATM    3  N   UNL     1      -9.386   8.931  72.134  1.00  0.00    -0.363 NA 
HETATM    4  N   UNL     1     -10.611   8.799  71.498  1.00  0.00    -0.281 N  
HETATM    5  C   UNL     1     -10.691   7.365  73.290  1.00  0.00    -0.441 C  
HETATM    6  C   UNL     1     -11.457   7.852  72.099  1.00  0.00    -0.324 C  
HETATM    7  O   UNL     1     -12.575   7.464  71.800  1.00  0.00    -0.320 OA 
ENDROOT
BRANCH   4   8
HETATM    8  C   UNL     1     -10.890   9.617  70.373  1.00  0.00    -0.295 A  
HETATM    9  C   UNL     1     -10.481   9.258  69.080  1.00  0.00    -0.231 A  
HETATM   10  C   UNL     1     -10.790  10.063  67.978  1.00  0.00    -0.311 A  
HETATM   11  C   UNL     1     -11.509  11.242  68.148  1.00  0.00    -0.376 A  
HETATM   12  C   UNL     1     -11.917  11.619  69.424  1.00  0.00    -0.381 A  
HETATM   13  C   UNL     1     -11.608  10.815  70.526  1.00  0.00    -0.425 A  
ENDBRANCH   4   8
TORSDOF 1
ENDMDL
MODEL       61
REMARK 921   NORMALIZED FREE ENERGY PREDICTED BY IDOCK:   -4.13 KCAL/MOL
REMARK 922        TOTAL FREE ENERGY PREDICTED BY IDOCK:   -4.53 KCAL/MOL
REMARK 923 INTER-LIGAND FREE ENERGY PREDICTED BY IDOCK:   -4.30 KCAL/MOL
REMARK 924 INTRA-LIGAND FREE ENERGY PREDICTED BY IDOCK:   -0.22 KCAL/MOL
REMARK 927      BINDING AFFINITY PREDICTED BY RF-SCORE:    0.00 PKD
ROOT
HETATM    1  C   UNL     1     -10.751   9.082  69.052  1.00  0.00    -0.163 C  
HETATM    2  C   UNL     1     -11.096  10.511  68.815  1.00  0.00    -0.265 C  
HETATM    3  N   UNL     1     -10.942  11.121  67.682  1.00  0.00    -0.249 NA 
HETATM    4  N   UNL     1     -11.383  12.420  67.877  1.00  0.00    -0.268 N  
HETATM    5  C   UNL     1     -11.634  11.374  69.906  1.00  0.00    -0.402 C  
HETATM    6  C   UNL     1     -11.854  12.665  69.179  1.00  0.00    -0.297 C  
HETATM    7  O   UNL     1     -12.332  13.664  69.689  1.00  0.00    -0.296 OA 
ENDROOT
BRANCH   4   8
HETATM    8  C   UNL     1     -11.293  13.343  66.803  1.00  0.00    -0.325 A  
HETATM    9  C   UNL     1     -12.296  13.441  65.828  1.00  0.00    -0.513 A  
HETATM   10  C   UNL     1     -12.204  14.377  64.791  1.00  0.00    -0.458 A  
HETATM   11  C   UNL     1     -11.106  15.228  64.709  1.00  0.00    -0.407 A  
HETATM   12  C   UNL     1     -10.096  15.141  65.663  1.00  0.00    -0.392 A  
HETATM   13  C   UNL     1     -10.189  14.205  66.698  1.00  0.00    -0.270 A  
ENDBRANCH   4   8
TORSDOF 1
ENDMDL
MODEL       62
REMARK 921   NORMALIZED FREE ENERGY PREDICTED BY IDOCK:   -4.12 KCAL/MOL
REMARK 922        TOTAL FREE ENERGY PREDICTED BY IDOCK:   -4.51 KCAL/MOL
REMARK 923 INTER-LIGAND FREE ENERGY PREDICTED BY IDOCK:   -4.30 KCAL/MOL
REMARK 924 INTRA-LIGAND FREE ENERGY PREDICTED BY IDOCK:   -0.21 KCAL/MOL
REMARK 927      BINDING AFFINITY PREDICTED BY RF-SCORE:    0.00 PKD
ROOT
HETATM    1  C   UNL     1      -7.407  11.095  68.865  1.00  0.00    -0.110 C  
HETATM    2  C   UNL     1      -8.788  11.250  68.331  1.00  0.00    -0.159 C  
HETATM    3  N   UNL     1      -9.067  11.722  67.156  1.00  0.00    -0.170 NA 
HETATM    4  N   UNL     1     -10.448  11.694  67.046  1.00  0.00    -0.216 N  
HETATM    5  C   UNL     1      -9.984  10.887  69.145  1.00  0.00    -0.181 C  
HETATM    6  C   UNL     1     -11.094  11.174  68.181  1.00  0.00    -0.264 C  
HETATM    7  O   UNL     1     -12.274  10.980  68.420  1.00  0.00    -0.586 OA 
ENDROOT
BRANCH   4   8
HETATM    8  C   UNL     1     -11.051  12.198  65.864  1.00  0.00    -0.318 A  
HETATM    9  C   UNL     1     -11.793  13.387  65.863  1.00  0.00    -0.414 A  
HETATM   10  C   UNL     1     -12.357  13.884  64.682  1.00  0.00    -0.421 A  
HETATM   11  C   UNL     1     -12.191  13.199  63.483  1.00  0.00    -0.552 A  
HETATM   12  C   UNL     1     -11.463  12.013  63.464  1.00  0.00    -0.536 A  
HETATM   13  C   UNL     1     -10.901  11.516  64.644  1.00  0.00    -0.372 A  
ENDBRANCH   4   8
TORSDOF 1
ENDMDL
MODEL       63
REMARK 921   NORMALIZED FREE ENERGY PREDICTED BY IDOCK:   -4.12 KCAL/MOL
REMARK 922        TOTAL FREE ENERGY PREDICTED BY IDOCK:   -4.51 KCAL/MOL
REMARK 923 INTER-LIGAND FREE ENERGY PREDICTED BY IDOCK:   -4.34 KCAL/MOL
REMARK 924 INTRA-LIGAND FREE ENERGY PREDICTED BY IDOCK:   -0.17 KCAL/MOL
REMARK 927      BINDING AFFINITY PREDICTED BY RF-SCORE:    0.00 PKD
ROOT
HETATM    1  C   UNL     1     -10.690  11.267  66.474  1.00  0.00    -0.323 C  
HETATM    2  C   UNL     1     -11.040  11.150  67.917  1.00  0.00    -0.273 C  
HETATM    3  N   UNL     1     -10.660  10.177  68.683  1.00  0.00    -0.200 NA 
HETATM    4  N   UNL     1     -11.184  10.444  69.938  1.00  0.00    -0.285 N  
HETATM    5  C   UNL     1     -11.901  12.163  68.595  1.00  0.00    -0.358 C  
HETATM    6  C   UNL     1     -11.921  11.639  69.998  1.00  0.00    -0.351 C  
HETATM    7  O   UNL     1     -12.491  12.190  70.925  1.00  0.00    -0.368 OA 
ENDROOT
BRANCH   4   8
HETATM    8  C   UNL     1     -10.961   9.512  70.985  1.00  0.00    -0.353 A  
HETATM    9  C   UNL     1     -12.021   8.939  71.701  1.00  0.00    -0.415 A  
HETATM   10  C   UNL     1     -11.784   8.001  72.712  1.00  0.00    -0.352 A  
HETATM   11  C   UNL     1     -10.483   7.622  73.027  1.00  0.00    -0.414 A  
HETATM   12  C   UNL     1      -9.416   8.185  72.333  1.00  0.00    -0.319 A  
HETATM   13  C   UNL     1      -9.654   9.123  71.323  1.00  0.00    -0.331 A  
ENDBRANCH   4   8
TORSDOF 1
ENDMDL
MODEL       64
REMARK 921   NORMALIZED FREE ENERGY PREDICTED BY IDOCK:   -4.11 KCAL/MOL
REMARK 922        TOTAL FREE ENERGY PREDICTED BY IDOCK:   -4.50 KCAL/MOL
REMARK 923 INTER-LIGAND FREE ENERGY PREDICTED BY IDOCK:   -4.28 KCAL/MOL
REMARK 924 INTRA-LIGAND FREE ENERGY PREDICTED BY IDOCK:   -0.22 KCAL/MOL
REMARK 927      BINDING AFFINITY PREDICTED BY RF-SCORE:    0.00 PKD
ROOT
HETATM    1  C   UNL     1      -9.401   4.804  68.178  1.00  0.00    -0.172 C  
HETATM    2  C   UNL     1     -10.047   5.210  69.457  1.00  0.00    -0.246 C  
HETATM    3  N   UNL     1     -10.871   6.203  69.575  1.00  0.00    -0.322 NA 
HETATM    4  N   UNL     1     -11.246   6.239  70.909  1.00  0.00    -0.313 N  
HETATM    5  C   UNL     1      -9.763   4.495  70.735  1.00  0.00    -0.267 C  
HETATM    6  C   UNL     1     -10.659   5.227  71.687  1.00  0.00    -0.192 C  
HETATM    7  O   UNL     1     -10.779   4.944  72.867  1.00  0.00    -0.207 OA 
ENDROOT
BRANCH   4   8
HETATM    8  C   UNL     1     -12.123   7.266  71.346  1.00  0.00    -0.335 A  
HETATM    9  C   UNL     1     -11.667   8.565  71.607  1.00  0.00    -0.369 A  
HETATM   10  C   UNL     1     -12.551   9.572  72.010  1.00  0.00    -0.456 A  
HETATM   11  C   UNL     1     -13.907   9.297  72.162  1.00  0.00    -0.478 A  
HETATM   12  C   UNL     1     -14.378   8.011  71.915  1.00  0.00    -0.559 A  
HETATM   13  C   UNL     1     -13.494   7.005  71.513  1.00  0.00    -0.363 A  
ENDBRANCH   4   8
TORSDOF 1
ENDMDL
MODEL       65
REMARK 921   NORMALIZED FREE ENERGY PREDICTED BY IDOCK:   -4.11 KCAL/MOL
REMARK 922        TOTAL FREE ENERGY PREDICTED BY IDOCK:   -4.50 KCAL/MOL
REMARK 923 INTER-LIGAND FREE ENERGY PREDICTED BY IDOCK:   -4.28 KCAL/MOL
REMARK 924 INTRA-LIGAND FREE ENERGY PREDICTED BY IDOCK:   -0.22 KCAL/MOL
REMARK 927      BINDING AFFINITY PREDICTED BY RF-SCORE:    0.00 PKD
ROOT
HETATM    1  C   UNL     1      -8.653   5.112  73.195  1.00  0.00    -0.110 C  
HETATM    2  C   UNL     1      -9.582   5.804  72.260  1.00  0.00    -0.147 C  
HETATM    3  N   UNL     1     -10.050   6.998  72.448  1.00  0.00    -0.172 NA 
HETATM    4  N   UNL     1     -10.861   7.272  71.358  1.00  0.00    -0.229 N  
HETATM    5  C   UNL     1     -10.073   5.142  71.017  1.00  0.00    -0.297 C  
HETATM    6  C   UNL     1     -10.914   6.228  70.419  1.00  0.00    -0.322 C  
HETATM    7  O   UNL     1     -11.493   6.133  69.349  1.00  0.00    -0.423 OA 
ENDROOT
BRANCH   4   8
HETATM    8  C   UNL     1     -11.551   8.511  71.312  1.00  0.00    -0.283 A  
HETATM    9  C   UNL     1     -12.738   8.723  72.029  1.00  0.00    -0.444 A  
HETATM   10  C   UNL     1     -13.390   9.960  71.994  1.00  0.00    -0.532 A  
HETATM   11  C   UNL     1     -12.869  11.007  71.241  1.00  0.00    -0.528 A  
HETATM   12  C   UNL     1     -11.696  10.816  70.517  1.00  0.00    -0.449 A  
HETATM   13  C   UNL     1     -11.045   9.578  70.551  1.00  0.00    -0.342 A  
ENDBRANCH   4   8
TORSDOF 1
ENDMDL
MODEL       66
REMARK 921   NORMALIZED FREE ENERGY PREDICTED BY IDOCK:   -4.10 KCAL/MOL
REMARK 922        TOTAL FREE ENERGY PREDICTED BY IDOCK:   -4.49 KCAL/MOL
REMARK 923 INTER-LIGAND FREE ENERGY PREDICTED BY IDOCK:   -4.31 KCAL/MOL
REMARK 924 INTRA-LIGAND FREE ENERGY PREDICTED BY IDOCK:   -0.19 KCAL/MOL
REMARK 927      BINDING AFFINITY PREDICTED BY RF-SCORE:    0.00 PKD
ROOT
HETATM    1  C   UNL     1     -10.572   4.316  74.040  1.00  0.00    -0.323 C  
HETATM    2  C   UNL     1     -10.260   5.726  73.679  1.00  0.00    -0.222 C  
HETATM    3  N   UNL     1     -10.979   6.452  72.883  1.00  0.00    -0.253 NA 
HETATM    4  N   UNL     1     -10.358   7.689  72.817  1.00  0.00    -0.265 N  
HETATM    5  C   UNL     1      -9.045   6.415  74.206  1.00  0.00    -0.180 C  
HETATM    6  C   UNL     1      -9.200   7.780  73.609  1.00  0.00    -0.284 C  
HETATM    7  O   UNL     1      -8.431   8.705  73.810  1.00  0.00    -0.333 OA 
ENDROOT
BRANCH   4   8
HETATM    8  C   UNL     1     -10.908   8.688  71.973  1.00  0.00    -0.360 A  
HETATM    9  C   UNL     1     -12.189   9.215  72.190  1.00  0.00    -0.408 A  
HETATM   10  C   UNL     1     -12.704  10.220  71.364  1.00  0.00    -0.547 A  
HETATM   11  C   UNL     1     -11.950  10.713  70.305  1.00  0.00    -0.425 A  
HETATM   12  C   UNL     1     -10.679  10.198  70.067  1.00  0.00    -0.356 A  
HETATM   13  C   UNL     1     -10.165   9.193  70.893  1.00  0.00    -0.351 A  
ENDBRANCH   4   8
TORSDOF 1
ENDMDL
MODEL       67
REMARK 921   NORMALIZED FREE ENERGY PREDICTED BY IDOCK:   -4.10 KCAL/MOL
REMARK 922        TOTAL FREE ENERGY PREDICTED BY IDOCK:   -4.49 KCAL/MOL
REMARK 923 INTER-LIGAND FREE ENERGY PREDICTED BY IDOCK:   -4.27 KCAL/MOL
REMARK 924 INTRA-LIGAND FREE ENERGY PREDICTED BY IDOCK:   -0.22 KCAL/MOL
REMARK 927      BINDING AFFINITY PREDICTED BY RF-SCORE:    0.00 PKD
ROOT
HETATM    1  C   UNL     1     -13.704  14.025  72.443  1.00  0.00    -0.669 C  
HETATM    2  C   UNL     1     -12.999  13.098  71.515  1.00  0.00    -0.321 C  
HETATM    3  N   UNL     1     -12.369  13.474  70.447  1.00  0.00    -0.341 NA 
HETATM    4  N   UNL     1     -11.853  12.322  69.875  1.00  0.00    -0.331 N  
HETATM    5  C   UNL     1     -12.991  11.624  71.744  1.00  0.00    -0.483 C  
HETATM    6  C   UNL     1     -12.144  11.154  70.601  1.00  0.00    -0.379 C  
HETATM    7  O   UNL     1     -11.835   9.989  70.414  1.00  0.00    -0.266 OA 
ENDROOT
BRANCH   4   8
HETATM    8  C   UNL     1     -11.140  12.424  68.653  1.00  0.00    -0.257 A  
HETATM    9  C   UNL     1     -11.795  12.624  67.430  1.00  0.00    -0.393 A  
HETATM   10  C   UNL     1     -11.074  12.751  66.237  1.00  0.00    -0.321 A  
HETATM   11  C   UNL     1      -9.684  12.677  66.247  1.00  0.00    -0.260 A  
HETATM   12  C   UNL     1      -9.015  12.471  67.449  1.00  0.00    -0.188 A  
HETATM   13  C   UNL     1      -9.737  12.344  68.640  1.00  0.00    -0.064 A  
ENDBRANCH   4   8
TORSDOF 1
ENDMDL
MODEL       68
REMARK 921   NORMALIZED FREE ENERGY PREDICTED BY IDOCK:   -4.09 KCAL/MOL
REMARK 922        TOTAL FREE ENERGY PREDICTED BY IDOCK:   -4.48 KCAL/MOL
REMARK 923 INTER-LIGAND FREE ENERGY PREDICTED BY IDOCK:   -4.27 KCAL/MOL
REMARK 924 INTRA-LIGAND FREE ENERGY PREDICTED BY IDOCK:   -0.22 KCAL/MOL
REMARK 927      BINDING AFFINITY PREDICTED BY RF-SCORE:    0.00 PKD
ROOT
HETATM    1  C   UNL     1      -8.086   7.452  74.496  1.00  0.00    -0.224 C  
HETATM    2  C   UNL     1      -9.264   7.659  73.609  1.00  0.00    -0.283 C  
HETATM    3  N   UNL     1      -9.402   8.662  72.801  1.00  0.00    -0.277 NA 
HETATM    4  N   UNL     1     -10.616   8.480  72.159  1.00  0.00    -0.331 N  
HETATM    5  C   UNL     1     -10.414   6.708  73.607  1.00  0.00    -0.353 C  
HETATM    6  C   UNL     1     -11.289   7.310  72.550  1.00  0.00    -0.296 C  
HETATM    7  O   UNL     1     -12.347   6.826  72.183  1.00  0.00    -0.283 OA 
ENDROOT
BRANCH   4   8
HETATM    8  C   UNL     1     -11.056   9.462  71.234  1.00  0.00    -0.376 A  
HETATM    9  C   UNL     1     -12.132  10.314  71.518  1.00  0.00    -0.407 A  
HETATM   10  C   UNL     1     -12.535  11.296  70.605  1.00  0.00    -0.439 A  
HETATM   11  C   UNL     1     -11.870  11.440  69.391  1.00  0.00    -0.419 A  
HETATM   12  C   UNL     1     -10.804  10.599  69.087  1.00  0.00    -0.279 A  
HETATM   13  C   UNL     1     -10.403   9.617  70.000  1.00  0.00    -0.298 A  
ENDBRANCH   4   8
TORSDOF 1
ENDMDL
MODEL       69
REMARK 921   NORMALIZED FREE ENERGY PREDICTED BY IDOCK:   -4.06 KCAL/MOL
REMARK 922        TOTAL FREE ENERGY PREDICTED BY IDOCK:   -4.45 KCAL/MOL
REMARK 923 INTER-LIGAND FREE ENERGY PREDICTED BY IDOCK:   -4.35 KCAL/MOL
REMARK 924 INTRA-LIGAND FREE ENERGY PREDICTED BY IDOCK:   -0.10 KCAL/MOL
REMARK 927      BINDING AFFINITY PREDICTED BY RF-SCORE:    0.00 PKD
ROOT
HETATM    1  C   UNL     1      -9.849   8.023  69.910  1.00  0.00    -0.186 C  
HETATM    2  C   UNL     1     -10.617   9.299  69.872  1.00  0.00    -0.226 C  
HETATM    3  N   UNL     1     -10.605  10.128  68.877  1.00  0.00    -0.204 NA 
HETATM    4  N   UNL     1     -11.446  11.171  69.231  1.00  0.00    -0.265 N  
HETATM    5  C   UNL     1     -11.459   9.736  71.024  1.00  0.00    -0.458 C  
HETATM    6  C   UNL     1     -12.039  11.012  70.495  1.00  0.00    -0.377 C  
HETATM    7  O   UNL     1     -12.836  11.704  71.106  1.00  0.00    -0.364 OA 
ENDROOT
BRANCH   4   8
HETATM    8  C   UNL     1     -11.596  12.263  68.338  1.00  0.00    -0.326 A  
HETATM    9  C   UNL     1     -11.559  13.592  68.783  1.00  0.00    -0.359 A  
HETATM   10  C   UNL     1     -11.682  14.657  67.883  1.00  0.00    -0.379 A  
HETATM   11  C   UNL     1     -11.846  14.412  66.524  1.00  0.00    -0.406 A  
HETATM   12  C   UNL     1     -11.892  13.100  66.062  1.00  0.00    -0.457 A  
HETATM   13  C   UNL     1     -11.771  12.036  66.962  1.00  0.00    -0.341 A  
ENDBRANCH   4   8
TORSDOF 1
ENDMDL
MODEL       70
REMARK 921   NORMALIZED FREE ENERGY PREDICTED BY IDOCK:   -4.03 KCAL/MOL
REMARK 922        TOTAL FREE ENERGY PREDICTED BY IDOCK:   -4.42 KCAL/MOL
REMARK 923 INTER-LIGAND FREE ENERGY PREDICTED BY IDOCK:   -4.34 KCAL/MOL
REMARK 924 INTRA-LIGAND FREE ENERGY PREDICTED BY IDOCK:   -0.08 KCAL/MOL
REMARK 927      BINDING AFFINITY PREDICTED BY RF-SCORE:    0.00 PKD
ROOT
HETATM    1  C   UNL     1     -10.517   8.720  69.020  1.00  0.00    -0.220 C  
HETATM    2  C   UNL     1     -10.436   9.431  67.714  1.00  0.00    -0.254 C  
HETATM    3  N   UNL     1     -10.954  10.597  67.485  1.00  0.00    -0.300 NA 
HETATM    4  N   UNL     1     -10.653  10.903  66.168  1.00  0.00    -0.237 N  
HETATM    5  C   UNL     1      -9.754   8.822  66.535  1.00  0.00    -0.328 C  
HETATM    6  C   UNL     1      -9.900   9.911  65.517  1.00  0.00    -0.311 C  
HETATM    7  O   UNL     1      -9.443   9.856  64.387  1.00  0.00    -0.283 OA 
ENDROOT
BRANCH   4   8
HETATM    8  C   UNL     1     -11.137  12.120  65.620  1.00  0.00    -0.316 A  
HETATM    9  C   UNL     1     -11.040  13.333  66.315  1.00  0.00    -0.306 A  
HETATM   10  C   UNL     1     -11.497  14.528  65.748  1.00  0.00    -0.342 A  
HETATM   11  C   UNL     1     -12.062  14.530  64.477  1.00  0.00    -0.501 A  
HETATM   12  C   UNL     1     -12.174  13.335  63.773  1.00  0.00    -0.508 A  
HETATM   13  C   UNL     1     -11.718  12.141  64.341  1.00  0.00    -0.430 A  
ENDBRANCH   4   8
TORSDOF 1
ENDMDL
MODEL       71
REMARK 921   NORMALIZED FREE ENERGY PREDICTED BY IDOCK:   -3.99 KCAL/MOL
REMARK 922        TOTAL FREE ENERGY PREDICTED BY IDOCK:   -4.37 KCAL/MOL
REMARK 923 INTER-LIGAND FREE ENERGY PREDICTED BY IDOCK:   -4.20 KCAL/MOL
REMARK 924 INTRA-LIGAND FREE ENERGY PREDICTED BY IDOCK:   -0.18 KCAL/MOL
REMARK 927      BINDING AFFINITY PREDICTED BY RF-SCORE:    0.00 PKD
ROOT
HETATM    1  C   UNL     1     -10.899  11.107  64.487  1.00  0.00    -0.320 C  
HETATM    2  C   UNL     1     -10.712  11.628  65.870  1.00  0.00    -0.278 C  
HETATM    3  N   UNL     1     -11.438  11.280  66.885  1.00  0.00    -0.433 NA 
HETATM    4  N   UNL     1     -10.941  11.977  67.975  1.00  0.00    -0.210 N  
HETATM    5  C   UNL     1      -9.659  12.637  66.187  1.00  0.00    -0.222 C  
HETATM    6  C   UNL     1      -9.842  12.797  67.665  1.00  0.00    -0.214 C  
HETATM    7  O   UNL     1      -9.150  13.517  68.365  1.00  0.00    -0.193 OA 
ENDROOT
BRANCH   4   8
HETATM    8  C   UNL     1     -11.577  11.823  69.234  1.00  0.00    -0.315 A  
HETATM    9  C   UNL     1     -11.656  10.579  69.875  1.00  0.00    -0.384 A  
HETATM   10  C   UNL     1     -12.262  10.452  71.130  1.00  0.00    -0.498 A  
HETATM   11  C   UNL     1     -12.803  11.566  71.764  1.00  0.00    -0.441 A  
HETATM   12  C   UNL     1     -12.742  12.809  71.141  1.00  0.00    -0.355 A  
HETATM   13  C   UNL     1     -12.136  12.935  69.887  1.00  0.00    -0.335 A  
ENDBRANCH   4   8
TORSDOF 1
ENDMDL
MODEL       72
REMARK 921   NORMALIZED FREE ENERGY PREDICTED BY IDOCK:   -3.98 KCAL/MOL
REMARK 922        TOTAL FREE ENERGY PREDICTED BY IDOCK:   -4.37 KCAL/MOL
REMARK 923 INTER-LIGAND FREE ENERGY PREDICTED BY IDOCK:   -4.19 KCAL/MOL
REMARK 924 INTRA-LIGAND FREE ENERGY PREDICTED BY IDOCK:   -0.18 KCAL/MOL
REMARK 927      BINDING AFFINITY PREDICTED BY RF-SCORE:    0.00 PKD
ROOT
HETATM    1  C   UNL     1      -9.547  17.101  65.974  1.00  0.00    -0.190 C  
HETATM    2  C   UNL     1     -10.213  15.786  65.767  1.00  0.00    -0.370 C  
HETATM    3  N   UNL     1     -10.063  14.761  66.545  1.00  0.00    -0.264 NA 
HETATM    4  N   UNL     1     -10.849  13.752  66.014  1.00  0.00    -0.281 N  
HETATM    5  C   UNL     1     -11.109  15.541  64.599  1.00  0.00    -0.373 C  
HETATM    6  C   UNL     1     -11.550  14.133  64.857  1.00  0.00    -0.379 C  
HETATM    7  O   UNL     1     -12.339  13.525  64.154  1.00  0.00    -0.574 OA 
ENDROOT
BRANCH   4   8
HETATM    8  C   UNL     1     -10.849  12.480  66.644  1.00  0.00    -0.246 A  
HETATM    9  C   UNL     1     -10.472  11.317  65.959  1.00  0.00    -0.310 A  
HETATM   10  C   UNL     1     -10.451  10.075  66.604  1.00  0.00    -0.244 A  
HETATM   11  C   UNL     1     -10.809   9.974  67.944  1.00  0.00    -0.323 A  
HETATM   12  C   UNL     1     -11.193  11.116  68.641  1.00  0.00    -0.314 A  
HETATM   13  C   UNL     1     -11.215  12.357  67.995  1.00  0.00    -0.317 A  
ENDBRANCH   4   8
TORSDOF 1
ENDMDL
MODEL       73
REMARK 921   NORMALIZED FREE ENERGY PREDICTED BY IDOCK:   -3.97 KCAL/MOL
REMARK 922        TOTAL FREE ENERGY PREDICTED BY IDOCK:   -4.35 KCAL/MOL
REMARK 923 INTER-LIGAND FREE ENERGY PREDICTED BY IDOCK:   -4.14 KCAL/MOL
REMARK 924 INTRA-LIGAND FREE ENERGY PREDICTED BY IDOCK:   -0.21 KCAL/MOL
REMARK 927      BINDING AFFINITY PREDICTED BY RF-SCORE:    0.00 PKD
ROOT
HETATM    1  C   UNL     1      -9.463   5.966  72.332  1.00  0.00    -0.155 C  
HETATM    2  C   UNL     1     -10.627   6.816  71.956  1.00  0.00    -0.213 C  
HETATM    3  N   UNL     1     -10.562   8.095  71.761  1.00  0.00    -0.235 NA 
HETATM    4  N   UNL     1     -11.844   8.501  71.426  1.00  0.00    -0.286 N  
HETATM    5  C   UNL     1     -11.994   6.240  71.799  1.00  0.00    -0.313 C  
HETATM    6  C   UNL     1     -12.776   7.450  71.387  1.00  0.00    -0.369 C  
HETATM    7  O   UNL     1     -13.964   7.433  71.110  1.00  0.00    -0.327 OA 
ENDROOT
BRANCH   4   8
HETATM    8  C   UNL     1     -12.087   9.880  71.195  1.00  0.00    -0.374 A  
HETATM    9  C   UNL     1     -12.837  10.658  72.088  1.00  0.00    -0.239 A  
HETATM   10  C   UNL     1     -13.043  12.023  71.858  1.00  0.00    -0.475 A  
HETATM   11  C   UNL     1     -12.506  12.633  70.730  1.00  0.00    -0.357 A  
HETATM   12  C   UNL     1     -11.765  11.877  69.827  1.00  0.00    -0.403 A  
HETATM   13  C   UNL     1     -11.560  10.513  70.057  1.00  0.00    -0.392 A  
ENDBRANCH   4   8
TORSDOF 1
ENDMDL
MODEL       74
REMARK 921   NORMALIZED FREE ENERGY PREDICTED BY IDOCK:   -3.95 KCAL/MOL
REMARK 922        TOTAL FREE ENERGY PREDICTED BY IDOCK:   -4.34 KCAL/MOL
REMARK 923 INTER-LIGAND FREE ENERGY PREDICTED BY IDOCK:   -4.17 KCAL/MOL
REMARK 924 INTRA-LIGAND FREE ENERGY PREDICTED BY IDOCK:   -0.16 KCAL/MOL
REMARK 927      BINDING AFFINITY PREDICTED BY RF-SCORE:    0.00 PKD
ROOT
HETATM    1  C   UNL     1      -7.215  11.851  67.185  1.00  0.00    -0.144 C  
HETATM    2  C   UNL     1      -8.653  11.754  67.561  1.00  0.00    -0.157 C  
HETATM    3  N   UNL     1      -9.083  11.270  68.684  1.00  0.00    -0.170 NA 
HETATM    4  N   UNL     1     -10.465  11.366  68.643  1.00  0.00    -0.195 N  
HETATM    5  C   UNL     1      -9.733  12.196  66.631  1.00  0.00    -0.228 C  
HETATM    6  C   UNL     1     -10.955  11.944  67.460  1.00  0.00    -0.247 C  
HETATM    7  O   UNL     1     -12.091  12.203  67.098  1.00  0.00    -0.575 OA 
ENDROOT
BRANCH   4   8
HETATM    8  C   UNL     1     -11.218  10.867  69.738  1.00  0.00    -0.281 A  
HETATM    9  C   UNL     1     -12.142  11.667  70.424  1.00  0.00    -0.462 A  
HETATM   10  C   UNL     1     -12.896  11.149  71.483  1.00  0.00    -0.542 A  
HETATM   11  C   UNL     1     -12.738   9.824  71.876  1.00  0.00    -0.501 A  
HETATM   12  C   UNL     1     -11.820   9.015  71.213  1.00  0.00    -0.379 A  
HETATM   13  C   UNL     1     -11.066   9.533  70.155  1.00  0.00    -0.294 A  
ENDBRANCH   4   8
TORSDOF 1
ENDMDL
MODEL       75
REMARK 921   NORMALIZED FREE ENERGY PREDICTED BY IDOCK:   -3.94 KCAL/MOL
REMARK 922        TOTAL FREE ENERGY PREDICTED BY IDOCK:   -4.32 KCAL/MOL
REMARK 923 INTER-LIGAND FREE ENERGY PREDICTED BY IDOCK:   -4.29 KCAL/MOL
REMARK 924 INTRA-LIGAND FREE ENERGY PREDICTED BY IDOCK:   -0.02 KCAL/MOL
REMARK 927      BINDING AFFINITY PREDICTED BY RF-SCORE:    0.00 PKD
ROOT
HETATM    1  C   UNL     1     -11.762  11.669  68.496  1.00  0.00    -0.378 C  
HETATM    2  C   UNL     1     -11.707  13.118  68.834  1.00  0.00    -0.326 C  
HETATM    3  N   UNL     1     -11.133  14.017  68.098  1.00  0.00    -0.251 NA 
HETATM    4  N   UNL     1     -11.309  15.225  68.754  1.00  0.00    -0.289 N  
HETATM    5  C   UNL     1     -12.304  13.649  70.094  1.00  0.00    -0.372 C  
HETATM    6  C   UNL     1     -12.035  15.115  69.952  1.00  0.00    -0.337 C  
HETATM    7  O   UNL     1     -12.394  15.957  70.759  1.00  0.00    -0.406 OA 
ENDROOT
BRANCH   4   8
HETATM    8  C   UNL     1     -10.740  16.398  68.193  1.00  0.00    -0.336 A  
HETATM    9  C   UNL     1     -10.260  17.443  68.995  1.00  0.00    -0.317 A  
HETATM   10  C   UNL     1      -9.676  18.580  68.425  1.00  0.00    -0.395 A  
HETATM   11  C   UNL     1      -9.565  18.694  67.043  1.00  0.00    -0.319 A  
HETATM   12  C   UNL     1     -10.042  17.671  66.229  1.00  0.00    -0.344 A  
HETATM   13  C   UNL     1     -10.626  16.536  66.799  1.00  0.00    -0.224 A  
ENDBRANCH   4   8
TORSDOF 1
ENDMDL
MODEL       76
REMARK 921   NORMALIZED FREE ENERGY PREDICTED BY IDOCK:   -3.92 KCAL/MOL
REMARK 922        TOTAL FREE ENERGY PREDICTED BY IDOCK:   -4.30 KCAL/MOL
REMARK 923 INTER-LIGAND FREE ENERGY PREDICTED BY IDOCK:   -4.08 KCAL/MOL
REMARK 924 INTRA-LIGAND FREE ENERGY PREDICTED BY IDOCK:   -0.22 KCAL/MOL
REMARK 927      BINDING AFFINITY PREDICTED BY RF-SCORE:    0.00 PKD
ROOT
HETATM    1  C   UNL     1      -7.523  11.853  66.980  1.00  0.00    -0.126 C  
HETATM    2  C   UNL     1      -8.962  12.083  67.288  1.00  0.00    -0.180 C  
HETATM    3  N   UNL     1      -9.433  12.262  68.482  1.00  0.00    -0.161 NA 
HETATM    4  N   UNL     1     -10.799  12.447  68.336  1.00  0.00    -0.228 N  
HETATM    5  C   UNL     1      -9.996  12.098  66.213  1.00  0.00    -0.249 C  
HETATM    6  C   UNL     1     -11.234  12.401  67.000  1.00  0.00    -0.303 C  
HETATM    7  O   UNL     1     -12.340  12.546  66.506  1.00  0.00    -0.507 OA 
ENDROOT
BRANCH   4   8
HETATM    8  C   UNL     1     -11.594  12.627  69.498  1.00  0.00    -0.281 A  
HETATM    9  C   UNL     1     -12.185  11.544  70.163  1.00  0.00    -0.387 A  
HETATM   10  C   UNL     1     -12.942  11.737  71.324  1.00  0.00    -0.353 A  
HETATM   11  C   UNL     1     -13.124  13.017  71.838  1.00  0.00    -0.483 A  
HETATM   12  C   UNL     1     -12.552  14.106  71.188  1.00  0.00    -0.439 A  
HETATM   13  C   UNL     1     -11.796  13.913  70.028  1.00  0.00    -0.384 A  
ENDBRANCH   4   8
TORSDOF 1
ENDMDL
MODEL       77
REMARK 921   NORMALIZED FREE ENERGY PREDICTED BY IDOCK:   -3.92 KCAL/MOL
REMARK 922        TOTAL FREE ENERGY PREDICTED BY IDOCK:   -4.30 KCAL/MOL
REMARK 923 INTER-LIGAND FREE ENERGY PREDICTED BY IDOCK:   -4.10 KCAL/MOL
REMARK 924 INTRA-LIGAND FREE ENERGY PREDICTED BY IDOCK:   -0.20 KCAL/MOL
REMARK 927      BINDING AFFINITY PREDICTED BY RF-SCORE:    0.00 PKD
ROOT
HETATM    1  C   UNL     1     -11.692  11.611  68.833  1.00  0.00    -0.397 C  
HETATM    2  C   UNL     1     -11.933  10.628  69.926  1.00  0.00    -0.310 C  
HETATM    3  N   UNL     1     -11.152   9.630  70.195  1.00  0.00    -0.256 NA 
HETATM    4  N   UNL     1     -11.722   8.972  71.274  1.00  0.00    -0.293 N  
HETATM    5  C   UNL     1     -13.142  10.713  70.797  1.00  0.00    -0.299 C  
HETATM    6  C   UNL     1     -12.908   9.568  71.734  1.00  0.00    -0.406 C  
HETATM    7  O   UNL     1     -13.649   9.281  72.660  1.00  0.00    -0.455 OA 
ENDROOT
BRANCH   4   8
HETATM    8  C   UNL     1     -11.097   7.798  71.767  1.00  0.00    -0.245 A  
HETATM    9  C   UNL     1     -10.980   6.639  70.985  1.00  0.00    -0.305 A  
HETATM   10  C   UNL     1     -10.335   5.499  71.478  1.00  0.00    -0.282 A  
HETATM   11  C   UNL     1      -9.799   5.496  72.762  1.00  0.00    -0.185 A  
HETATM   12  C   UNL     1      -9.911   6.633  73.556  1.00  0.00    -0.229 A  
HETATM   13  C   UNL     1     -10.556   7.772  73.064  1.00  0.00    -0.441 A  
ENDBRANCH   4   8
TORSDOF 1
ENDMDL
MODEL       78
REMARK 921   NORMALIZED FREE ENERGY PREDICTED BY IDOCK:   -3.91 KCAL/MOL
REMARK 922        TOTAL FREE ENERGY PREDICTED BY IDOCK:   -4.30 KCAL/MOL
REMARK 923 INTER-LIGAND FREE ENERGY PREDICTED BY IDOCK:   -4.07 KCAL/MOL
REMARK 924 INTRA-LIGAND FREE ENERGY PREDICTED BY IDOCK:   -0.22 KCAL/MOL
REMARK 927      BINDING AFFINITY PREDICTED BY RF-SCORE:    0.00 PKD
ROOT
HETATM    1  C   UNL     1      -6.177  16.524  67.448  1.00  0.00    -0.193 C  
HETATM    2  C   UNL     1      -7.655  16.359  67.373  1.00  0.00    -0.158 C  
HETATM    3  N   UNL     1      -8.249  15.384  66.760  1.00  0.00    -0.242 NA 
HETATM    4  N   UNL     1      -9.609  15.590  66.930  1.00  0.00    -0.221 N  
HETATM    5  C   UNL     1      -8.583  17.348  67.994  1.00  0.00    -0.240 C  
HETATM    6  C   UNL     1      -9.914  16.732  67.692  1.00  0.00    -0.262 C  
HETATM    7  O   UNL     1     -10.981  17.197  68.056  1.00  0.00    -0.362 OA 
ENDROOT
BRANCH   4   8
HETATM    8  C   UNL     1     -10.520  14.688  66.323  1.00  0.00    -0.298 A  
HETATM    9  C   UNL     1     -11.135  13.659  67.049  1.00  0.00    -0.313 A  
HETATM   10  C   UNL     1     -12.053  12.795  66.440  1.00  0.00    -0.370 A  
HETATM   11  C   UNL     1     -12.369  12.944  65.093  1.00  0.00    -0.547 A  
HETATM   12  C   UNL     1     -11.764  13.956  64.353  1.00  0.00    -0.427 A  
HETATM   13  C   UNL     1     -10.846  14.817  64.962  1.00  0.00    -0.440 A  
ENDBRANCH   4   8
TORSDOF 1
ENDMDL
MODEL       79
REMARK 921   NORMALIZED FREE ENERGY PREDICTED BY IDOCK:   -3.90 KCAL/MOL
REMARK 922        TOTAL FREE ENERGY PREDICTED BY IDOCK:   -4.28 KCAL/MOL
REMARK 923 INTER-LIGAND FREE ENERGY PREDICTED BY IDOCK:   -4.06 KCAL/MOL
REMARK 924 INTRA-LIGAND FREE ENERGY PREDICTED BY IDOCK:   -0.22 KCAL/MOL
REMARK 927      BINDING AFFINITY PREDICTED BY RF-SCORE:    0.00 PKD
ROOT
HETATM    1  C   UNL     1      -9.426   4.370  69.962  1.00  0.00    -0.251 C  
HETATM    2  C   UNL     1      -9.917   5.377  70.943  1.00  0.00    -0.202 C  
HETATM    3  N   UNL     1     -10.667   6.389  70.637  1.00  0.00    -0.242 NA 
HETATM    4  N   UNL     1     -10.905   7.068  71.821  1.00  0.00    -0.221 N  
HETATM    5  C   UNL     1      -9.549   5.304  72.387  1.00  0.00    -0.175 C  
HETATM    6  C   UNL     1     -10.302   6.473  72.943  1.00  0.00    -0.210 C  
HETATM    7  O   UNL     1     -10.319   6.776  74.124  1.00  0.00    -0.368 OA 
ENDROOT
BRANCH   4   8
HETATM    8  C   UNL     1     -11.674   8.261  71.784  1.00  0.00    -0.302 A  
HETATM    9  C   UNL     1     -12.969   8.320  72.317  1.00  0.00    -0.289 A  
HETATM   10  C   UNL     1     -13.702   9.512  72.297  1.00  0.00    -0.444 A  
HETATM   11  C   UNL     1     -13.154  10.664  71.742  1.00  0.00    -0.571 A  
HETATM   12  C   UNL     1     -11.873  10.624  71.201  1.00  0.00    -0.339 A  
HETATM   13  C   UNL     1     -11.141   9.432  71.220  1.00  0.00    -0.446 A  
ENDBRANCH   4   8
TORSDOF 1
ENDMDL
MODEL       80
REMARK 921   NORMALIZED FREE ENERGY PREDICTED BY IDOCK:   -3.89 KCAL/MOL
REMARK 922        TOTAL FREE ENERGY PREDICTED BY IDOCK:   -4.27 KCAL/MOL
REMARK 923 INTER-LIGAND FREE ENERGY PREDICTED BY IDOCK:   -4.28 KCAL/MOL
REMARK 924 INTRA-LIGAND FREE ENERGY PREDICTED BY IDOCK:    0.00 KCAL/MOL
REMARK 927      BINDING AFFINITY PREDICTED BY RF-SCORE:    0.00 PKD
ROOT
HETATM    1  C   UNL     1     -13.550  12.599  72.093  1.00  0.00    -0.510 C  
HETATM    2  C   UNL     1     -12.759  11.481  71.509  1.00  0.00    -0.334 C  
HETATM    3  N   UNL     1     -12.629  10.315  72.058  1.00  0.00    -0.315 NA 
HETATM    4  N   UNL     1     -11.832   9.570  71.204  1.00  0.00    -0.331 N  
HETATM    5  C   UNL     1     -12.016  11.640  70.225  1.00  0.00    -0.445 C  
HETATM    6  C   UNL     1     -11.437  10.269  70.050  1.00  0.00    -0.296 C  
HETATM    7  O   UNL     1     -10.769   9.928  69.088  1.00  0.00    -0.210 OA 
ENDROOT
BRANCH   4   8
HETATM    8  C   UNL     1     -11.482   8.246  71.573  1.00  0.00    -0.275 A  
HETATM    9  C   UNL     1     -11.212   7.258  70.615  1.00  0.00    -0.300 A  
HETATM   10  C   UNL     1     -10.841   5.964  70.998  1.00  0.00    -0.339 A  
HETATM   11  C   UNL     1     -10.737   5.634  72.346  1.00  0.00    -0.286 A  
HETATM   12  C   UNL     1     -11.008   6.598  73.312  1.00  0.00    -0.237 A  
HETATM   13  C   UNL     1     -11.379   7.890  72.929  1.00  0.00    -0.399 A  
ENDBRANCH   4   8
TORSDOF 1
ENDMDL
MODEL       81
REMARK 921   NORMALIZED FREE ENERGY PREDICTED BY IDOCK:   -3.88 KCAL/MOL
REMARK 922        TOTAL FREE ENERGY PREDICTED BY IDOCK:   -4.26 KCAL/MOL
REMARK 923 INTER-LIGAND FREE ENERGY PREDICTED BY IDOCK:   -4.04 KCAL/MOL
REMARK 924 INTRA-LIGAND FREE ENERGY PREDICTED BY IDOCK:   -0.22 KCAL/MOL
REMARK 927      BINDING AFFINITY PREDICTED BY RF-SCORE:    0.00 PKD
ROOT
HETATM    1  C   UNL     1      -8.429  11.585  67.445  1.00  0.00    -0.147 C  
HETATM    2  C   UNL     1      -9.398  12.702  67.265  1.00  0.00    -0.195 C  
HETATM    3  N   UNL     1      -9.091  13.957  67.357  1.00  0.00    -0.207 NA 
HETATM    4  N   UNL     1     -10.259  14.662  67.118  1.00  0.00    -0.254 N  
HETATM    5  C   UNL     1     -10.840  12.444  66.981  1.00  0.00    -0.282 C  
HETATM    6  C   UNL     1     -11.366  13.840  66.845  1.00  0.00    -0.328 C  
HETATM    7  O   UNL     1     -12.523  14.109  66.569  1.00  0.00    -0.447 OA 
ENDROOT
BRANCH   4   8
HETATM    8  C   UNL     1     -10.233  16.078  67.196  1.00  0.00    -0.278 A  
HETATM    9  C   UNL     1     -10.350  16.883  66.054  1.00  0.00    -0.335 A  
HETATM   10  C   UNL     1     -10.350  18.279  66.153  1.00  0.00    -0.414 A  
HETATM   11  C   UNL     1     -10.232  18.894  67.395  1.00  0.00    -0.456 A  
HETATM   12  C   UNL     1     -10.108  18.113  68.540  1.00  0.00    -0.413 A  
HETATM   13  C   UNL     1     -10.106  16.718  68.440  1.00  0.00    -0.285 A  
ENDBRANCH   4   8
TORSDOF 1
ENDMDL
MODEL       82
REMARK 921   NORMALIZED FREE ENERGY PREDICTED BY IDOCK:   -3.88 KCAL/MOL
REMARK 922        TOTAL FREE ENERGY PREDICTED BY IDOCK:   -4.25 KCAL/MOL
REMARK 923 INTER-LIGAND FREE ENERGY PREDICTED BY IDOCK:   -4.31 KCAL/MOL
REMARK 924 INTRA-LIGAND FREE ENERGY PREDICTED BY IDOCK:    0.05 KCAL/MOL
REMARK 927      BINDING AFFINITY PREDICTED BY RF-SCORE:    0.00 PKD
ROOT
HETATM    1  C   UNL     1     -10.708  15.754  67.039  1.00  0.00    -0.306 C  
HETATM    2  C   UNL     1     -11.039  14.356  67.429  1.00  0.00    -0.308 C  
HETATM    3  N   UNL     1     -11.466  14.007  68.602  1.00  0.00    -0.281 NA 
HETATM    4  N   UNL     1     -11.660  12.636  68.553  1.00  0.00    -0.301 N  
HETATM    5  C   UNL     1     -10.873  13.220  66.476  1.00  0.00    -0.288 C  
HETATM    6  C   UNL     1     -11.364  12.070  67.301  1.00  0.00    -0.330 C  
HETATM    7  O   UNL     1     -11.442  10.923  66.895  1.00  0.00    -0.342 OA 
ENDROOT
BRANCH   4   8
HETATM    8  C   UNL     1     -12.091  11.963  69.725  1.00  0.00    -0.252 A  
HETATM    9  C   UNL     1     -12.833  12.615  70.720  1.00  0.00    -0.102 A  
HETATM   10  C   UNL     1     -13.274  11.928  71.857  1.00  0.00    -0.467 A  
HETATM   11  C   UNL     1     -12.979  10.578  72.020  1.00  0.00    -0.490 A  
HETATM   12  C   UNL     1     -12.238   9.914  71.047  1.00  0.00    -0.446 A  
HETATM   13  C   UNL     1     -11.796  10.602  69.912  1.00  0.00    -0.392 A  
ENDBRANCH   4   8
TORSDOF 1
ENDMDL
MODEL       83
REMARK 921   NORMALIZED FREE ENERGY PREDICTED BY IDOCK:   -3.85 KCAL/MOL
REMARK 922        TOTAL FREE ENERGY PREDICTED BY IDOCK:   -4.23 KCAL/MOL
REMARK 923 INTER-LIGAND FREE ENERGY PREDICTED BY IDOCK:   -4.10 KCAL/MOL
REMARK 924 INTRA-LIGAND FREE ENERGY PREDICTED BY IDOCK:   -0.13 KCAL/MOL
REMARK 927      BINDING AFFINITY PREDICTED BY RF-SCORE:    0.00 PKD
ROOT
HETATM    1  C   UNL     1     -13.723   9.002  72.250  1.00  0.00    -0.550 C  
HETATM    2  C   UNL     1     -13.099  10.091  71.447  1.00  0.00    -0.417 C  
HETATM    3  N   UNL     1     -12.466   9.904  70.332  1.00  0.00    -0.111 NA 
HETATM    4  N   UNL     1     -12.051  11.155  69.907  1.00  0.00    -0.330 N  
HETATM    5  C   UNL     1     -13.138  11.512  71.898  1.00  0.00    -0.492 C  
HETATM    6  C   UNL     1     -12.438  12.199  70.766  1.00  0.00    -0.271 C  
HETATM    7  O   UNL     1     -12.273  13.405  70.695  1.00  0.00    -0.356 OA 
ENDROOT
BRANCH   4   8
HETATM    8  C   UNL     1     -11.285  11.255  68.716  1.00  0.00    -0.250 A  
HETATM    9  C   UNL     1     -10.141  10.473  68.506  1.00  0.00    -0.187 A  
HETATM   10  C   UNL     1      -9.414  10.565  67.314  1.00  0.00    -0.179 A  
HETATM   11  C   UNL     1      -9.817  11.442  66.312  1.00  0.00    -0.250 A  
HETATM   12  C   UNL     1     -10.946  12.233  66.504  1.00  0.00    -0.320 A  
HETATM   13  C   UNL     1     -11.671  12.141  67.696  1.00  0.00    -0.386 A  
ENDBRANCH   4   8
TORSDOF 1
ENDMDL
MODEL       84
REMARK 921   NORMALIZED FREE ENERGY PREDICTED BY IDOCK:   -3.84 KCAL/MOL
REMARK 922        TOTAL FREE ENERGY PREDICTED BY IDOCK:   -4.22 KCAL/MOL
REMARK 923 INTER-LIGAND FREE ENERGY PREDICTED BY IDOCK:   -4.00 KCAL/MOL
REMARK 924 INTRA-LIGAND FREE ENERGY PREDICTED BY IDOCK:   -0.22 KCAL/MOL
REMARK 927      BINDING AFFINITY PREDICTED BY RF-SCORE:    0.00 PKD
ROOT
HETATM    1  C   UNL     1     -12.319  11.609  70.599  1.00  0.00    -0.437 C  
HETATM    2  C   UNL     1     -11.575  10.322  70.694  1.00  0.00    -0.347 C  
HETATM    3  N   UNL     1     -11.715   9.469  71.659  1.00  0.00    -0.389 NA 
HETATM    4  N   UNL     1     -10.862   8.416  71.373  1.00  0.00    -0.232 N  
HETATM    5  C   UNL     1     -10.568   9.926  69.668  1.00  0.00    -0.273 C  
HETATM    6  C   UNL     1     -10.149   8.579  70.172  1.00  0.00    -0.190 C  
HETATM    7  O   UNL     1      -9.346   7.857  69.605  1.00  0.00    -0.153 OA 
ENDROOT
BRANCH   4   8
HETATM    8  C   UNL     1     -10.771   7.338  72.291  1.00  0.00    -0.231 A  
HETATM    9  C   UNL     1     -10.089   7.461  73.509  1.00  0.00    -0.390 A  
HETATM   10  C   UNL     1     -10.034   6.396  74.416  1.00  0.00    -0.362 A  
HETATM   11  C   UNL     1     -10.658   5.188  74.118  1.00  0.00    -0.322 A  
HETATM   12  C   UNL     1     -11.334   5.043  72.911  1.00  0.00    -0.329 A  
HETATM   13  C   UNL     1     -11.388   6.108  72.005  1.00  0.00    -0.348 A  
ENDBRANCH   4   8
TORSDOF 1
ENDMDL
MODEL       85
REMARK 921   NORMALIZED FREE ENERGY PREDICTED BY IDOCK:   -3.84 KCAL/MOL
REMARK 922        TOTAL FREE ENERGY PREDICTED BY IDOCK:   -4.22 KCAL/MOL
REMARK 923 INTER-LIGAND FREE ENERGY PREDICTED BY IDOCK:   -4.03 KCAL/MOL
REMARK 924 INTRA-LIGAND FREE ENERGY PREDICTED BY IDOCK:   -0.19 KCAL/MOL
REMARK 927      BINDING AFFINITY PREDICTED BY RF-SCORE:    0.00 PKD
ROOT
HETATM    1  C   UNL     1     -11.017  15.568  64.720  1.00  0.00    -0.416 C  
HETATM    2  C   UNL     1     -10.901  14.139  65.123  1.00  0.00    -0.372 C  
HETATM    3  N   UNL     1     -10.914  13.724  66.351  1.00  0.00    -0.297 NA 
HETATM    4  N   UNL     1     -10.790  12.345  66.295  1.00  0.00    -0.258 N  
HETATM    5  C   UNL     1     -10.730  13.055  64.112  1.00  0.00    -0.429 C  
HETATM    6  C   UNL     1     -10.708  11.839  64.986  1.00  0.00    -0.292 C  
HETATM    7  O   UNL     1     -10.621  10.697  64.566  1.00  0.00    -0.304 OA 
ENDROOT
BRANCH   4   8
HETATM    8  C   UNL     1     -10.732  11.613  67.510  1.00  0.00    -0.215 A  
HETATM    9  C   UNL     1     -11.802  11.598  68.415  1.00  0.00    -0.346 A  
HETATM   10  C   UNL     1     -11.738  10.848  69.595  1.00  0.00    -0.403 A  
HETATM   11  C   UNL     1     -10.601  10.102  69.891  1.00  0.00    -0.331 A  
HETATM   12  C   UNL     1      -9.525  10.109  69.009  1.00  0.00    -0.195 A  
HETATM   13  C   UNL     1      -9.590  10.859  67.830  1.00  0.00    -0.175 A  
ENDBRANCH   4   8
TORSDOF 1
ENDMDL
MODEL       86
REMARK 921   NORMALIZED FREE ENERGY PREDICTED BY IDOCK:   -3.84 KCAL/MOL
REMARK 922        TOTAL FREE ENERGY PREDICTED BY IDOCK:   -4.22 KCAL/MOL
REMARK 923 INTER-LIGAND FREE ENERGY PREDICTED BY IDOCK:   -4.01 KCAL/MOL
REMARK 924 INTRA-LIGAND FREE ENERGY PREDICTED BY IDOCK:   -0.21 KCAL/MOL
REMARK 927      BINDING AFFINITY PREDICTED BY RF-SCORE:    0.00 PKD
ROOT
HETATM    1  C   UNL     1      -9.905  11.950  67.763  1.00  0.00    -0.187 C  
HETATM    2  C   UNL     1     -10.615  11.262  68.877  1.00  0.00    -0.207 C  
HETATM    3  N   UNL     1     -10.272  10.110  69.359  1.00  0.00    -0.214 NA 
HETATM    4  N   UNL     1     -11.172   9.831  70.375  1.00  0.00    -0.278 N  
HETATM    5  C   UNL     1     -11.823  11.859  69.518  1.00  0.00    -0.395 C  
HETATM    6  C   UNL     1     -12.127  10.842  70.574  1.00  0.00    -0.366 C  
HETATM    7  O   UNL     1     -13.037  10.945  71.380  1.00  0.00    -0.389 OA 
ENDROOT
BRANCH   4   8
HETATM    8  C   UNL     1     -11.065   8.595  71.065  1.00  0.00    -0.264 A  
HETATM    9  C   UNL     1     -10.701   8.534  72.417  1.00  0.00    -0.376 A  
HETATM   10  C   UNL     1     -10.628   7.308  73.089  1.00  0.00    -0.400 A  
HETATM   11  C   UNL     1     -10.913   6.122  72.419  1.00  0.00    -0.299 A  
HETATM   12  C   UNL     1     -11.269   6.161  71.074  1.00  0.00    -0.361 A  
HETATM   13  C   UNL     1     -11.341   7.386  70.404  1.00  0.00    -0.273 A  
ENDBRANCH   4   8
TORSDOF 1
ENDMDL
MODEL       87
REMARK 921   NORMALIZED FREE ENERGY PREDICTED BY IDOCK:   -3.84 KCAL/MOL
REMARK 922        TOTAL FREE ENERGY PREDICTED BY IDOCK:   -4.22 KCAL/MOL
REMARK 923 INTER-LIGAND FREE ENERGY PREDICTED BY IDOCK:   -4.00 KCAL/MOL
REMARK 924 INTRA-LIGAND FREE ENERGY PREDICTED BY IDOCK:   -0.22 KCAL/MOL
REMARK 927      BINDING AFFINITY PREDICTED BY RF-SCORE:    0.00 PKD
ROOT
HETATM    1  C   UNL     1      -7.860   5.108  71.587  1.00  0.00    -0.109 C  
HETATM    2  C   UNL     1      -9.097   5.706  71.013  1.00  0.00    -0.145 C  
HETATM    3  N   UNL     1      -9.948   6.412  71.689  1.00  0.00    -0.175 NA 
HETATM    4  N   UNL     1     -10.941   6.782  70.797  1.00  0.00    -0.248 N  
HETATM    5  C   UNL     1      -9.468   5.506  69.582  1.00  0.00    -0.183 C  
HETATM    6  C   UNL     1     -10.726   6.314  69.489  1.00  0.00    -0.303 C  
HETATM    7  O   UNL     1     -11.366   6.466  68.462  1.00  0.00    -0.303 OA 
ENDROOT
BRANCH   4   8
HETATM    8  C   UNL     1     -12.044   7.537  71.274  1.00  0.00    -0.323 A  
HETATM    9  C   UNL     1     -11.945   8.915  71.517  1.00  0.00    -0.401 A  
HETATM   10  C   UNL     1     -13.051   9.649  71.961  1.00  0.00    -0.537 A  
HETATM   11  C   UNL     1     -14.273   9.019  72.173  1.00  0.00    -0.409 A  
HETATM   12  C   UNL     1     -14.390   7.651  71.944  1.00  0.00    -0.536 A  
HETATM   13  C   UNL     1     -13.284   6.917  71.502  1.00  0.00    -0.322 A  
ENDBRANCH   4   8
TORSDOF 1
ENDMDL
MODEL       88
REMARK 921   NORMALIZED FREE ENERGY PREDICTED BY IDOCK:   -3.84 KCAL/MOL
REMARK 922        TOTAL FREE ENERGY PREDICTED BY IDOCK:   -4.22 KCAL/MOL
REMARK 923 INTER-LIGAND FREE ENERGY PREDICTED BY IDOCK:   -4.00 KCAL/MOL
REMARK 924 INTRA-LIGAND FREE ENERGY PREDICTED BY IDOCK:   -0.22 KCAL/MOL
REMARK 927      BINDING AFFINITY PREDICTED BY RF-SCORE:    0.00 PKD
ROOT
HETATM    1  C   UNL     1      -8.659   8.746  65.015  1.00  0.00    -0.196 C  
HETATM    2  C   UNL     1      -9.369  10.052  64.926  1.00  0.00    -0.266 C  
HETATM    3  N   UNL     1      -9.523  10.868  65.921  1.00  0.00    -0.198 NA 
HETATM    4  N   UNL     1     -10.222  11.957  65.426  1.00  0.00    -0.254 N  
HETATM    5  C   UNL     1      -9.994  10.515  63.653  1.00  0.00    -0.299 C  
HETATM    6  C   UNL     1     -10.524  11.857  64.057  1.00  0.00    -0.373 C  
HETATM    7  O   UNL     1     -11.093  12.624  63.297  1.00  0.00    -0.411 OA 
ENDROOT
BRANCH   4   8
HETATM    8  C   UNL     1     -10.576  13.006  66.314  1.00  0.00    -0.271 A  
HETATM    9  C   UNL     1      -9.927  14.248  66.285  1.00  0.00    -0.319 A  
HETATM   10  C   UNL     1     -10.308  15.280  67.150  1.00  0.00    -0.265 A  
HETATM   11  C   UNL     1     -11.341  15.087  68.061  1.00  0.00    -0.339 A  
HETATM   12  C   UNL     1     -11.993  13.859  68.111  1.00  0.00    -0.385 A  
HETATM   13  C   UNL     1     -11.611  12.827  67.247  1.00  0.00    -0.420 A  
ENDBRANCH   4   8
TORSDOF 1
ENDMDL
MODEL       89
REMARK 921   NORMALIZED FREE ENERGY PREDICTED BY IDOCK:   -3.83 KCAL/MOL
REMARK 922        TOTAL FREE ENERGY PREDICTED BY IDOCK:   -4.21 KCAL/MOL
REMARK 923 INTER-LIGAND FREE ENERGY PREDICTED BY IDOCK:   -3.99 KCAL/MOL
REMARK 924 INTRA-LIGAND FREE ENERGY PREDICTED BY IDOCK:   -0.22 KCAL/MOL
REMARK 927      BINDING AFFINITY PREDICTED BY RF-SCORE:    0.00 PKD
ROOT
HETATM    1  C   UNL     1      -6.254  17.160  68.593  1.00  0.00    -0.159 C  
HETATM    2  C   UNL     1      -7.743  17.111  68.584  1.00  0.00    -0.260 C  
HETATM    3  N   UNL     1      -8.451  16.320  69.327  1.00  0.00    -0.209 NA 
HETATM    4  N   UNL     1      -9.777  16.588  69.026  1.00  0.00    -0.257 N  
HETATM    5  C   UNL     1      -8.546  17.977  67.673  1.00  0.00    -0.247 C  
HETATM    6  C   UNL     1      -9.942  17.599  68.064  1.00  0.00    -0.326 C  
HETATM    7  O   UNL     1     -10.945  18.103  67.586  1.00  0.00    -0.324 OA 
ENDROOT
BRANCH   4   8
HETATM    8  C   UNL     1     -10.791  15.831  69.667  1.00  0.00    -0.300 A  
HETATM    9  C   UNL     1     -11.296  14.649  69.107  1.00  0.00    -0.305 A  
HETATM   10  C   UNL     1     -12.276  13.900  69.766  1.00  0.00    -0.388 A  
HETATM   11  C   UNL     1     -12.773  14.321  70.996  1.00  0.00    -0.430 A  
HETATM   12  C   UNL     1     -12.291  15.495  71.565  1.00  0.00    -0.465 A  
HETATM   13  C   UNL     1     -11.311  16.244  70.905  1.00  0.00    -0.319 A  
ENDBRANCH   4   8
TORSDOF 1
ENDMDL
MODEL       90
REMARK 921   NORMALIZED FREE ENERGY PREDICTED BY IDOCK:   -3.83 KCAL/MOL
REMARK 922        TOTAL FREE ENERGY PREDICTED BY IDOCK:   -4.21 KCAL/MOL
REMARK 923 INTER-LIGAND FREE ENERGY PREDICTED BY IDOCK:   -3.99 KCAL/MOL
REMARK 924 INTRA-LIGAND FREE ENERGY PREDICTED BY IDOCK:   -0.21 KCAL/MOL
REMARK 927      BINDING AFFINITY PREDICTED BY RF-SCORE:    0.00 PKD
ROOT
HETATM    1  C   UNL     1      -8.024   9.716  70.074  1.00  0.00    -0.182 C  
HETATM    2  C   UNL     1      -9.110  10.220  69.188  1.00  0.00    -0.191 C  
HETATM    3  N   UNL     1      -8.950  10.522  67.938  1.00  0.00    -0.135 NA 
HETATM    4  N   UNL     1     -10.189  10.939  67.478  1.00  0.00    -0.184 N  
HETATM    5  C   UNL     1     -10.493  10.443  69.700  1.00  0.00    -0.279 C  
HETATM    6  C   UNL     1     -11.197  10.894  68.457  1.00  0.00    -0.274 C  
HETATM    7  O   UNL     1     -12.387  11.157  68.403  1.00  0.00    -0.556 OA 
ENDROOT
BRANCH   4   8
HETATM    8  C   UNL     1     -10.309  11.377  66.134  1.00  0.00    -0.248 A  
HETATM    9  C   UNL     1     -10.225  10.485  65.055  1.00  0.00    -0.365 A  
HETATM   10  C   UNL     1     -10.374  10.932  63.738  1.00  0.00    -0.384 A  
HETATM   11  C   UNL     1     -10.605  12.278  63.474  1.00  0.00    -0.488 A  
HETATM   12  C   UNL     1     -10.685  13.181  64.530  1.00  0.00    -0.416 A  
HETATM   13  C   UNL     1     -10.535  12.734  65.847  1.00  0.00    -0.295 A  
ENDBRANCH   4   8
TORSDOF 1
ENDMDL
MODEL       91
REMARK 921   NORMALIZED FREE ENERGY PREDICTED BY IDOCK:   -3.79 KCAL/MOL
REMARK 922        TOTAL FREE ENERGY PREDICTED BY IDOCK:   -4.17 KCAL/MOL
REMARK 923 INTER-LIGAND FREE ENERGY PREDICTED BY IDOCK:   -3.95 KCAL/MOL
REMARK 924 INTRA-LIGAND FREE ENERGY PREDICTED BY IDOCK:   -0.22 KCAL/MOL
REMARK 927      BINDING AFFINITY PREDICTED BY RF-SCORE:    0.00 PKD
ROOT
HETATM    1  C   UNL     1     -12.980  11.429  71.796  1.00  0.00    -0.519 C  
HETATM    2  C   UNL     1     -12.043  11.230  70.655  1.00  0.00    -0.383 C  
HETATM    3  N   UNL     1     -11.985  12.002  69.616  1.00  0.00    -0.308 NA 
HETATM    4  N   UNL     1     -10.991  11.483  68.802  1.00  0.00    -0.208 N  
HETATM    5  C   UNL     1     -11.096  10.078  70.616  1.00  0.00    -0.408 C  
HETATM    6  C   UNL     1     -10.368  10.340  69.333  1.00  0.00    -0.235 C  
HETATM    7  O   UNL     1      -9.455   9.650  68.913  1.00  0.00    -0.150 OA 
ENDROOT
BRANCH   4   8
HETATM    8  C   UNL     1     -10.731  12.108  67.555  1.00  0.00    -0.232 A  
HETATM    9  C   UNL     1      -9.955  13.272  67.461  1.00  0.00    -0.223 A  
HETATM   10  C   UNL     1      -9.685  13.859  66.220  1.00  0.00    -0.304 A  
HETATM   11  C   UNL     1     -10.188  13.295  65.052  1.00  0.00    -0.313 A  
HETATM   12  C   UNL     1     -10.966  12.144  65.125  1.00  0.00    -0.355 A  
HETATM   13  C   UNL     1     -11.237  11.558  66.366  1.00  0.00    -0.307 A  
ENDBRANCH   4   8
TORSDOF 1
ENDMDL
MODEL       92
REMARK 921   NORMALIZED FREE ENERGY PREDICTED BY IDOCK:   -3.75 KCAL/MOL
REMARK 922        TOTAL FREE ENERGY PREDICTED BY IDOCK:   -4.13 KCAL/MOL
REMARK 923 INTER-LIGAND FREE ENERGY PREDICTED BY IDOCK:   -3.91 KCAL/MOL
REMARK 924 INTRA-LIGAND FREE ENERGY PREDICTED BY IDOCK:   -0.22 KCAL/MOL
REMARK 927      BINDING AFFINITY PREDICTED BY RF-SCORE:    0.00 PKD
ROOT
HETATM    1  C   UNL     1      -7.059  13.522  68.829  1.00  0.00    -0.103 C  
HETATM    2  C   UNL     1      -7.978  14.366  68.017  1.00  0.00    -0.139 C  
HETATM    3  N   UNL     1      -8.020  15.660  68.071  1.00  0.00    -0.130 NA 
HETATM    4  N   UNL     1      -8.992  16.056  67.167  1.00  0.00    -0.195 N  
HETATM    5  C   UNL     1      -8.964  13.761  67.075  1.00  0.00    -0.247 C  
HETATM    6  C   UNL     1      -9.598  14.985  66.487  1.00  0.00    -0.277 C  
HETATM    7  O   UNL     1     -10.456  14.961  65.621  1.00  0.00    -0.304 OA 
ENDROOT
BRANCH   4   8
HETATM    8  C   UNL     1      -9.289  17.438  67.041  1.00  0.00    -0.260 A  
HETATM    9  C   UNL     1     -10.441  18.000  67.610  1.00  0.00    -0.422 A  
HETATM   10  C   UNL     1     -10.703  19.370  67.501  1.00  0.00    -0.570 A  
HETATM   11  C   UNL     1      -9.822  20.201  66.817  1.00  0.00    -0.591 A  
HETATM   12  C   UNL     1      -8.677  19.661  66.238  1.00  0.00    -0.401 A  
HETATM   13  C   UNL     1      -8.415  18.292  66.348  1.00  0.00    -0.266 A  
ENDBRANCH   4   8
TORSDOF 1
ENDMDL
MODEL       93
REMARK 921   NORMALIZED FREE ENERGY PREDICTED BY IDOCK:   -3.72 KCAL/MOL
REMARK 922        TOTAL FREE ENERGY PREDICTED BY IDOCK:   -4.09 KCAL/MOL
REMARK 923 INTER-LIGAND FREE ENERGY PREDICTED BY IDOCK:   -3.87 KCAL/MOL
REMARK 924 INTRA-LIGAND FREE ENERGY PREDICTED BY IDOCK:   -0.21 KCAL/MOL
REMARK 927      BINDING AFFINITY PREDICTED BY RF-SCORE:    0.00 PKD
ROOT
HETATM    1  C   UNL     1      -9.332   9.940  65.386  1.00  0.00    -0.297 C  
HETATM    2  C   UNL     1      -9.961  11.289  65.432  1.00  0.00    -0.250 C  
HETATM    3  N   UNL     1      -9.820  12.126  66.410  1.00  0.00    -0.221 NA 
HETATM    4  N   UNL     1     -10.550  13.252  66.066  1.00  0.00    -0.282 N  
HETATM    5  C   UNL     1     -10.844  11.775  64.332  1.00  0.00    -0.389 C  
HETATM    6  C   UNL     1     -11.178  13.154  64.812  1.00  0.00    -0.324 C  
HETATM    7  O   UNL     1     -11.865  13.946  64.189  1.00  0.00    -0.416 OA 
ENDROOT
BRANCH   4   8
HETATM    8  C   UNL     1     -10.614  14.334  66.982  1.00  0.00    -0.280 A  
HETATM    9  C   UNL     1     -11.794  14.651  67.670  1.00  0.00    -0.366 A  
HETATM   10  C   UNL     1     -11.831  15.703  68.591  1.00  0.00    -0.306 A  
HETATM   11  C   UNL     1     -10.690  16.461  68.838  1.00  0.00    -0.319 A  
HETATM   12  C   UNL     1      -9.511  16.167  68.160  1.00  0.00    -0.209 A  
HETATM   13  C   UNL     1      -9.475  15.115  67.239  1.00  0.00    -0.214 A  
ENDBRANCH   4   8
TORSDOF 1
ENDMDL
MODEL       94
REMARK 921   NORMALIZED FREE ENERGY PREDICTED BY IDOCK:   -3.72 KCAL/MOL
REMARK 922        TOTAL FREE ENERGY PREDICTED BY IDOCK:   -4.09 KCAL/MOL
REMARK 923 INTER-LIGAND FREE ENERGY PREDICTED BY IDOCK:   -3.89 KCAL/MOL
REMARK 924 INTRA-LIGAND FREE ENERGY PREDICTED BY IDOCK:   -0.20 KCAL/MOL
REMARK 927      BINDING AFFINITY PREDICTED BY RF-SCORE:    0.00 PKD
ROOT
HETATM    1  C   UNL     1      -7.438   7.096  68.516  1.00  0.00    -0.106 C  
HETATM    2  C   UNL     1      -8.108   7.656  69.722  1.00  0.00    -0.125 C  
HETATM    3  N   UNL     1      -9.337   8.063  69.751  1.00  0.00    -0.159 NA 
HETATM    4  N   UNL     1      -9.572   8.499  71.046  1.00  0.00    -0.178 N  
HETATM    5  C   UNL     1      -7.379   7.817  71.015  1.00  0.00    -0.072 C  
HETATM    6  C   UNL     1      -8.462   8.360  71.896  1.00  0.00    -0.177 C  
HETATM    7  O   UNL     1      -8.316   8.610  73.081  1.00  0.00    -0.405 OA 
ENDROOT
BRANCH   4   8
HETATM    8  C   UNL     1     -10.842   9.046  71.365  1.00  0.00    -0.330 A  
HETATM    9  C   UNL     1     -11.299  10.238  70.786  1.00  0.00    -0.421 A  
HETATM   10  C   UNL     1     -12.566  10.749  71.091  1.00  0.00    -0.532 A  
HETATM   11  C   UNL     1     -13.396  10.078  71.983  1.00  0.00    -0.513 A  
HETATM   12  C   UNL     1     -12.958   8.896  72.574  1.00  0.00    -0.415 A  
HETATM   13  C   UNL     1     -11.692   8.388  72.269  1.00  0.00    -0.453 A  
ENDBRANCH   4   8
TORSDOF 1
ENDMDL
MODEL       95
REMARK 921   NORMALIZED FREE ENERGY PREDICTED BY IDOCK:   -3.70 KCAL/MOL
REMARK 922        TOTAL FREE ENERGY PREDICTED BY IDOCK:   -4.07 KCAL/MOL
REMARK 923 INTER-LIGAND FREE ENERGY PREDICTED BY IDOCK:   -3.85 KCAL/MOL
REMARK 924 INTRA-LIGAND FREE ENERGY PREDICTED BY IDOCK:   -0.22 KCAL/MOL
REMARK 927      BINDING AFFINITY PREDICTED BY RF-SCORE:    0.00 PKD
ROOT
HETATM    1  C   UNL     1      -7.125  15.175  68.781  1.00  0.00    -0.117 C  
HETATM    2  C   UNL     1      -8.522  15.650  68.982  1.00  0.00    -0.231 C  
HETATM    3  N   UNL     1      -9.291  15.264  69.951  1.00  0.00    -0.092 NA 
HETATM    4  N   UNL     1     -10.491  15.936  69.785  1.00  0.00    -0.294 N  
HETATM    5  C   UNL     1      -9.162  16.612  68.038  1.00  0.00    -0.223 C  
HETATM    6  C   UNL     1     -10.503  16.802  68.678  1.00  0.00    -0.333 C  
HETATM    7  O   UNL     1     -11.362  17.556  68.253  1.00  0.00     0.053 OA 
ENDROOT
BRANCH   4   8
HETATM    8  C   UNL     1     -11.553  15.676  70.690  1.00  0.00    -0.367 A  
HETATM    9  C   UNL     1     -11.762  16.464  71.830  1.00  0.00    -0.419 A  
HETATM   10  C   UNL     1     -12.831  16.210  72.697  1.00  0.00    -0.416 A  
HETATM   11  C   UNL     1     -13.708  15.161  72.440  1.00  0.00    -0.600 A  
HETATM   12  C   UNL     1     -13.514  14.362  71.317  1.00  0.00    -0.401 A  
HETATM   13  C   UNL     1     -12.444  14.616  70.452  1.00  0.00    -0.410 A  
ENDBRANCH   4   8
TORSDOF 1
ENDMDL
MODEL       96
REMARK 921   NORMALIZED FREE ENERGY PREDICTED BY IDOCK:   -3.70 KCAL/MOL
REMARK 922        TOTAL FREE ENERGY PREDICTED BY IDOCK:   -4.07 KCAL/MOL
REMARK 923 INTER-LIGAND FREE ENERGY PREDICTED BY IDOCK:   -4.12 KCAL/MOL
REMARK 924 INTRA-LIGAND FREE ENERGY PREDICTED BY IDOCK:    0.05 KCAL/MOL
REMARK 927      BINDING AFFINITY PREDICTED BY RF-SCORE:    0.00 PKD
ROOT
HETATM    1  C   UNL     1     -13.515  15.214  72.356  1.00  0.00    -0.551 C  
HETATM    2  C   UNL     1     -12.896  14.453  71.236  1.00  0.00    -0.342 C  
HETATM    3  N   UNL     1     -12.569  13.201  71.297  1.00  0.00    -0.339 NA 
HETATM    4  N   UNL     1     -12.037  12.878  70.059  1.00  0.00    -0.317 N  
HETATM    5  C   UNL     1     -12.575  15.107  69.934  1.00  0.00    -0.205 C  
HETATM    6  C   UNL     1     -12.028  13.951  69.152  1.00  0.00    -0.363 C  
HETATM    7  O   UNL     1     -11.666  14.023  67.989  1.00  0.00    -0.319 OA 
ENDROOT
BRANCH   4   8
HETATM    8  C   UNL     1     -11.548  11.563  69.845  1.00  0.00    -0.308 A  
HETATM    9  C   UNL     1     -10.651  11.267  68.809  1.00  0.00    -0.234 A  
HETATM   10  C   UNL     1     -10.158   9.970  68.631  1.00  0.00    -0.187 A  
HETATM   11  C   UNL     1     -10.555   8.945  69.483  1.00  0.00    -0.233 A  
HETATM   12  C   UNL     1     -11.450   9.216  70.514  1.00  0.00    -0.271 A  
HETATM   13  C   UNL     1     -11.944  10.512  70.691  1.00  0.00    -0.455 A  
ENDBRANCH   4   8
TORSDOF 1
ENDMDL
MODEL       97
REMARK 921   NORMALIZED FREE ENERGY PREDICTED BY IDOCK:   -3.68 KCAL/MOL
REMARK 922        TOTAL FREE ENERGY PREDICTED BY IDOCK:   -4.05 KCAL/MOL
REMARK 923 INTER-LIGAND FREE ENERGY PREDICTED BY IDOCK:   -4.09 KCAL/MOL
REMARK 924 INTRA-LIGAND FREE ENERGY PREDICTED BY IDOCK:    0.04 KCAL/MOL
REMARK 927      BINDING AFFINITY PREDICTED BY RF-SCORE:    0.00 PKD
ROOT
HETATM    1  C   UNL     1     -10.518  12.307  63.454  1.00  0.00    -0.408 C  
HETATM    2  C   UNL     1     -10.808  12.585  64.888  1.00  0.00    -0.293 C  
HETATM    3  N   UNL     1     -10.669  13.745  65.449  1.00  0.00    -0.303 NA 
HETATM    4  N   UNL     1     -11.046  13.583  66.772  1.00  0.00    -0.295 N  
HETATM    5  C   UNL     1     -11.270  11.509  65.813  1.00  0.00    -0.228 C  
HETATM    6  C   UNL     1     -11.459  12.277  67.085  1.00  0.00    -0.352 C  
HETATM    7  O   UNL     1     -11.874  11.788  68.122  1.00  0.00    -0.451 OA 
ENDROOT
BRANCH   4   8
HETATM    8  C   UNL     1     -10.954  14.694  67.651  1.00  0.00    -0.293 A  
HETATM    9  C   UNL     1     -11.694  14.758  68.840  1.00  0.00    -0.340 A  
HETATM   10  C   UNL     1     -11.570  15.848  69.708  1.00  0.00    -0.340 A  
HETATM   11  C   UNL     1     -10.706  16.895  69.402  1.00  0.00    -0.258 A  
HETATM   12  C   UNL     1      -9.967  16.854  68.223  1.00  0.00    -0.282 A  
HETATM   13  C   UNL     1     -10.093  15.764  67.355  1.00  0.00    -0.246 A  
ENDBRANCH   4   8
TORSDOF 1
ENDMDL
MODEL       98
REMARK 921   NORMALIZED FREE ENERGY PREDICTED BY IDOCK:   -3.67 KCAL/MOL
REMARK 922        TOTAL FREE ENERGY PREDICTED BY IDOCK:   -4.04 KCAL/MOL
REMARK 923 INTER-LIGAND FREE ENERGY PREDICTED BY IDOCK:   -4.06 KCAL/MOL
REMARK 924 INTRA-LIGAND FREE ENERGY PREDICTED BY IDOCK:    0.02 KCAL/MOL
REMARK 927      BINDING AFFINITY PREDICTED BY RF-SCORE:    0.00 PKD
ROOT
HETATM    1  C   UNL     1      -8.280   7.190  66.361  1.00  0.00    -0.120 C  
HETATM    2  C   UNL     1      -8.722   8.305  65.479  1.00  0.00    -0.140 C  
HETATM    3  N   UNL     1      -9.587   9.206  65.821  1.00  0.00    -0.268 NA 
HETATM    4  N   UNL     1      -9.714  10.056  64.734  1.00  0.00    -0.316 N  
HETATM    5  C   UNL     1      -8.203   8.451  64.088  1.00  0.00    -0.122 C  
HETATM    6  C   UNL     1      -8.893   9.706  63.648  1.00  0.00    -0.232 C  
HETATM    7  O   UNL     1      -8.727  10.231  62.559  1.00  0.00    -0.170 OA 
ENDROOT
BRANCH   4   8
HETATM    8  C   UNL     1     -10.639  11.129  64.807  1.00  0.00    -0.303 A  
HETATM    9  C   UNL     1     -11.227  11.677  63.658  1.00  0.00    -0.497 A  
HETATM   10  C   UNL     1     -12.158  12.717  63.751  1.00  0.00    -0.596 A  
HETATM   11  C   UNL     1     -12.516  13.230  64.994  1.00  0.00    -0.498 A  
HETATM   12  C   UNL     1     -11.938  12.705  66.146  1.00  0.00    -0.458 A  
HETATM   13  C   UNL     1     -11.006  11.666  66.052  1.00  0.00    -0.338 A  
ENDBRANCH   4   8
TORSDOF 1
ENDMDL
MODEL       99
REMARK 921   NORMALIZED FREE ENERGY PREDICTED BY IDOCK:   -3.65 KCAL/MOL
REMARK 922        TOTAL FREE ENERGY PREDICTED BY IDOCK:   -4.01 KCAL/MOL
REMARK 923 INTER-LIGAND FREE ENERGY PREDICTED BY IDOCK:   -3.96 KCAL/MOL
REMARK 924 INTRA-LIGAND FREE ENERGY PREDICTED BY IDOCK:   -0.05 KCAL/MOL
REMARK 927      BINDING AFFINITY PREDICTED BY RF-SCORE:    0.00 PKD
ROOT
HETATM    1  C   UNL     1     -10.862  10.609  69.963  1.00  0.00    -0.280 C  
HETATM    2  C   UNL     1     -11.109  11.609  68.888  1.00  0.00    -0.232 C  
HETATM    3  N   UNL     1     -10.683  12.832  68.918  1.00  0.00    -0.205 NA 
HETATM    4  N   UNL     1     -11.114  13.422  67.740  1.00  0.00    -0.260 N  
HETATM    5  C   UNL     1     -11.910  11.269  67.676  1.00  0.00    -0.102 C  
HETATM    6  C   UNL     1     -11.834  12.551  66.905  1.00  0.00    -0.334 C  
HETATM    7  O   UNL     1     -12.331  12.716  65.803  1.00  0.00    -0.594 OA 
ENDROOT
BRANCH   4   8
HETATM    8  C   UNL     1     -10.826  14.793  67.515  1.00  0.00    -0.287 A  
HETATM    9  C   UNL     1     -10.502  15.280  66.241  1.00  0.00    -0.313 A  
HETATM   10  C   UNL     1     -10.248  16.641  66.032  1.00  0.00    -0.366 A  
HETATM   11  C   UNL     1     -10.310  17.537  67.095  1.00  0.00    -0.330 A  
HETATM   12  C   UNL     1     -10.622  17.073  68.369  1.00  0.00    -0.375 A  
HETATM   13  C   UNL     1     -10.875  15.713  68.576  1.00  0.00    -0.282 A  
ENDBRANCH   4   8
TORSDOF 1
ENDMDL
MODEL      100
REMARK 921   NORMALIZED FREE ENERGY PREDICTED BY IDOCK:   -3.63 KCAL/MOL
REMARK 922        TOTAL FREE ENERGY PREDICTED BY IDOCK:   -4.00 KCAL/MOL
REMARK 923 INTER-LIGAND FREE ENERGY PREDICTED BY IDOCK:   -3.91 KCAL/MOL
REMARK 924 INTRA-LIGAND FREE ENERGY PREDICTED BY IDOCK:   -0.08 KCAL/MOL
REMARK 927      BINDING AFFINITY PREDICTED BY RF-SCORE:    0.00 PKD
ROOT
HETATM    1  C   UNL     1     -11.546  17.446  73.283  1.00  0.00     0.916 C  
HETATM    2  C   UNL     1     -12.079  16.232  72.607  1.00  0.00    -0.534 C  
HETATM    3  N   UNL     1     -11.500  15.638  71.612  1.00  0.00    -0.417 NA 
HETATM    4  N   UNL     1     -12.305  14.558  71.283  1.00  0.00    -0.331 N  
HETATM    5  C   UNL     1     -13.371  15.612  73.023  1.00  0.00    -0.668 C  
HETATM    6  C   UNL     1     -13.442  14.434  72.099  1.00  0.00    -0.417 C  
HETATM    7  O   UNL     1     -14.338  13.607  72.115  1.00  0.00    -0.466 OA 
ENDROOT
BRANCH   4   8
HETATM    8  C   UNL     1     -11.935  13.738  70.185  1.00  0.00    -0.334 A  
HETATM    9  C   UNL     1     -11.488  14.283  68.974  1.00  0.00    -0.318 A  
HETATM   10  C   UNL     1     -11.101  13.458  67.911  1.00  0.00    -0.289 A  
HETATM   11  C   UNL     1     -11.158  12.074  68.041  1.00  0.00    -0.292 A  
HETATM   12  C   UNL     1     -11.607  11.513  69.233  1.00  0.00    -0.388 A  
HETATM   13  C   UNL     1     -11.994  12.338  70.294  1.00  0.00    -0.373 A  
ENDBRANCH   4   8
TORSDOF 1
ENDMDL
MODEL      101
REMARK 921   NORMALIZED FREE ENERGY PREDICTED BY IDOCK:   -3.63 KCAL/MOL
REMARK 922        TOTAL FREE ENERGY PREDICTED BY IDOCK:   -4.00 KCAL/MOL
REMARK 923 INTER-LIGAND FREE ENERGY PREDICTED BY IDOCK:   -3.77 KCAL/MOL
REMARK 924 INTRA-LIGAND FREE ENERGY PREDICTED BY IDOCK:   -0.22 KCAL/MOL
REMARK 927      BINDING AFFINITY PREDICTED BY RF-SCORE:    0.00 PKD
ROOT
HETATM    1  C   UNL     1      -6.836  10.506  68.759  1.00  0.00    -0.060 C  
HETATM    2  C   UNL     1      -8.069  10.230  67.972  1.00  0.00    -0.106 C  
HETATM    3  N   UNL     1      -8.589  11.054  67.118  1.00  0.00    -0.134 NA 
HETATM    4  N   UNL     1      -9.710  10.423  66.603  1.00  0.00    -0.183 N  
HETATM    5  C   UNL     1      -8.830   8.957  68.137  1.00  0.00    -0.134 C  
HETATM    6  C   UNL     1      -9.924   9.137  67.128  1.00  0.00    -0.218 C  
HETATM    7  O   UNL     1     -10.779   8.300  66.892  1.00  0.00    -0.299 OA 
ENDROOT
BRANCH   4   8
HETATM    8  C   UNL     1     -10.514  11.115  65.661  1.00  0.00    -0.248 A  
HETATM    9  C   UNL     1     -10.333  10.959  64.279  1.00  0.00    -0.436 A  
HETATM   10  C   UNL     1     -11.154  11.629  63.365  1.00  0.00    -0.422 A  
HETATM   11  C   UNL     1     -12.167  12.469  63.815  1.00  0.00    -0.615 A  
HETATM   12  C   UNL     1     -12.358  12.643  65.182  1.00  0.00    -0.547 A  
HETATM   13  C   UNL     1     -11.537  11.974  66.096  1.00  0.00    -0.371 A  
ENDBRANCH   4   8
TORSDOF 1
ENDMDL
MODEL      102
REMARK 921   NORMALIZED FREE ENERGY PREDICTED BY IDOCK:   -3.62 KCAL/MOL
REMARK 922        TOTAL FREE ENERGY PREDICTED BY IDOCK:   -3.98 KCAL/MOL
REMARK 923 INTER-LIGAND FREE ENERGY PREDICTED BY IDOCK:   -3.78 KCAL/MOL
REMARK 924 INTRA-LIGAND FREE ENERGY PREDICTED BY IDOCK:   -0.21 KCAL/MOL
REMARK 927      BINDING AFFINITY PREDICTED BY RF-SCORE:    0.00 PKD
ROOT
HETATM    1  C   UNL     1      -6.642   7.791  73.997  1.00  0.00    -0.103 C  
HETATM    2  C   UNL     1      -7.673   7.849  72.924  1.00  0.00    -0.121 C  
HETATM    3  N   UNL     1      -8.791   8.497  73.021  1.00  0.00    -0.348 NA 
HETATM    4  N   UNL     1      -9.455   8.307  71.820  1.00  0.00    -0.187 N  
HETATM    5  C   UNL     1      -7.497   7.121  71.634  1.00  0.00    -0.086 C  
HETATM    6  C   UNL     1      -8.741   7.519  70.901  1.00  0.00    -0.142 C  
HETATM    7  O   UNL     1      -9.002   7.175  69.760  1.00  0.00    -0.142 OA 
ENDROOT
BRANCH   4   8
HETATM    8  C   UNL     1     -10.744   8.875  71.653  1.00  0.00    -0.347 A  
HETATM    9  C   UNL     1     -11.851   8.423  72.385  1.00  0.00    -0.452 A  
HETATM   10  C   UNL     1     -13.110   9.014  72.228  1.00  0.00    -0.508 A  
HETATM   11  C   UNL     1     -13.285  10.066  71.334  1.00  0.00    -0.486 A  
HETATM   12  C   UNL     1     -12.200  10.525  70.593  1.00  0.00    -0.446 A  
HETATM   13  C   UNL     1     -10.943   9.933  70.750  1.00  0.00    -0.407 A  
ENDBRANCH   4   8
TORSDOF 1
ENDMDL
MODEL      103
REMARK 921   NORMALIZED FREE ENERGY PREDICTED BY IDOCK:   -3.61 KCAL/MOL
REMARK 922        TOTAL FREE ENERGY PREDICTED BY IDOCK:   -3.98 KCAL/MOL
REMARK 923 INTER-LIGAND FREE ENERGY PREDICTED BY IDOCK:   -3.79 KCAL/MOL
REMARK 924 INTRA-LIGAND FREE ENERGY PREDICTED BY IDOCK:   -0.19 KCAL/MOL
REMARK 927      BINDING AFFINITY PREDICTED BY RF-SCORE:    0.00 PKD
ROOT
HETATM    1  C   UNL     1     -10.434   6.600  67.152  1.00  0.00    -0.358 C  
HETATM    2  C   UNL     1     -10.198   8.026  66.791  1.00  0.00    -0.297 C  
HETATM    3  N   UNL     1     -10.903   9.018  67.236  1.00  0.00    -0.143 NA 
HETATM    4  N   UNL     1     -10.360  10.162  66.674  1.00  0.00    -0.223 N  
HETATM    5  C   UNL     1      -9.114   8.421  65.844  1.00  0.00    -0.225 C  
HETATM    6  C   UNL     1      -9.253   9.912  65.845  1.00  0.00    -0.176 C  
HETATM    7  O   UNL     1      -8.526  10.666  65.221  1.00  0.00    -0.169 OA 
ENDROOT
BRANCH   4   8
HETATM    8  C   UNL     1     -10.965  11.415  66.954  1.00  0.00    -0.299 A  
HETATM    9  C   UNL     1     -11.007  11.941  68.253  1.00  0.00    -0.273 A  
HETATM   10  C   UNL     1     -11.583  13.192  68.506  1.00  0.00    -0.361 A  
HETATM   11  C   UNL     1     -12.128  13.936  67.465  1.00  0.00    -0.366 A  
HETATM   12  C   UNL     1     -12.103  13.429  66.170  1.00  0.00    -0.481 A  
HETATM   13  C   UNL     1     -11.528  12.179  65.918  1.00  0.00    -0.418 A  
ENDBRANCH   4   8
TORSDOF 1
ENDMDL
MODEL      104
REMARK 921   NORMALIZED FREE ENERGY PREDICTED BY IDOCK:   -3.61 KCAL/MOL
REMARK 922        TOTAL FREE ENERGY PREDICTED BY IDOCK:   -3.97 KCAL/MOL
REMARK 923 INTER-LIGAND FREE ENERGY PREDICTED BY IDOCK:   -4.05 KCAL/MOL
REMARK 924 INTRA-LIGAND FREE ENERGY PREDICTED BY IDOCK:    0.08 KCAL/MOL
REMARK 927      BINDING AFFINITY PREDICTED BY RF-SCORE:    0.00 PKD
ROOT
HETATM    1  C   UNL     1     -11.259   4.664  73.577  1.00  0.00    -0.400 C  
HETATM    2  C   UNL     1     -11.122   5.842  72.676  1.00  0.00    -0.280 C  
HETATM    3  N   UNL     1     -11.058   5.769  71.384  1.00  0.00    -0.242 NA 
HETATM    4  N   UNL     1     -10.943   7.072  70.927  1.00  0.00    -0.245 N  
HETATM    5  C   UNL     1     -11.019   7.228  73.217  1.00  0.00    -0.355 C  
HETATM    6  C   UNL     1     -10.945   8.031  71.954  1.00  0.00    -0.263 C  
HETATM    7  O   UNL     1     -10.888   9.249  71.922  1.00  0.00    -0.351 OA 
ENDROOT
BRANCH   4   8
HETATM    8  C   UNL     1     -10.810   7.299  69.533  1.00  0.00    -0.209 A  
HETATM    9  C   UNL     1     -10.425   8.547  69.021  1.00  0.00    -0.216 A  
HETATM   10  C   UNL     1     -10.272   8.745  67.645  1.00  0.00    -0.298 A  
HETATM   11  C   UNL     1     -10.504   7.701  66.755  1.00  0.00    -0.319 A  
HETATM   12  C   UNL     1     -10.894   6.458  67.242  1.00  0.00    -0.463 A  
HETATM   13  C   UNL     1     -11.048   6.260  68.618  1.00  0.00    -0.409 A  
ENDBRANCH   4   8
TORSDOF 1
ENDMDL
MODEL      105
REMARK 921   NORMALIZED FREE ENERGY PREDICTED BY IDOCK:   -3.60 KCAL/MOL
REMARK 922        TOTAL FREE ENERGY PREDICTED BY IDOCK:   -3.96 KCAL/MOL
REMARK 923 INTER-LIGAND FREE ENERGY PREDICTED BY IDOCK:   -3.74 KCAL/MOL
REMARK 924 INTRA-LIGAND FREE ENERGY PREDICTED BY IDOCK:   -0.22 KCAL/MOL
REMARK 927      BINDING AFFINITY PREDICTED BY RF-SCORE:    0.00 PKD
ROOT
HETATM    1  C   UNL     1      -6.783  15.194  69.289  1.00  0.00    -0.146 C  
HETATM    2  C   UNL     1      -7.960  15.476  68.423  1.00  0.00    -0.127 C  
HETATM    3  N   UNL     1      -8.650  14.566  67.810  1.00  0.00    -0.166 NA 
HETATM    4  N   UNL     1      -9.652  15.234  67.124  1.00  0.00    -0.214 N  
HETATM    5  C   UNL     1      -8.428  16.870  68.172  1.00  0.00    -0.217 C  
HETATM    6  C   UNL     1      -9.626  16.627  67.306  1.00  0.00    -0.243 C  
HETATM    7  O   UNL     1     -10.355  17.510  66.886  1.00  0.00    -0.317 OA 
ENDROOT
BRANCH   4   8
HETATM    8  C   UNL     1     -10.547  14.484  66.318  1.00  0.00    -0.304 A  
HETATM    9  C   UNL     1     -10.169  13.982  65.065  1.00  0.00    -0.395 A  
HETATM   10  C   UNL     1     -11.057  13.221  64.296  1.00  0.00    -0.414 A  
HETATM   11  C   UNL     1     -12.339  12.951  64.765  1.00  0.00    -0.516 A  
HETATM   12  C   UNL     1     -12.736  13.446  66.004  1.00  0.00    -0.233 A  
HETATM   13  C   UNL     1     -11.848  14.208  66.771  1.00  0.00    -0.449 A  
ENDBRANCH   4   8
TORSDOF 1
ENDMDL
MODEL      106
REMARK 921   NORMALIZED FREE ENERGY PREDICTED BY IDOCK:   -3.60 KCAL/MOL
REMARK 922        TOTAL FREE ENERGY PREDICTED BY IDOCK:   -3.96 KCAL/MOL
REMARK 923 INTER-LIGAND FREE ENERGY PREDICTED BY IDOCK:   -3.74 KCAL/MOL
REMARK 924 INTRA-LIGAND FREE ENERGY PREDICTED BY IDOCK:   -0.22 KCAL/MOL
REMARK 927      BINDING AFFINITY PREDICTED BY RF-SCORE:    0.00 PKD
ROOT
HETATM    1  C   UNL     1      -8.989   8.502  66.038  1.00  0.00    -0.228 C  
HETATM    2  C   UNL     1      -9.163   8.830  67.480  1.00  0.00    -0.136 C  
HETATM    3  N   UNL     1     -10.300   8.806  68.101  1.00  0.00    -0.216 NA 
HETATM    4  N   UNL     1     -10.033   9.164  69.413  1.00  0.00    -0.185 N  
HETATM    5  C   UNL     1      -8.010   9.248  68.329  1.00  0.00    -0.102 C  
HETATM    6  C   UNL     1      -8.673   9.417  69.662  1.00  0.00    -0.167 C  
HETATM    7  O   UNL     1      -8.083   9.723  70.685  1.00  0.00    -0.264 OA 
ENDROOT
BRANCH   4   8
HETATM    8  C   UNL     1     -11.113   9.264  70.329  1.00  0.00    -0.251 A  
HETATM    9  C   UNL     1     -11.360   8.273  71.289  1.00  0.00    -0.308 A  
HETATM   10  C   UNL     1     -12.412   8.402  72.203  1.00  0.00    -0.422 A  
HETATM   11  C   UNL     1     -13.237   9.522  72.170  1.00  0.00    -0.539 A  
HETATM   12  C   UNL     1     -13.012  10.513  71.220  1.00  0.00    -0.532 A  
HETATM   13  C   UNL     1     -11.961  10.383  70.307  1.00  0.00    -0.387 A  
ENDBRANCH   4   8
TORSDOF 1
ENDMDL
MODEL      107
REMARK 921   NORMALIZED FREE ENERGY PREDICTED BY IDOCK:   -3.58 KCAL/MOL
REMARK 922        TOTAL FREE ENERGY PREDICTED BY IDOCK:   -3.94 KCAL/MOL
REMARK 923 INTER-LIGAND FREE ENERGY PREDICTED BY IDOCK:   -3.97 KCAL/MOL
REMARK 924 INTRA-LIGAND FREE ENERGY PREDICTED BY IDOCK:    0.04 KCAL/MOL
REMARK 927      BINDING AFFINITY PREDICTED BY RF-SCORE:    0.00 PKD
ROOT
HETATM    1  C   UNL     1     -10.130  10.576  64.634  1.00  0.00    -0.408 C  
HETATM    2  C   UNL     1     -10.443  10.780  66.076  1.00  0.00    -0.208 C  
HETATM    3  N   UNL     1     -10.878  11.893  66.578  1.00  0.00    -0.266 NA 
HETATM    4  N   UNL     1     -11.050  11.665  67.934  1.00  0.00    -0.229 N  
HETATM    5  C   UNL     1     -10.249   9.691  67.077  1.00  0.00    -0.308 C  
HETATM    6  C   UNL     1     -10.731  10.355  68.330  1.00  0.00    -0.225 C  
HETATM    7  O   UNL     1     -10.786   9.804  69.417  1.00  0.00    -0.226 OA 
ENDROOT
BRANCH   4   8
HETATM    8  C   UNL     1     -11.483  12.736  68.759  1.00  0.00    -0.304 A  
HETATM    9  C   UNL     1     -12.116  12.511  69.989  1.00  0.00    -0.337 A  
HETATM   10  C   UNL     1     -12.512  13.579  70.802  1.00  0.00    -0.428 A  
HETATM   11  C   UNL     1     -12.284  14.891  70.398  1.00  0.00    -0.393 A  
HETATM   12  C   UNL     1     -11.664  15.135  69.176  1.00  0.00    -0.349 A  
HETATM   13  C   UNL     1     -11.270  14.067  68.364  1.00  0.00    -0.292 A  
ENDBRANCH   4   8
TORSDOF 1
ENDMDL
MODEL      108
REMARK 921   NORMALIZED FREE ENERGY PREDICTED BY IDOCK:   -3.49 KCAL/MOL
REMARK 922        TOTAL FREE ENERGY PREDICTED BY IDOCK:   -3.85 KCAL/MOL
REMARK 923 INTER-LIGAND FREE ENERGY PREDICTED BY IDOCK:   -3.64 KCAL/MOL
REMARK 924 INTRA-LIGAND FREE ENERGY PREDICTED BY IDOCK:   -0.22 KCAL/MOL
REMARK 927      BINDING AFFINITY PREDICTED BY RF-SCORE:    0.00 PKD
ROOT
HETATM    1  C   UNL     1     -10.907  15.217  64.753  1.00  0.00    -0.378 C  
HETATM    2  C   UNL     1     -10.646  13.800  65.131  1.00  0.00    -0.374 C  
HETATM    3  N   UNL     1     -10.480  13.389  66.348  1.00  0.00    -0.282 NA 
HETATM    4  N   UNL     1     -10.271  12.021  66.270  1.00  0.00    -0.217 N  
HETATM    5  C   UNL     1     -10.528  12.728  64.100  1.00  0.00    -0.437 C  
HETATM    6  C   UNL     1     -10.316  11.518  64.958  1.00  0.00    -0.281 C  
HETATM    7  O   UNL     1     -10.204  10.384  64.524  1.00  0.00    -0.342 OA 
ENDROOT
BRANCH   4   8
HETATM    8  C   UNL     1     -10.015  11.298  67.464  1.00  0.00    -0.182 A  
HETATM    9  C   UNL     1      -8.747  10.774  67.752  1.00  0.00    -0.130 A  
HETATM   10  C   UNL     1      -8.505  10.088  68.947  1.00  0.00    -0.132 A  
HETATM   11  C   UNL     1      -9.527   9.911  69.874  1.00  0.00    -0.256 A  
HETATM   12  C   UNL     1     -10.795  10.417  69.604  1.00  0.00    -0.320 A  
HETATM   13  C   UNL     1     -11.036  11.101  68.408  1.00  0.00    -0.303 A  
ENDBRANCH   4   8
TORSDOF 1
ENDMDL
MODEL      109
REMARK 921   NORMALIZED FREE ENERGY PREDICTED BY IDOCK:   -3.46 KCAL/MOL
REMARK 922        TOTAL FREE ENERGY PREDICTED BY IDOCK:   -3.82 KCAL/MOL
REMARK 923 INTER-LIGAND FREE ENERGY PREDICTED BY IDOCK:   -3.77 KCAL/MOL
REMARK 924 INTRA-LIGAND FREE ENERGY PREDICTED BY IDOCK:   -0.05 KCAL/MOL
REMARK 927      BINDING AFFINITY PREDICTED BY RF-SCORE:    0.00 PKD
ROOT
HETATM    1  C   UNL     1     -11.935  14.714  69.408  1.00  0.00    -0.351 C  
HETATM    2  C   UNL     1     -11.861  13.260  69.720  1.00  0.00    -0.325 C  
HETATM    3  N   UNL     1     -11.232  12.389  68.995  1.00  0.00    -0.260 NA 
HETATM    4  N   UNL     1     -11.397  11.166  69.627  1.00  0.00    -0.275 N  
HETATM    5  C   UNL     1     -12.549  12.682  70.912  1.00  0.00    -0.338 C  
HETATM    6  C   UNL     1     -12.148  11.242  70.812  1.00  0.00    -0.349 C  
HETATM    7  O   UNL     1     -12.464  10.388  71.624  1.00  0.00    -0.391 OA 
ENDROOT
BRANCH   4   8
HETATM    8  C   UNL     1     -10.843  10.006  69.027  1.00  0.00    -0.222 A  
HETATM    9  C   UNL     1     -10.298   8.967  69.795  1.00  0.00    -0.213 A  
HETATM   10  C   UNL     1      -9.781   7.817  69.187  1.00  0.00    -0.161 A  
HETATM   11  C   UNL     1      -9.798   7.686  67.802  1.00  0.00    -0.196 A  
HETATM   12  C   UNL     1     -10.328   8.709  67.022  1.00  0.00    -0.368 A  
HETATM   13  C   UNL     1     -10.844   9.859  67.630  1.00  0.00    -0.318 A  
ENDBRANCH   4   8
TORSDOF 1
ENDMDL
MODEL      110
REMARK 921   NORMALIZED FREE ENERGY PREDICTED BY IDOCK:   -3.45 KCAL/MOL
REMARK 922        TOTAL FREE ENERGY PREDICTED BY IDOCK:   -3.80 KCAL/MOL
REMARK 923 INTER-LIGAND FREE ENERGY PREDICTED BY IDOCK:   -3.58 KCAL/MOL
REMARK 924 INTRA-LIGAND FREE ENERGY PREDICTED BY IDOCK:   -0.22 KCAL/MOL
REMARK 927      BINDING AFFINITY PREDICTED BY RF-SCORE:    0.00 PKD
ROOT
HETATM    1  C   UNL     1      -9.421   3.298  67.549  1.00  0.00    -0.209 C  
HETATM    2  C   UNL     1      -9.905   4.684  67.802  1.00  0.00    -0.128 C  
HETATM    3  N   UNL     1     -10.130   5.174  68.980  1.00  0.00    -0.195 NA 
HETATM    4  N   UNL     1     -10.556   6.478  68.782  1.00  0.00    -0.218 N  
HETATM    5  C   UNL     1     -10.198   5.624  66.681  1.00  0.00    -0.276 C  
HETATM    6  C   UNL     1     -10.597   6.858  67.430  1.00  0.00    -0.303 C  
HETATM    7  O   UNL     1     -10.892   7.915  66.897  1.00  0.00    -0.288 OA 
ENDROOT
BRANCH   4   8
HETATM    8  C   UNL     1     -10.920   7.258  69.911  1.00  0.00    -0.243 A  
HETATM    9  C   UNL     1     -12.134   7.061  70.584  1.00  0.00    -0.332 A  
HETATM   10  C   UNL     1     -12.464   7.820  71.712  1.00  0.00    -0.348 A  
HETATM   11  C   UNL     1     -11.588   8.792  72.185  1.00  0.00    -0.434 A  
HETATM   12  C   UNL     1     -10.381   9.008  71.527  1.00  0.00    -0.412 A  
HETATM   13  C   UNL     1     -10.052   8.249  70.399  1.00  0.00    -0.199 A  
ENDBRANCH   4   8
TORSDOF 1
ENDMDL
MODEL      111
REMARK 921   NORMALIZED FREE ENERGY PREDICTED BY IDOCK:   -3.45 KCAL/MOL
REMARK 922        TOTAL FREE ENERGY PREDICTED BY IDOCK:   -3.80 KCAL/MOL
REMARK 923 INTER-LIGAND FREE ENERGY PREDICTED BY IDOCK:   -3.58 KCAL/MOL
REMARK 924 INTRA-LIGAND FREE ENERGY PREDICTED BY IDOCK:   -0.22 KCAL/MOL
REMARK 927      BINDING AFFINITY PREDICTED BY RF-SCORE:    0.00 PKD
ROOT
HETATM    1  C   UNL     1      -8.024   9.689  69.982  1.00  0.00    -0.182 C  
HETATM    2  C   UNL     1      -9.276  10.291  69.445  1.00  0.00    -0.189 C  
HETATM    3  N   UNL     1      -9.332  11.030  68.382  1.00  0.00    -0.172 NA 
HETATM    4  N   UNL     1     -10.663  11.378  68.221  1.00  0.00    -0.192 N  
HETATM    5  C   UNL     1     -10.588  10.100  70.127  1.00  0.00    -0.337 C  
HETATM    6  C   UNL     1     -11.509  10.837  69.205  1.00  0.00    -0.298 C  
HETATM    7  O   UNL     1     -12.717  10.911  69.360  1.00  0.00    -0.284 OA 
ENDROOT
BRANCH   4   8
HETATM    8  C   UNL     1     -11.023  12.232  67.147  1.00  0.00    -0.262 A  
HETATM    9  C   UNL     1     -11.579  11.733  65.961  1.00  0.00    -0.206 A  
HETATM   10  C   UNL     1     -11.954  12.593  64.922  1.00  0.00    -0.459 A  
HETATM   11  C   UNL     1     -11.777  13.967  65.050  1.00  0.00    -0.365 A  
HETATM   12  C   UNL     1     -11.220  14.482  66.216  1.00  0.00    -0.342 A  
HETATM   13  C   UNL     1     -10.844  13.622  67.254  1.00  0.00    -0.292 A  
ENDBRANCH   4   8
TORSDOF 1
ENDMDL
MODEL      112
REMARK 921   NORMALIZED FREE ENERGY PREDICTED BY IDOCK:   -3.45 KCAL/MOL
REMARK 922        TOTAL FREE ENERGY PREDICTED BY IDOCK:   -3.80 KCAL/MOL
REMARK 923 INTER-LIGAND FREE ENERGY PREDICTED BY IDOCK:   -3.84 KCAL/MOL
REMARK 924 INTRA-LIGAND FREE ENERGY PREDICTED BY IDOCK:    0.04 KCAL/MOL
REMARK 927      BINDING AFFINITY PREDICTED BY RF-SCORE:    0.00 PKD
ROOT
HETATM    1  C   UNL     1     -12.480  13.057  65.657  1.00  0.00    -0.452 C  
HETATM    2  C   UNL     1     -11.366  13.870  66.220  1.00  0.00    -0.324 C  
HETATM    3  N   UNL     1     -11.266  15.155  66.096  1.00  0.00    -0.313 NA 
HETATM    4  N   UNL     1     -10.106  15.521  66.760  1.00  0.00    -0.257 N  
HETATM    5  C   UNL     1     -10.239  13.237  66.966  1.00  0.00    -0.244 C  
HETATM    6  C   UNL     1      -9.431  14.439  67.350  1.00  0.00    -0.207 C  
HETATM    7  O   UNL     1      -8.413  14.391  68.021  1.00  0.00    -0.148 OA 
ENDROOT
BRANCH   4   8
HETATM    8  C   UNL     1      -9.715  16.885  66.755  1.00  0.00    -0.266 A  
HETATM    9  C   UNL     1     -10.652  17.922  66.643  1.00  0.00    -0.243 A  
HETATM   10  C   UNL     1     -10.250  19.262  66.668  1.00  0.00    -0.512 A  
HETATM   11  C   UNL     1      -8.904  19.589  66.802  1.00  0.00    -0.376 A  
HETATM   12  C   UNL     1      -7.958  18.574  66.907  1.00  0.00    -0.250 A  
HETATM   13  C   UNL     1      -8.360  17.235  66.881  1.00  0.00    -0.253 A  
ENDBRANCH   4   8
TORSDOF 1
ENDMDL
MODEL      113
REMARK 921   NORMALIZED FREE ENERGY PREDICTED BY IDOCK:   -3.43 KCAL/MOL
REMARK 922        TOTAL FREE ENERGY PREDICTED BY IDOCK:   -3.78 KCAL/MOL
REMARK 923 INTER-LIGAND FREE ENERGY PREDICTED BY IDOCK:   -3.60 KCAL/MOL
REMARK 924 INTRA-LIGAND FREE ENERGY PREDICTED BY IDOCK:   -0.18 KCAL/MOL
REMARK 927      BINDING AFFINITY PREDICTED BY RF-SCORE:    0.00 PKD
ROOT
HETATM    1  C   UNL     1      -7.444   6.466  69.593  1.00  0.00    -0.085 C  
HETATM    2  C   UNL     1      -8.623   7.328  69.302  1.00  0.00    -0.137 C  
HETATM    3  N   UNL     1      -9.280   7.992  70.200  1.00  0.00    -0.152 NA 
HETATM    4  N   UNL     1     -10.287   8.664  69.526  1.00  0.00    -0.211 N  
HETATM    5  C   UNL     1      -9.162   7.470  67.918  1.00  0.00    -0.137 C  
HETATM    6  C   UNL     1     -10.280   8.443  68.138  1.00  0.00    -0.208 C  
HETATM    7  O   UNL     1     -10.987   8.883  67.247  1.00  0.00    -0.124 OA 
ENDROOT
BRANCH   4   8
HETATM    8  C   UNL     1     -11.203   9.451  70.271  1.00  0.00    -0.246 A  
HETATM    9  C   UNL     1     -11.375  10.820  70.020  1.00  0.00    -0.397 A  
HETATM   10  C   UNL     1     -12.304  11.574  70.746  1.00  0.00    -0.472 A  
HETATM   11  C   UNL     1     -13.075  10.974  71.737  1.00  0.00    -0.554 A  
HETATM   12  C   UNL     1     -12.914   9.618  72.005  1.00  0.00    -0.518 A  
HETATM   13  C   UNL     1     -11.985   8.865  71.280  1.00  0.00    -0.365 A  
ENDBRANCH   4   8
TORSDOF 1
ENDMDL
MODEL      114
REMARK 921   NORMALIZED FREE ENERGY PREDICTED BY IDOCK:   -3.42 KCAL/MOL
REMARK 922        TOTAL FREE ENERGY PREDICTED BY IDOCK:   -3.78 KCAL/MOL
REMARK 923 INTER-LIGAND FREE ENERGY PREDICTED BY IDOCK:   -3.75 KCAL/MOL
REMARK 924 INTRA-LIGAND FREE ENERGY PREDICTED BY IDOCK:   -0.02 KCAL/MOL
REMARK 927      BINDING AFFINITY PREDICTED BY RF-SCORE:    0.00 PKD
ROOT
HETATM    1  C   UNL     1     -13.312   9.589  71.719  1.00  0.00    -0.501 C  
HETATM    2  C   UNL     1     -12.164   8.648  71.595  1.00  0.00    -0.333 C  
HETATM    3  N   UNL     1     -12.196   7.405  71.958  1.00  0.00    -0.295 NA 
HETATM    4  N   UNL     1     -10.945   6.884  71.672  1.00  0.00    -0.230 N  
HETATM    5  C   UNL     1     -10.848   9.093  71.051  1.00  0.00    -0.362 C  
HETATM    6  C   UNL     1     -10.068   7.815  71.088  1.00  0.00    -0.187 C  
HETATM    7  O   UNL     1      -8.920   7.703  70.690  1.00  0.00    -0.150 OA 
ENDROOT
BRANCH   4   8
HETATM    8  C   UNL     1     -10.672   5.532  72.007  1.00  0.00    -0.234 A  
HETATM    9  C   UNL     1     -11.206   4.935  73.157  1.00  0.00    -0.403 A  
HETATM   10  C   UNL     1     -10.950   3.592  73.457  1.00  0.00    -0.333 A  
HETATM   11  C   UNL     1     -10.153   2.825  72.614  1.00  0.00    -0.232 A  
HETATM   12  C   UNL     1      -9.607   3.401  71.471  1.00  0.00    -0.233 A  
HETATM   13  C   UNL     1      -9.863   4.743  71.172  1.00  0.00    -0.260 A  
ENDBRANCH   4   8
TORSDOF 1
ENDMDL
MODEL      115
REMARK 921   NORMALIZED FREE ENERGY PREDICTED BY IDOCK:   -3.40 KCAL/MOL
REMARK 922        TOTAL FREE ENERGY PREDICTED BY IDOCK:   -3.76 KCAL/MOL
REMARK 923 INTER-LIGAND FREE ENERGY PREDICTED BY IDOCK:   -3.53 KCAL/MOL
REMARK 924 INTRA-LIGAND FREE ENERGY PREDICTED BY IDOCK:   -0.22 KCAL/MOL
REMARK 927      BINDING AFFINITY PREDICTED BY RF-SCORE:    0.00 PKD
ROOT
HETATM    1  C   UNL     1      -9.761   4.837  66.126  1.00  0.00    -0.205 C  
HETATM    2  C   UNL     1      -9.963   5.016  67.590  1.00  0.00    -0.155 C  
HETATM    3  N   UNL     1     -10.542   6.044  68.127  1.00  0.00    -0.237 NA 
HETATM    4  N   UNL     1     -10.537   5.823  69.494  1.00  0.00    -0.291 N  
HETATM    5  C   UNL     1      -9.478   4.005  68.574  1.00  0.00    -0.215 C  
HETATM    6  C   UNL     1      -9.948   4.601  69.865  1.00  0.00    -0.226 C  
HETATM    7  O   UNL     1      -9.796   4.076  70.956  1.00  0.00    -0.181 OA 
ENDROOT
BRANCH   4   8
HETATM    8  C   UNL     1     -11.075   6.817  70.351  1.00  0.00    -0.308 A  
HETATM    9  C   UNL     1     -12.402   6.766  70.800  1.00  0.00    -0.289 A  
HETATM   10  C   UNL     1     -12.908   7.741  71.667  1.00  0.00    -0.365 A  
HETATM   11  C   UNL     1     -12.097   8.786  72.099  1.00  0.00    -0.441 A  
HETATM   12  C   UNL     1     -10.779   8.859  71.659  1.00  0.00    -0.418 A  
HETATM   13  C   UNL     1     -10.274   7.885  70.792  1.00  0.00    -0.202 A  
ENDBRANCH   4   8
TORSDOF 1
ENDMDL
MODEL      116
REMARK 921   NORMALIZED FREE ENERGY PREDICTED BY IDOCK:   -3.40 KCAL/MOL
REMARK 922        TOTAL FREE ENERGY PREDICTED BY IDOCK:   -3.76 KCAL/MOL
REMARK 923 INTER-LIGAND FREE ENERGY PREDICTED BY IDOCK:   -3.55 KCAL/MOL
REMARK 924 INTRA-LIGAND FREE ENERGY PREDICTED BY IDOCK:   -0.21 KCAL/MOL
REMARK 927      BINDING AFFINITY PREDICTED BY RF-SCORE:    0.00 PKD
ROOT
HETATM    1  C   UNL     1     -10.730   6.617  69.089  1.00  0.00    -0.304 C  
HETATM    2  C   UNL     1     -10.325   7.952  68.571  1.00  0.00    -0.200 C  
HETATM    3  N   UNL     1     -10.693   8.432  67.425  1.00  0.00    -0.229 NA 
HETATM    4  N   UNL     1     -10.115   9.687  67.326  1.00  0.00    -0.197 N  
HETATM    5  C   UNL     1      -9.420   8.848  69.347  1.00  0.00    -0.161 C  
HETATM    6  C   UNL     1      -9.354  10.047  68.451  1.00  0.00    -0.138 C  
HETATM    7  O   UNL     1      -8.737  11.066  68.717  1.00  0.00    -0.157 OA 
ENDROOT
BRANCH   4   8
HETATM    8  C   UNL     1     -10.313  10.441  66.140  1.00  0.00    -0.200 A  
HETATM    9  C   UNL     1      -9.776  10.037  64.909  1.00  0.00    -0.377 A  
HETATM   10  C   UNL     1     -10.005  10.778  63.745  1.00  0.00    -0.411 A  
HETATM   11  C   UNL     1     -10.773  11.938  63.790  1.00  0.00    -0.476 A  
HETATM   12  C   UNL     1     -11.309  12.360  65.003  1.00  0.00    -0.363 A  
HETATM   13  C   UNL     1     -11.079  11.619  66.167  1.00  0.00    -0.335 A  
ENDBRANCH   4   8
TORSDOF 1
ENDMDL
MODEL      117
REMARK 921   NORMALIZED FREE ENERGY PREDICTED BY IDOCK:   -3.39 KCAL/MOL
REMARK 922        TOTAL FREE ENERGY PREDICTED BY IDOCK:   -3.74 KCAL/MOL
REMARK 923 INTER-LIGAND FREE ENERGY PREDICTED BY IDOCK:   -3.52 KCAL/MOL
REMARK 924 INTRA-LIGAND FREE ENERGY PREDICTED BY IDOCK:   -0.22 KCAL/MOL
REMARK 927      BINDING AFFINITY PREDICTED BY RF-SCORE:    0.00 PKD
ROOT
HETATM    1  C   UNL     1     -12.787   9.582  71.879  1.00  0.00    -0.508 C  
HETATM    2  C   UNL     1     -11.620   9.628  70.956  1.00  0.00    -0.359 C  
HETATM    3  N   UNL     1     -11.655  10.121  69.758  1.00  0.00    -0.215 NA 
HETATM    4  N   UNL     1     -10.377   9.980  69.243  1.00  0.00    -0.204 N  
HETATM    5  C   UNL     1     -10.293   9.068  71.349  1.00  0.00    -0.396 C  
HETATM    6  C   UNL     1      -9.470   9.387  70.138  1.00  0.00    -0.240 C  
HETATM    7  O   UNL     1      -8.281   9.137  70.036  1.00  0.00    -0.113 OA 
ENDROOT
BRANCH   4   8
HETATM    8  C   UNL     1     -10.125  10.402  67.911  1.00  0.00    -0.171 A  
HETATM    9  C   UNL     1     -10.374   9.567  66.813  1.00  0.00    -0.298 A  
HETATM   10  C   UNL     1     -10.147  10.010  65.505  1.00  0.00    -0.325 A  
HETATM   11  C   UNL     1      -9.662  11.293  65.273  1.00  0.00    -0.280 A  
HETATM   12  C   UNL     1      -9.401  12.135  66.350  1.00  0.00    -0.225 A  
HETATM   13  C   UNL     1      -9.628  11.691  67.657  1.00  0.00    -0.184 A  
ENDBRANCH   4   8
TORSDOF 1
ENDMDL
MODEL      118
REMARK 921   NORMALIZED FREE ENERGY PREDICTED BY IDOCK:   -3.38 KCAL/MOL
REMARK 922        TOTAL FREE ENERGY PREDICTED BY IDOCK:   -3.73 KCAL/MOL
REMARK 923 INTER-LIGAND FREE ENERGY PREDICTED BY IDOCK:   -3.56 KCAL/MOL
REMARK 924 INTRA-LIGAND FREE ENERGY PREDICTED BY IDOCK:   -0.17 KCAL/MOL
REMARK 927      BINDING AFFINITY PREDICTED BY RF-SCORE:    0.00 PKD
ROOT
HETATM    1  C   UNL     1      -8.255   6.229  65.915  1.00  0.00    -0.129 C  
HETATM    2  C   UNL     1      -9.076   7.112  66.789  1.00  0.00    -0.147 C  
HETATM    3  N   UNL     1      -9.328   6.871  68.037  1.00  0.00    -0.124 NA 
HETATM    4  N   UNL     1     -10.108   7.926  68.486  1.00  0.00    -0.192 N  
HETATM    5  C   UNL     1      -9.705   8.360  66.267  1.00  0.00    -0.278 C  
HETATM    6  C   UNL     1     -10.363   8.896  67.502  1.00  0.00    -0.263 C  
HETATM    7  O   UNL     1     -10.977   9.949  67.546  1.00  0.00    -0.282 OA 
ENDROOT
BRANCH   4   8
HETATM    8  C   UNL     1     -10.576   7.909  69.825  1.00  0.00    -0.242 A  
HETATM    9  C   UNL     1     -10.310   8.961  70.713  1.00  0.00    -0.283 A  
HETATM   10  C   UNL     1     -10.804   8.941  72.023  1.00  0.00    -0.404 A  
HETATM   11  C   UNL     1     -11.570   7.869  72.468  1.00  0.00    -0.443 A  
HETATM   12  C   UNL     1     -11.840   6.812  71.604  1.00  0.00    -0.370 A  
HETATM   13  C   UNL     1     -11.345   6.831  70.296  1.00  0.00    -0.404 A  
ENDBRANCH   4   8
TORSDOF 1
ENDMDL
MODEL      119
REMARK 921   NORMALIZED FREE ENERGY PREDICTED BY IDOCK:   -3.36 KCAL/MOL
REMARK 922        TOTAL FREE ENERGY PREDICTED BY IDOCK:   -3.71 KCAL/MOL
REMARK 923 INTER-LIGAND FREE ENERGY PREDICTED BY IDOCK:   -3.81 KCAL/MOL
REMARK 924 INTRA-LIGAND FREE ENERGY PREDICTED BY IDOCK:    0.10 KCAL/MOL
REMARK 927      BINDING AFFINITY PREDICTED BY RF-SCORE:    0.00 PKD
ROOT
HETATM    1  C   UNL     1     -10.744  16.093  67.241  1.00  0.00    -0.277 C  
HETATM    2  C   UNL     1     -11.162  15.063  68.231  1.00  0.00    -0.299 C  
HETATM    3  N   UNL     1     -10.854  13.807  68.151  1.00  0.00    -0.240 NA 
HETATM    4  N   UNL     1     -11.423  13.196  69.257  1.00  0.00    -0.287 N  
HETATM    5  C   UNL     1     -12.013  15.411  69.406  1.00  0.00    -0.351 C  
HETATM    6  C   UNL     1     -12.116  14.086  70.097  1.00  0.00    -0.351 C  
HETATM    7  O   UNL     1     -12.705  13.908  71.150  1.00  0.00    -0.334 OA 
ENDROOT
BRANCH   4   8
HETATM    8  C   UNL     1     -11.283  11.793  69.413  1.00  0.00    -0.234 A  
HETATM    9  C   UNL     1     -11.830  11.113  70.510  1.00  0.00    -0.448 A  
HETATM   10  C   UNL     1     -11.707   9.725  70.633  1.00  0.00    -0.377 A  
HETATM   11  C   UNL     1     -11.032   8.992  69.662  1.00  0.00    -0.147 A  
HETATM   12  C   UNL     1     -10.475   9.648  68.568  1.00  0.00    -0.241 A  
HETATM   13  C   UNL     1     -10.598  11.036  68.447  1.00  0.00    -0.224 A  
ENDBRANCH   4   8
TORSDOF 1
ENDMDL
MODEL      120
REMARK 921   NORMALIZED FREE ENERGY PREDICTED BY IDOCK:   -3.35 KCAL/MOL
REMARK 922        TOTAL FREE ENERGY PREDICTED BY IDOCK:   -3.70 KCAL/MOL
REMARK 923 INTER-LIGAND FREE ENERGY PREDICTED BY IDOCK:   -3.50 KCAL/MOL
REMARK 924 INTRA-LIGAND FREE ENERGY PREDICTED BY IDOCK:   -0.20 KCAL/MOL
REMARK 927      BINDING AFFINITY PREDICTED BY RF-SCORE:    0.00 PKD
ROOT
HETATM    1  C   UNL     1     -10.968  15.128  67.053  1.00  0.00    -0.322 C  
HETATM    2  C   UNL     1      -9.790  15.925  67.494  1.00  0.00    -0.230 C  
HETATM    3  N   UNL     1      -9.415  17.037  66.945  1.00  0.00    -0.248 NA 
HETATM    4  N   UNL     1      -8.296  17.458  67.645  1.00  0.00    -0.209 N  
HETATM    5  C   UNL     1      -8.918  15.472  68.616  1.00  0.00    -0.194 C  
HETATM    6  C   UNL     1      -7.935  16.600  68.698  1.00  0.00    -0.236 C  
HETATM    7  O   UNL     1      -7.040  16.667  69.524  1.00  0.00    -0.212 OA 
ENDROOT
BRANCH   4   8
HETATM    8  C   UNL     1      -7.636  18.645  67.233  1.00  0.00    -0.226 A  
HETATM    9  C   UNL     1      -7.554  19.771  68.064  1.00  0.00    -0.334 A  
HETATM   10  C   UNL     1      -6.875  20.923  67.652  1.00  0.00    -0.387 A  
HETATM   11  C   UNL     1      -6.269  20.971  66.401  1.00  0.00    -0.330 A  
HETATM   12  C   UNL     1      -6.345  19.866  65.558  1.00  0.00    -0.266 A  
HETATM   13  C   UNL     1      -7.025  18.715  65.970  1.00  0.00    -0.305 A  
ENDBRANCH   4   8
TORSDOF 1
ENDMDL
MODEL      121
REMARK 921   NORMALIZED FREE ENERGY PREDICTED BY IDOCK:   -3.34 KCAL/MOL
REMARK 922        TOTAL FREE ENERGY PREDICTED BY IDOCK:   -3.68 KCAL/MOL
REMARK 923 INTER-LIGAND FREE ENERGY PREDICTED BY IDOCK:   -3.49 KCAL/MOL
REMARK 924 INTRA-LIGAND FREE ENERGY PREDICTED BY IDOCK:   -0.19 KCAL/MOL
REMARK 927      BINDING AFFINITY PREDICTED BY RF-SCORE:    0.00 PKD
ROOT
HETATM    1  C   UNL     1      -9.772   9.721  65.406  1.00  0.00    -0.383 C  
HETATM    2  C   UNL     1      -9.641   9.038  66.723  1.00  0.00    -0.200 C  
HETATM    3  N   UNL     1     -10.552   9.050  67.645  1.00  0.00    -0.255 NA 
HETATM    4  N   UNL     1     -10.050   8.301  68.697  1.00  0.00    -0.192 N  
HETATM    5  C   UNL     1      -8.405   8.291  67.094  1.00  0.00    -0.123 C  
HETATM    6  C   UNL     1      -8.773   7.768  68.449  1.00  0.00    -0.127 C  
HETATM    7  O   UNL     1      -8.052   7.053  69.125  1.00  0.00    -0.118 OA 
ENDROOT
BRANCH   4   8
HETATM    8  C   UNL     1     -10.825   8.173  69.879  1.00  0.00    -0.215 A  
HETATM    9  C   UNL     1     -11.147   9.283  70.673  1.00  0.00    -0.335 A  
HETATM   10  C   UNL     1     -11.936   9.143  71.820  1.00  0.00    -0.449 A  
HETATM   11  C   UNL     1     -12.414   7.891  72.195  1.00  0.00    -0.304 A  
HETATM   12  C   UNL     1     -12.099   6.776  71.424  1.00  0.00    -0.415 A  
HETATM   13  C   UNL     1     -11.310   6.917  70.278  1.00  0.00    -0.373 A  
ENDBRANCH   4   8
TORSDOF 1
ENDMDL
MODEL      122
REMARK 921   NORMALIZED FREE ENERGY PREDICTED BY IDOCK:   -3.32 KCAL/MOL
REMARK 922        TOTAL FREE ENERGY PREDICTED BY IDOCK:   -3.66 KCAL/MOL
REMARK 923 INTER-LIGAND FREE ENERGY PREDICTED BY IDOCK:   -3.44 KCAL/MOL
REMARK 924 INTRA-LIGAND FREE ENERGY PREDICTED BY IDOCK:   -0.22 KCAL/MOL
REMARK 927      BINDING AFFINITY PREDICTED BY RF-SCORE:    0.00 PKD
ROOT
HETATM    1  C   UNL     1     -10.732   5.375  66.511  1.00  0.00    -0.309 C  
HETATM    2  C   UNL     1     -10.736   6.500  67.487  1.00  0.00    -0.321 C  
HETATM    3  N   UNL     1     -10.559   7.743  67.167  1.00  0.00    -0.343 NA 
HETATM    4  N   UNL     1     -10.643   8.464  68.347  1.00  0.00    -0.155 N  
HETATM    5  C   UNL     1     -10.926   6.265  68.948  1.00  0.00    -0.435 C  
HETATM    6  C   UNL     1     -10.897   7.666  69.476  1.00  0.00    -0.165 C  
HETATM    7  O   UNL     1     -11.056   7.957  70.651  1.00  0.00    -0.254 OA 
ENDROOT
BRANCH   4   8
HETATM    8  C   UNL     1     -10.443   9.868  68.309  1.00  0.00    -0.210 A  
HETATM    9  C   UNL     1     -11.519  10.767  68.307  1.00  0.00    -0.353 A  
HETATM   10  C   UNL     1     -11.303  12.150  68.297  1.00  0.00    -0.343 A  
HETATM   11  C   UNL     1     -10.007  12.657  68.285  1.00  0.00    -0.229 A  
HETATM   12  C   UNL     1      -8.926  11.782  68.279  1.00  0.00    -0.180 A  
HETATM   13  C   UNL     1      -9.143  10.400  68.288  1.00  0.00    -0.145 A  
ENDBRANCH   4   8
TORSDOF 1
ENDMDL
MODEL      123
REMARK 921   NORMALIZED FREE ENERGY PREDICTED BY IDOCK:   -3.31 KCAL/MOL
REMARK 922        TOTAL FREE ENERGY PREDICTED BY IDOCK:   -3.66 KCAL/MOL
REMARK 923 INTER-LIGAND FREE ENERGY PREDICTED BY IDOCK:   -3.44 KCAL/MOL
REMARK 924 INTRA-LIGAND FREE ENERGY PREDICTED BY IDOCK:   -0.22 KCAL/MOL
REMARK 927      BINDING AFFINITY PREDICTED BY RF-SCORE:    0.00 PKD
ROOT
HETATM    1  C   UNL     1     -12.232  11.929  70.470  1.00  0.00    -0.426 C  
HETATM    2  C   UNL     1     -11.589  10.863  69.653  1.00  0.00    -0.322 C  
HETATM    3  N   UNL     1     -11.186   9.725  70.125  1.00  0.00    -0.260 NA 
HETATM    4  N   UNL     1     -10.660   9.024  69.052  1.00  0.00    -0.215 N  
HETATM    5  C   UNL     1     -11.333  11.046  68.195  1.00  0.00    -0.374 C  
HETATM    6  C   UNL     1     -10.733   9.722  67.834  1.00  0.00    -0.258 C  
HETATM    7  O   UNL     1     -10.398   9.410  66.703  1.00  0.00    -0.249 OA 
ENDROOT
BRANCH   4   8
HETATM    8  C   UNL     1     -10.097   7.742  69.280  1.00  0.00    -0.199 A  
HETATM    9  C   UNL     1      -8.713   7.522  69.223  1.00  0.00    -0.136 A  
HETATM   10  C   UNL     1      -8.173   6.257  69.479  1.00  0.00    -0.117 A  
HETATM   11  C   UNL     1      -9.007   5.189  69.794  1.00  0.00    -0.141 A  
HETATM   12  C   UNL     1     -10.384   5.384  69.849  1.00  0.00    -0.377 A  
HETATM   13  C   UNL     1     -10.923   6.649  69.592  1.00  0.00    -0.367 A  
ENDBRANCH   4   8
TORSDOF 1
ENDMDL
MODEL      124
REMARK 921   NORMALIZED FREE ENERGY PREDICTED BY IDOCK:   -3.29 KCAL/MOL
REMARK 922        TOTAL FREE ENERGY PREDICTED BY IDOCK:   -3.63 KCAL/MOL
REMARK 923 INTER-LIGAND FREE ENERGY PREDICTED BY IDOCK:   -3.42 KCAL/MOL
REMARK 924 INTRA-LIGAND FREE ENERGY PREDICTED BY IDOCK:   -0.21 KCAL/MOL
REMARK 927      BINDING AFFINITY PREDICTED BY RF-SCORE:    0.00 PKD
ROOT
HETATM    1  C   UNL     1     -10.636   9.372  67.957  1.00  0.00    -0.278 C  
HETATM    2  C   UNL     1     -10.340   8.779  69.291  1.00  0.00    -0.214 C  
HETATM    3  N   UNL     1     -10.607   7.554  69.620  1.00  0.00    -0.237 NA 
HETATM    4  N   UNL     1     -10.173   7.400  70.927  1.00  0.00    -0.193 N  
HETATM    5  C   UNL     1      -9.720   9.585  70.382  1.00  0.00    -0.328 C  
HETATM    6  C   UNL     1      -9.590   8.560  71.467  1.00  0.00    -0.228 C  
HETATM    7  O   UNL     1      -9.086   8.778  72.556  1.00  0.00    -0.367 OA 
ENDROOT
BRANCH   4   8
HETATM    8  C   UNL     1     -10.377   6.154  71.574  1.00  0.00    -0.209 A  
HETATM    9  C   UNL     1      -9.682   4.999  71.189  1.00  0.00    -0.241 A  
HETATM   10  C   UNL     1      -9.876   3.785  71.857  1.00  0.00    -0.248 A  
HETATM   11  C   UNL     1     -10.770   3.703  72.920  1.00  0.00    -0.192 A  
HETATM   12  C   UNL     1     -11.475   4.836  73.313  1.00  0.00    -0.361 A  
HETATM   13  C   UNL     1     -11.282   6.050  72.645  1.00  0.00    -0.326 A  
ENDBRANCH   4   8
TORSDOF 1
ENDMDL
MODEL      125
REMARK 921   NORMALIZED FREE ENERGY PREDICTED BY IDOCK:   -3.28 KCAL/MOL
REMARK 922        TOTAL FREE ENERGY PREDICTED BY IDOCK:   -3.62 KCAL/MOL
REMARK 923 INTER-LIGAND FREE ENERGY PREDICTED BY IDOCK:   -3.70 KCAL/MOL
REMARK 924 INTRA-LIGAND FREE ENERGY PREDICTED BY IDOCK:    0.08 KCAL/MOL
REMARK 927      BINDING AFFINITY PREDICTED BY RF-SCORE:    0.00 PKD
ROOT
HETATM    1  C   UNL     1     -10.606  16.204  66.947  1.00  0.00    -0.283 C  
HETATM    2  C   UNL     1     -10.799  14.824  66.422  1.00  0.00    -0.322 C  
HETATM    3  N   UNL     1      -9.909  13.886  66.492  1.00  0.00    -0.282 NA 
HETATM    4  N   UNL     1     -10.477  12.767  65.903  1.00  0.00    -0.271 N  
HETATM    5  C   UNL     1     -12.061  14.422  65.735  1.00  0.00    -0.362 C  
HETATM    6  C   UNL     1     -11.789  12.977  65.445  1.00  0.00    -0.388 C  
HETATM    7  O   UNL     1     -12.588  12.226  64.911  1.00  0.00    -0.547 OA 
ENDROOT
BRANCH   4   8
HETATM    8  C   UNL     1      -9.705  11.581  65.798  1.00  0.00    -0.235 A  
HETATM    9  C   UNL     1     -10.093  10.518  64.970  1.00  0.00    -0.390 A  
HETATM   10  C   UNL     1      -9.304   9.368  64.857  1.00  0.00    -0.218 A  
HETATM   11  C   UNL     1      -8.116   9.259  65.572  1.00  0.00    -0.113 A  
HETATM   12  C   UNL     1      -7.716  10.300  66.405  1.00  0.00    -0.116 A  
HETATM   13  C   UNL     1      -8.506  11.449  66.518  1.00  0.00    -0.170 A  
ENDBRANCH   4   8
TORSDOF 1
ENDMDL
MODEL      126
REMARK 921   NORMALIZED FREE ENERGY PREDICTED BY IDOCK:   -3.26 KCAL/MOL
REMARK 922        TOTAL FREE ENERGY PREDICTED BY IDOCK:   -3.61 KCAL/MOL
REMARK 923 INTER-LIGAND FREE ENERGY PREDICTED BY IDOCK:   -3.40 KCAL/MOL
REMARK 924 INTRA-LIGAND FREE ENERGY PREDICTED BY IDOCK:   -0.21 KCAL/MOL
REMARK 927      BINDING AFFINITY PREDICTED BY RF-SCORE:    0.00 PKD
ROOT
HETATM    1  C   UNL     1     -12.065  13.969  69.765  1.00  0.00    -0.405 C  
HETATM    2  C   UNL     1     -11.046  14.603  68.883  1.00  0.00    -0.254 C  
HETATM    3  N   UNL     1     -10.176  15.475  69.285  1.00  0.00    -0.235 NA 
HETATM    4  N   UNL     1      -9.417  15.806  68.173  1.00  0.00    -0.198 N  
HETATM    5  C   UNL     1     -10.970  14.288  67.427  1.00  0.00    -0.301 C  
HETATM    6  C   UNL     1      -9.795  15.116  67.008  1.00  0.00    -0.230 C  
HETATM    7  O   UNL     1      -9.341  15.136  65.876  1.00  0.00    -0.317 OA 
ENDROOT
BRANCH   4   8
HETATM    8  C   UNL     1      -8.399  16.785  68.306  1.00  0.00    -0.213 A  
HETATM    9  C   UNL     1      -7.040  16.458  68.192  1.00  0.00    -0.145 A  
HETATM   10  C   UNL     1      -6.051  17.442  68.298  1.00  0.00    -0.161 A  
HETATM   11  C   UNL     1      -6.402  18.769  68.522  1.00  0.00    -0.241 A  
HETATM   12  C   UNL     1      -7.744  19.114  68.646  1.00  0.00    -0.387 A  
HETATM   13  C   UNL     1      -8.733  18.130  68.541  1.00  0.00    -0.309 A  
ENDBRANCH   4   8
TORSDOF 1
ENDMDL
MODEL      127
REMARK 921   NORMALIZED FREE ENERGY PREDICTED BY IDOCK:   -3.24 KCAL/MOL
REMARK 922        TOTAL FREE ENERGY PREDICTED BY IDOCK:   -3.58 KCAL/MOL
REMARK 923 INTER-LIGAND FREE ENERGY PREDICTED BY IDOCK:   -3.38 KCAL/MOL
REMARK 924 INTRA-LIGAND FREE ENERGY PREDICTED BY IDOCK:   -0.20 KCAL/MOL
REMARK 927      BINDING AFFINITY PREDICTED BY RF-SCORE:    0.00 PKD
ROOT
HETATM    1  C   UNL     1     -10.951  12.669  63.869  1.00  0.00    -0.468 C  
HETATM    2  C   UNL     1     -10.473  11.587  64.774  1.00  0.00    -0.299 C  
HETATM    3  N   UNL     1     -10.574  11.618  66.065  1.00  0.00    -0.250 NA 
HETATM    4  N   UNL     1     -10.024  10.433  66.526  1.00  0.00    -0.209 N  
HETATM    5  C   UNL     1      -9.802  10.366  64.241  1.00  0.00    -0.388 C  
HETATM    6  C   UNL     1      -9.561   9.591  65.500  1.00  0.00    -0.279 C  
HETATM    7  O   UNL     1      -9.054   8.482  65.534  1.00  0.00    -0.175 OA 
ENDROOT
BRANCH   4   8
HETATM    8  C   UNL     1      -9.959  10.207  67.925  1.00  0.00    -0.162 A  
HETATM    9  C   UNL     1     -11.113  10.014  68.697  1.00  0.00    -0.223 A  
HETATM   10  C   UNL     1     -11.028   9.765  70.072  1.00  0.00    -0.319 A  
HETATM   11  C   UNL     1      -9.787   9.706  70.699  1.00  0.00    -0.268 A  
HETATM   12  C   UNL     1      -8.630   9.902  69.952  1.00  0.00    -0.216 A  
HETATM   13  C   UNL     1      -8.716  10.152  68.578  1.00  0.00    -0.123 A  
ENDBRANCH   4   8
TORSDOF 1
ENDMDL
MODEL      128
REMARK 921   NORMALIZED FREE ENERGY PREDICTED BY IDOCK:   -3.23 KCAL/MOL
REMARK 922        TOTAL FREE ENERGY PREDICTED BY IDOCK:   -3.57 KCAL/MOL
REMARK 923 INTER-LIGAND FREE ENERGY PREDICTED BY IDOCK:   -3.46 KCAL/MOL
REMARK 924 INTRA-LIGAND FREE ENERGY PREDICTED BY IDOCK:   -0.11 KCAL/MOL
REMARK 927      BINDING AFFINITY PREDICTED BY RF-SCORE:    0.00 PKD
ROOT
HETATM    1  C   UNL     1     -11.645  14.992  69.351  1.00  0.00    -0.337 C  
HETATM    2  C   UNL     1     -11.501  13.853  68.403  1.00  0.00    -0.311 C  
HETATM    3  N   UNL     1     -10.789  12.796  68.635  1.00  0.00    -0.249 NA 
HETATM    4  N   UNL     1     -10.924  11.984  67.520  1.00  0.00    -0.240 N  
HETATM    5  C   UNL     1     -12.167  13.861  67.068  1.00  0.00    -0.392 C  
HETATM    6  C   UNL     1     -11.766  12.522  66.531  1.00  0.00    -0.391 C  
HETATM    7  O   UNL     1     -12.127  12.082  65.452  1.00  0.00    -0.444 OA 
ENDROOT
BRANCH   4   8
HETATM    8  C   UNL     1     -10.211  10.758  67.474  1.00  0.00    -0.196 A  
HETATM    9  C   UNL     1      -8.849  10.684  67.800  1.00  0.00    -0.133 A  
HETATM   10  C   UNL     1      -8.168   9.462  67.776  1.00  0.00    -0.114 A  
HETATM   11  C   UNL     1      -8.835   8.293  67.424  1.00  0.00    -0.135 A  
HETATM   12  C   UNL     1     -10.185   8.346  67.091  1.00  0.00    -0.362 A  
HETATM   13  C   UNL     1     -10.865   9.568  67.114  1.00  0.00    -0.156 A  
ENDBRANCH   4   8
TORSDOF 1
ENDMDL
MODEL      129
REMARK 921   NORMALIZED FREE ENERGY PREDICTED BY IDOCK:   -3.22 KCAL/MOL
REMARK 922        TOTAL FREE ENERGY PREDICTED BY IDOCK:   -3.56 KCAL/MOL
REMARK 923 INTER-LIGAND FREE ENERGY PREDICTED BY IDOCK:   -3.34 KCAL/MOL
REMARK 924 INTRA-LIGAND FREE ENERGY PREDICTED BY IDOCK:   -0.22 KCAL/MOL
REMARK 927      BINDING AFFINITY PREDICTED BY RF-SCORE:    0.00 PKD
ROOT
HETATM    1  C   UNL     1     -13.814   9.425  72.516  1.00  0.00    -0.385 C  
HETATM    2  C   UNL     1     -12.843   9.843  71.467  1.00  0.00    -0.421 C  
HETATM    3  N   UNL     1     -11.901   9.085  71.001  1.00  0.00    -0.287 NA 
HETATM    4  N   UNL     1     -11.233   9.837  70.048  1.00  0.00    -0.251 N  
HETATM    5  C   UNL     1     -12.871  11.215  70.880  1.00  0.00    -0.374 C  
HETATM    6  C   UNL     1     -11.764  11.127  69.874  1.00  0.00    -0.355 C  
HETATM    7  O   UNL     1     -11.453  12.034  69.120  1.00  0.00    -0.256 OA 
ENDROOT
BRANCH   4   8
HETATM    8  C   UNL     1     -10.110   9.270  69.391  1.00  0.00    -0.197 A  
HETATM    9  C   UNL     1      -8.798   9.640  69.718  1.00  0.00    -0.224 A  
HETATM   10  C   UNL     1      -7.702   9.049  69.079  1.00  0.00    -0.089 A  
HETATM   11  C   UNL     1      -7.899   8.081  68.099  1.00  0.00    -0.126 A  
HETATM   12  C   UNL     1      -9.194   7.705  67.755  1.00  0.00    -0.141 A  
HETATM   13  C   UNL     1     -10.289   8.297  68.393  1.00  0.00    -0.237 A  
ENDBRANCH   4   8
TORSDOF 1
ENDMDL
MODEL      130
REMARK 921   NORMALIZED FREE ENERGY PREDICTED BY IDOCK:   -3.19 KCAL/MOL
REMARK 922        TOTAL FREE ENERGY PREDICTED BY IDOCK:   -3.53 KCAL/MOL
REMARK 923 INTER-LIGAND FREE ENERGY PREDICTED BY IDOCK:   -3.37 KCAL/MOL
REMARK 924 INTRA-LIGAND FREE ENERGY PREDICTED BY IDOCK:   -0.17 KCAL/MOL
REMARK 927      BINDING AFFINITY PREDICTED BY RF-SCORE:    0.00 PKD
ROOT
HETATM    1  C   UNL     1     -13.160  10.351  71.915  1.00  0.00    -0.563 C  
HETATM    2  C   UNL     1     -12.046   9.549  71.339  1.00  0.00    -0.378 C  
HETATM    3  N   UNL     1     -11.534   9.748  70.165  1.00  0.00    -0.238 NA 
HETATM    4  N   UNL     1     -10.529   8.806  70.015  1.00  0.00    -0.207 N  
HETATM    5  C   UNL     1     -11.438   8.409  72.086  1.00  0.00    -0.442 C  
HETATM    6  C   UNL     1     -10.367   7.972  71.135  1.00  0.00    -0.197 C  
HETATM    7  O   UNL     1      -9.580   7.068  71.362  1.00  0.00    -0.163 OA 
ENDROOT
BRANCH   4   8
HETATM    8  C   UNL     1      -9.812   8.758  68.791  1.00  0.00    -0.171 A  
HETATM    9  C   UNL     1     -10.462   8.578  67.562  1.00  0.00    -0.328 A  
HETATM   10  C   UNL     1      -9.742   8.561  66.362  1.00  0.00    -0.328 A  
HETATM   11  C   UNL     1      -8.360   8.720  66.370  1.00  0.00    -0.117 A  
HETATM   12  C   UNL     1      -7.695   8.892  67.581  1.00  0.00    -0.101 A  
HETATM   13  C   UNL     1      -8.415   8.908  68.780  1.00  0.00    -0.131 A  
ENDBRANCH   4   8
TORSDOF 1
ENDMDL
MODEL      131
REMARK 921   NORMALIZED FREE ENERGY PREDICTED BY IDOCK:   -3.18 KCAL/MOL
REMARK 922        TOTAL FREE ENERGY PREDICTED BY IDOCK:   -3.52 KCAL/MOL
REMARK 923 INTER-LIGAND FREE ENERGY PREDICTED BY IDOCK:   -3.32 KCAL/MOL
REMARK 924 INTRA-LIGAND FREE ENERGY PREDICTED BY IDOCK:   -0.19 KCAL/MOL
REMARK 927      BINDING AFFINITY PREDICTED BY RF-SCORE:    0.00 PKD
ROOT
HETATM    1  C   UNL     1      -6.247   7.293  65.703  1.00  0.00    -0.038 C  
HETATM    2  C   UNL     1      -7.634   7.782  65.935  1.00  0.00    -0.090 C  
HETATM    3  N   UNL     1      -8.078   8.933  65.537  1.00  0.00    -0.107 NA 
HETATM    4  N   UNL     1      -9.402   8.998  65.940  1.00  0.00    -0.229 N  
HETATM    5  C   UNL     1      -8.632   6.967  66.686  1.00  0.00    -0.124 C  
HETATM    6  C   UNL     1      -9.844   7.845  66.611  1.00  0.00    -0.241 C  
HETATM    7  O   UNL     1     -10.933   7.547  67.074  1.00  0.00    -0.306 OA 
ENDROOT
BRANCH   4   8
HETATM    8  C   UNL     1     -10.142  10.179  65.674  1.00  0.00    -0.254 A  
HETATM    9  C   UNL     1     -10.669  10.968  66.706  1.00  0.00    -0.319 A  
HETATM   10  C   UNL     1     -11.372  12.145  66.426  1.00  0.00    -0.411 A  
HETATM   11  C   UNL     1     -11.563  12.553  65.110  1.00  0.00    -0.395 A  
HETATM   12  C   UNL     1     -11.054  11.780  64.070  1.00  0.00    -0.461 A  
HETATM   13  C   UNL     1     -10.352  10.603  64.351  1.00  0.00    -0.347 A  
ENDBRANCH   4   8
TORSDOF 1
ENDMDL
MODEL      132
REMARK 921   NORMALIZED FREE ENERGY PREDICTED BY IDOCK:   -3.18 KCAL/MOL
REMARK 922        TOTAL FREE ENERGY PREDICTED BY IDOCK:   -3.51 KCAL/MOL
REMARK 923 INTER-LIGAND FREE ENERGY PREDICTED BY IDOCK:   -3.34 KCAL/MOL
REMARK 924 INTRA-LIGAND FREE ENERGY PREDICTED BY IDOCK:   -0.17 KCAL/MOL
REMARK 927      BINDING AFFINITY PREDICTED BY RF-SCORE:    0.00 PKD
ROOT
HETATM    1  C   UNL     1      -9.478  12.889  66.800  1.00  0.00    -0.245 C  
HETATM    2  C   UNL     1      -9.512  14.267  67.364  1.00  0.00    -0.211 C  
HETATM    3  N   UNL     1      -8.712  15.221  67.007  1.00  0.00    -0.216 NA 
HETATM    4  N   UNL     1      -9.074  16.331  67.754  1.00  0.00    -0.194 N  
HETATM    5  C   UNL     1     -10.483  14.649  68.430  1.00  0.00    -0.243 C  
HETATM    6  C   UNL     1     -10.157  16.098  68.619  1.00  0.00    -0.231 C  
HETATM    7  O   UNL     1     -10.748  16.837  69.390  1.00  0.00    -0.326 OA 
ENDROOT
BRANCH   4   8
HETATM    8  C   UNL     1      -8.331  17.531  67.602  1.00  0.00    -0.214 A  
HETATM    9  C   UNL     1      -8.244  18.195  66.371  1.00  0.00    -0.282 A  
HETATM   10  C   UNL     1      -7.531  19.392  66.246  1.00  0.00    -0.285 A  
HETATM   11  C   UNL     1      -6.889  19.945  67.350  1.00  0.00    -0.253 A  
HETATM   12  C   UNL     1      -6.957  19.298  68.580  1.00  0.00    -0.329 A  
HETATM   13  C   UNL     1      -7.670  18.100  68.703  1.00  0.00    -0.309 A  
ENDBRANCH   4   8
TORSDOF 1
ENDMDL
MODEL      133
REMARK 921   NORMALIZED FREE ENERGY PREDICTED BY IDOCK:   -3.17 KCAL/MOL
REMARK 922        TOTAL FREE ENERGY PREDICTED BY IDOCK:   -3.50 KCAL/MOL
REMARK 923 INTER-LIGAND FREE ENERGY PREDICTED BY IDOCK:   -3.29 KCAL/MOL
REMARK 924 INTRA-LIGAND FREE ENERGY PREDICTED BY IDOCK:   -0.21 KCAL/MOL
REMARK 927      BINDING AFFINITY PREDICTED BY RF-SCORE:    0.00 PKD
ROOT
HETATM    1  C   UNL     1     -14.034   8.792  71.574  1.00  0.00    -0.391 C  
HETATM    2  C   UNL     1     -12.548   8.730  71.653  1.00  0.00    -0.345 C  
HETATM    3  N   UNL     1     -11.890   7.867  72.360  1.00  0.00    -0.349 NA 
HETATM    4  N   UNL     1     -10.547   8.141  72.156  1.00  0.00    -0.266 N  
HETATM    5  C   UNL     1     -11.688   9.705  70.920  1.00  0.00    -0.412 C  
HETATM    6  C   UNL     1     -10.318   9.211  71.275  1.00  0.00    -0.334 C  
HETATM    7  O   UNL     1      -9.285   9.702  70.853  1.00  0.00    -0.167 OA 
ENDROOT
BRANCH   4   8
HETATM    8  C   UNL     1      -9.578   7.369  72.849  1.00  0.00    -0.176 A  
HETATM    9  C   UNL     1      -8.777   7.922  73.857  1.00  0.00    -0.332 A  
HETATM   10  C   UNL     1      -7.845   7.140  74.548  1.00  0.00    -0.165 A  
HETATM   11  C   UNL     1      -7.697   5.791  74.242  1.00  0.00    -0.094 A  
HETATM   12  C   UNL     1      -8.478   5.224  73.239  1.00  0.00    -0.117 A  
HETATM   13  C   UNL     1      -9.408   6.007  72.548  1.00  0.00    -0.143 A  
ENDBRANCH   4   8
TORSDOF 1
ENDMDL
MODEL      134
REMARK 921   NORMALIZED FREE ENERGY PREDICTED BY IDOCK:   -3.14 KCAL/MOL
REMARK 922        TOTAL FREE ENERGY PREDICTED BY IDOCK:   -3.48 KCAL/MOL
REMARK 923 INTER-LIGAND FREE ENERGY PREDICTED BY IDOCK:   -3.61 KCAL/MOL
REMARK 924 INTRA-LIGAND FREE ENERGY PREDICTED BY IDOCK:    0.14 KCAL/MOL
REMARK 927      BINDING AFFINITY PREDICTED BY RF-SCORE:    0.00 PKD
ROOT
HETATM    1  C   UNL     1     -10.749   9.843  69.620  1.00  0.00    -0.277 C  
HETATM    2  C   UNL     1     -10.602  10.658  68.382  1.00  0.00    -0.199 C  
HETATM    3  N   UNL     1     -10.646  11.952  68.352  1.00  0.00    -0.211 NA 
HETATM    4  N   UNL     1     -10.461  12.316  67.028  1.00  0.00    -0.215 N  
HETATM    5  C   UNL     1     -10.411  10.020  67.047  1.00  0.00    -0.302 C  
HETATM    6  C   UNL     1     -10.275  11.222  66.164  1.00  0.00    -0.245 C  
HETATM    7  O   UNL     1     -10.062  11.168  64.964  1.00  0.00    -0.248 OA 
ENDROOT
BRANCH   4   8
HETATM    8  C   UNL     1     -10.505  13.691  66.682  1.00  0.00    -0.272 A  
HETATM    9  C   UNL     1     -10.725  14.687  67.644  1.00  0.00    -0.271 A  
HETATM   10  C   UNL     1     -10.737  16.041  67.290  1.00  0.00    -0.295 A  
HETATM   11  C   UNL     1     -10.533  16.423  65.968  1.00  0.00    -0.333 A  
HETATM   12  C   UNL     1     -10.320  15.449  64.997  1.00  0.00    -0.362 A  
HETATM   13  C   UNL     1     -10.309  14.096  65.351  1.00  0.00    -0.384 A  
ENDBRANCH   4   8
TORSDOF 1
ENDMDL
MODEL      135
REMARK 921   NORMALIZED FREE ENERGY PREDICTED BY IDOCK:   -3.13 KCAL/MOL
REMARK 922        TOTAL FREE ENERGY PREDICTED BY IDOCK:   -3.46 KCAL/MOL
REMARK 923 INTER-LIGAND FREE ENERGY PREDICTED BY IDOCK:   -3.33 KCAL/MOL
REMARK 924 INTRA-LIGAND FREE ENERGY PREDICTED BY IDOCK:   -0.13 KCAL/MOL
REMARK 927      BINDING AFFINITY PREDICTED BY RF-SCORE:    0.00 PKD
ROOT
HETATM    1  C   UNL     1     -11.282  14.818  64.917  1.00  0.00    -0.411 C  
HETATM    2  C   UNL     1     -10.582  13.940  65.895  1.00  0.00    -0.293 C  
HETATM    3  N   UNL     1     -10.901  12.705  66.125  1.00  0.00    -0.268 NA 
HETATM    4  N   UNL     1     -10.012  12.247  67.085  1.00  0.00    -0.204 N  
HETATM    5  C   UNL     1      -9.446  14.443  66.721  1.00  0.00    -0.280 C  
HETATM    6  C   UNL     1      -9.070  13.211  67.485  1.00  0.00    -0.205 C  
HETATM    7  O   UNL     1      -8.141  13.152  68.273  1.00  0.00    -0.142 OA 
ENDROOT
BRANCH   4   8
HETATM    8  C   UNL     1     -10.150  10.921  67.569  1.00  0.00    -0.184 A  
HETATM    9  C   UNL     1     -10.205   9.820  66.702  1.00  0.00    -0.296 A  
HETATM   10  C   UNL     1     -10.314   8.516  67.199  1.00  0.00    -0.377 A  
HETATM   11  C   UNL     1     -10.372   8.290  68.570  1.00  0.00    -0.230 A  
HETATM   12  C   UNL     1     -10.327   9.370  69.447  1.00  0.00    -0.222 A  
HETATM   13  C   UNL     1     -10.220  10.673  68.950  1.00  0.00    -0.216 A  
ENDBRANCH   4   8
TORSDOF 1
ENDMDL
MODEL      136
REMARK 921   NORMALIZED FREE ENERGY PREDICTED BY IDOCK:   -3.12 KCAL/MOL
REMARK 922        TOTAL FREE ENERGY PREDICTED BY IDOCK:   -3.45 KCAL/MOL
REMARK 923 INTER-LIGAND FREE ENERGY PREDICTED BY IDOCK:   -3.23 KCAL/MOL
REMARK 924 INTRA-LIGAND FREE ENERGY PREDICTED BY IDOCK:   -0.22 KCAL/MOL
REMARK 927      BINDING AFFINITY PREDICTED BY RF-SCORE:    0.00 PKD
ROOT
HETATM    1  C   UNL     1      -9.222   8.783  69.567  1.00  0.00    -0.149 C  
HETATM    2  C   UNL     1      -9.885   9.953  68.927  1.00  0.00    -0.176 C  
HETATM    3  N   UNL     1      -9.704  11.183  69.291  1.00  0.00    -0.029 NA 
HETATM    4  N   UNL     1     -10.486  11.956  68.449  1.00  0.00    -0.211 N  
HETATM    5  C   UNL     1     -10.852   9.783  67.804  1.00  0.00    -0.306 C  
HETATM    6  C   UNL     1     -11.192  11.208  67.492  1.00  0.00    -0.301 C  
HETATM    7  O   UNL     1     -11.941  11.550  66.591  1.00  0.00    -0.428 OA 
ENDROOT
BRANCH   4   8
HETATM    8  C   UNL     1     -10.520  13.362  68.644  1.00  0.00    -0.225 A  
HETATM    9  C   UNL     1      -9.462  14.189  68.243  1.00  0.00    -0.211 A  
HETATM   10  C   UNL     1      -9.524  15.576  68.417  1.00  0.00    -0.196 A  
HETATM   11  C   UNL     1     -10.645  16.160  68.999  1.00  0.00    -0.273 A  
HETATM   12  C   UNL     1     -11.704  15.356  69.410  1.00  0.00    -0.369 A  
HETATM   13  C   UNL     1     -11.640  13.969  69.236  1.00  0.00    -0.356 A  
ENDBRANCH   4   8
TORSDOF 1
ENDMDL
MODEL      137
REMARK 921   NORMALIZED FREE ENERGY PREDICTED BY IDOCK:   -3.11 KCAL/MOL
REMARK 922        TOTAL FREE ENERGY PREDICTED BY IDOCK:   -3.44 KCAL/MOL
REMARK 923 INTER-LIGAND FREE ENERGY PREDICTED BY IDOCK:   -3.55 KCAL/MOL
REMARK 924 INTRA-LIGAND FREE ENERGY PREDICTED BY IDOCK:    0.11 KCAL/MOL
REMARK 927      BINDING AFFINITY PREDICTED BY RF-SCORE:    0.00 PKD
ROOT
HETATM    1  C   UNL     1     -11.928  10.428  71.115  1.00  0.00    -0.460 C  
HETATM    2  C   UNL     1     -11.652  10.646  69.668  1.00  0.00    -0.296 C  
HETATM    3  N   UNL     1     -10.907   9.872  68.943  1.00  0.00    -0.221 NA 
HETATM    4  N   UNL     1     -10.913  10.412  67.667  1.00  0.00    -0.307 N  
HETATM    5  C   UNL     1     -12.211  11.819  68.936  1.00  0.00    -0.091 C  
HETATM    6  C   UNL     1     -11.700  11.571  67.550  1.00  0.00    -0.184 C  
HETATM    7  O   UNL     1     -11.952  12.282  66.591  1.00  0.00    -0.598 OA 
ENDROOT
BRANCH   4   8
HETATM    8  C   UNL     1     -10.135   9.790  66.656  1.00  0.00    -0.237 A  
HETATM    9  C   UNL     1      -9.626   8.493  66.810  1.00  0.00    -0.273 A  
HETATM   10  C   UNL     1      -8.885   7.883  65.791  1.00  0.00    -0.155 A  
HETATM   11  C   UNL     1      -8.638   8.561  64.601  1.00  0.00    -0.082 A  
HETATM   12  C   UNL     1      -9.129   9.853  64.432  1.00  0.00    -0.299 A  
HETATM   13  C   UNL     1      -9.868  10.461  65.451  1.00  0.00    -0.347 A  
ENDBRANCH   4   8
TORSDOF 1
ENDMDL
MODEL      138
REMARK 921   NORMALIZED FREE ENERGY PREDICTED BY IDOCK:   -3.06 KCAL/MOL
REMARK 922        TOTAL FREE ENERGY PREDICTED BY IDOCK:   -3.39 KCAL/MOL
REMARK 923 INTER-LIGAND FREE ENERGY PREDICTED BY IDOCK:   -3.23 KCAL/MOL
REMARK 924 INTRA-LIGAND FREE ENERGY PREDICTED BY IDOCK:   -0.16 KCAL/MOL
REMARK 927      BINDING AFFINITY PREDICTED BY RF-SCORE:    0.00 PKD
ROOT
HETATM    1  C   UNL     1      -6.732   9.674  65.103  1.00  0.00    -0.094 C  
HETATM    2  C   UNL     1      -7.970   9.411  65.887  1.00  0.00    -0.106 C  
HETATM    3  N   UNL     1      -8.528  10.270  66.680  1.00  0.00    -0.123 NA 
HETATM    4  N   UNL     1      -9.648   9.645  67.204  1.00  0.00    -0.161 N  
HETATM    5  C   UNL     1      -8.663   8.090  65.830  1.00  0.00    -0.175 C  
HETATM    6  C   UNL     1      -9.838   8.337  66.725  1.00  0.00    -0.263 C  
HETATM    7  O   UNL     1     -10.714   7.516  66.944  1.00  0.00    -0.352 OA 
ENDROOT
BRANCH   4   8
HETATM    8  C   UNL     1     -10.442  10.342  68.151  1.00  0.00    -0.190 A  
HETATM    9  C   UNL     1     -10.726   9.805  69.415  1.00  0.00    -0.250 A  
HETATM   10  C   UNL     1     -11.487  10.520  70.347  1.00  0.00    -0.427 A  
HETATM   11  C   UNL     1     -11.981  11.781  70.030  1.00  0.00    -0.421 A  
HETATM   12  C   UNL     1     -11.717  12.329  68.778  1.00  0.00    -0.390 A  
HETATM   13  C   UNL     1     -10.957  11.614  67.847  1.00  0.00    -0.277 A  
ENDBRANCH   4   8
TORSDOF 1
ENDMDL
MODEL      139
REMARK 921   NORMALIZED FREE ENERGY PREDICTED BY IDOCK:   -3.06 KCAL/MOL
REMARK 922        TOTAL FREE ENERGY PREDICTED BY IDOCK:   -3.39 KCAL/MOL
REMARK 923 INTER-LIGAND FREE ENERGY PREDICTED BY IDOCK:   -3.35 KCAL/MOL
REMARK 924 INTRA-LIGAND FREE ENERGY PREDICTED BY IDOCK:   -0.04 KCAL/MOL
REMARK 927      BINDING AFFINITY PREDICTED BY RF-SCORE:    0.00 PKD
ROOT
HETATM    1  C   UNL     1      -9.822   4.684  70.808  1.00  0.00    -0.284 C  
HETATM    2  C   UNL     1     -10.330   6.058  70.544  1.00  0.00    -0.221 C  
HETATM    3  N   UNL     1     -10.025   6.760  69.498  1.00  0.00    -0.160 NA 
HETATM    4  N   UNL     1     -10.702   7.963  69.627  1.00  0.00    -0.240 N  
HETATM    5  C   UNL     1     -11.232   6.755  71.507  1.00  0.00    -0.300 C  
HETATM    6  C   UNL     1     -11.487   8.045  70.790  1.00  0.00    -0.263 C  
HETATM    7  O   UNL     1     -12.222   8.925  71.207  1.00  0.00    -0.298 OA 
ENDROOT
BRANCH   4   8
HETATM    8  C   UNL     1     -10.521   8.960  68.634  1.00  0.00    -0.193 A  
HETATM    9  C   UNL     1     -10.514  10.326  68.952  1.00  0.00    -0.231 A  
HETATM   10  C   UNL     1     -10.307  11.294  67.963  1.00  0.00    -0.204 A  
HETATM   11  C   UNL     1     -10.106  10.915  66.640  1.00  0.00    -0.264 A  
HETATM   12  C   UNL     1     -10.117   9.565  66.303  1.00  0.00    -0.327 A  
HETATM   13  C   UNL     1     -10.325   8.597  67.291  1.00  0.00    -0.366 A  
ENDBRANCH   4   8
TORSDOF 1
ENDMDL
MODEL      140
REMARK 921   NORMALIZED FREE ENERGY PREDICTED BY IDOCK:   -3.04 KCAL/MOL
REMARK 922        TOTAL FREE ENERGY PREDICTED BY IDOCK:   -3.37 KCAL/MOL
REMARK 923 INTER-LIGAND FREE ENERGY PREDICTED BY IDOCK:   -3.15 KCAL/MOL
REMARK 924 INTRA-LIGAND FREE ENERGY PREDICTED BY IDOCK:   -0.22 KCAL/MOL
REMARK 927      BINDING AFFINITY PREDICTED BY RF-SCORE:    0.00 PKD
ROOT
HETATM    1  C   UNL     1     -11.676  10.788  70.004  1.00  0.00    -0.417 C  
HETATM    2  C   UNL     1     -11.277   9.460  70.546  1.00  0.00    -0.275 C  
HETATM    3  N   UNL     1     -10.572   8.588  69.896  1.00  0.00    -0.227 NA 
HETATM    4  N   UNL     1     -10.416   7.504  70.745  1.00  0.00    -0.211 N  
HETATM    5  C   UNL     1     -11.695   9.016  71.908  1.00  0.00    -0.445 C  
HETATM    6  C   UNL     1     -11.028   7.678  71.998  1.00  0.00    -0.246 C  
HETATM    7  O   UNL     1     -11.071   6.958  72.982  1.00  0.00    -0.271 OA 
ENDROOT
BRANCH   4   8
HETATM    8  C   UNL     1      -9.712   6.364  70.278  1.00  0.00    -0.167 A  
HETATM    9  C   UNL     1     -10.367   5.159  69.987  1.00  0.00    -0.347 A  
HETATM   10  C   UNL     1      -9.660   4.054  69.501  1.00  0.00    -0.265 A  
HETATM   11  C   UNL     1      -8.286   4.133  69.299  1.00  0.00    -0.083 A  
HETATM   12  C   UNL     1      -7.616   5.317  69.589  1.00  0.00    -0.069 A  
HETATM   13  C   UNL     1      -8.323   6.422  70.076  1.00  0.00    -0.130 A  
ENDBRANCH   4   8
TORSDOF 1
ENDMDL
MODEL      141
REMARK 921   NORMALIZED FREE ENERGY PREDICTED BY IDOCK:   -2.99 KCAL/MOL
REMARK 922        TOTAL FREE ENERGY PREDICTED BY IDOCK:   -3.32 KCAL/MOL
REMARK 923 INTER-LIGAND FREE ENERGY PREDICTED BY IDOCK:   -3.20 KCAL/MOL
REMARK 924 INTRA-LIGAND FREE ENERGY PREDICTED BY IDOCK:   -0.12 KCAL/MOL
REMARK 927      BINDING AFFINITY PREDICTED BY RF-SCORE:    0.00 PKD
ROOT
HETATM    1  C   UNL     1     -10.307  13.569  67.586  1.00  0.00    -0.239 C  
HETATM    2  C   UNL     1     -10.166  12.373  66.710  1.00  0.00    -0.219 C  
HETATM    3  N   UNL     1     -10.068  11.157  67.147  1.00  0.00    -0.186 NA 
HETATM    4  N   UNL     1      -9.963  10.350  66.025  1.00  0.00    -0.229 N  
HETATM    5  C   UNL     1     -10.101  12.498  65.225  1.00  0.00    -0.275 C  
HETATM    6  C   UNL     1     -10.008  11.060  64.814  1.00  0.00    -0.294 C  
HETATM    7  O   UNL     1      -9.970  10.683  63.654  1.00  0.00    -0.319 OA 
ENDROOT
BRANCH   4   8
HETATM    8  C   UNL     1      -9.798   8.951  66.201  1.00  0.00    -0.256 A  
HETATM    9  C   UNL     1     -10.656   8.204  67.020  1.00  0.00    -0.346 A  
HETATM   10  C   UNL     1     -10.495   6.821  67.160  1.00  0.00    -0.364 A  
HETATM   11  C   UNL     1      -9.473   6.161  66.485  1.00  0.00    -0.178 A  
HETATM   12  C   UNL     1      -8.606   6.886  65.673  1.00  0.00    -0.119 A  
HETATM   13  C   UNL     1      -8.766   8.269  65.535  1.00  0.00    -0.173 A  
ENDBRANCH   4   8
TORSDOF 1
ENDMDL
MODEL      142
REMARK 921   NORMALIZED FREE ENERGY PREDICTED BY IDOCK:   -2.97 KCAL/MOL
REMARK 922        TOTAL FREE ENERGY PREDICTED BY IDOCK:   -3.29 KCAL/MOL
REMARK 923 INTER-LIGAND FREE ENERGY PREDICTED BY IDOCK:   -3.22 KCAL/MOL
REMARK 924 INTRA-LIGAND FREE ENERGY PREDICTED BY IDOCK:   -0.08 KCAL/MOL
REMARK 927      BINDING AFFINITY PREDICTED BY RF-SCORE:    0.00 PKD
ROOT
HETATM    1  C   UNL     1      -7.691   6.887  64.662  1.00  0.00    -0.116 C  
HETATM    2  C   UNL     1      -8.735   7.210  65.675  1.00  0.00    -0.068 C  
HETATM    3  N   UNL     1      -9.046   8.412  66.044  1.00  0.00    -0.184 NA 
HETATM    4  N   UNL     1     -10.055   8.280  66.985  1.00  0.00    -0.254 N  
HETATM    5  C   UNL     1      -9.500   6.137  66.374  1.00  0.00    -0.172 C  
HETATM    6  C   UNL     1     -10.426   6.947  67.229  1.00  0.00    -0.287 C  
HETATM    7  O   UNL     1     -11.277   6.466  67.959  1.00  0.00    -0.311 OA 
ENDROOT
BRANCH   4   8
HETATM    8  C   UNL     1     -10.571   9.448  67.603  1.00  0.00    -0.271 A  
HETATM    9  C   UNL     1     -10.884  10.598  66.865  1.00  0.00    -0.267 A  
HETATM   10  C   UNL     1     -11.418  11.731  67.488  1.00  0.00    -0.373 A  
HETATM   11  C   UNL     1     -11.647  11.735  68.861  1.00  0.00    -0.370 A  
HETATM   12  C   UNL     1     -11.337  10.606  69.612  1.00  0.00    -0.360 A  
HETATM   13  C   UNL     1     -10.802   9.474  68.989  1.00  0.00    -0.184 A  
ENDBRANCH   4   8
TORSDOF 1
ENDMDL
MODEL      143
REMARK 921   NORMALIZED FREE ENERGY PREDICTED BY IDOCK:   -2.93 KCAL/MOL
REMARK 922        TOTAL FREE ENERGY PREDICTED BY IDOCK:   -3.25 KCAL/MOL
REMARK 923 INTER-LIGAND FREE ENERGY PREDICTED BY IDOCK:   -3.08 KCAL/MOL
REMARK 924 INTRA-LIGAND FREE ENERGY PREDICTED BY IDOCK:   -0.17 KCAL/MOL
REMARK 927      BINDING AFFINITY PREDICTED BY RF-SCORE:    0.00 PKD
ROOT
HETATM    1  C   UNL     1     -13.741   7.177  71.473  1.00  0.00    -0.413 C  
HETATM    2  C   UNL     1     -12.273   6.934  71.403  1.00  0.00    -0.372 C  
HETATM    3  N   UNL     1     -11.456   7.112  72.392  1.00  0.00    -0.268 NA 
HETATM    4  N   UNL     1     -10.198   6.771  71.923  1.00  0.00    -0.189 N  
HETATM    5  C   UNL     1     -11.618   6.478  70.142  1.00  0.00    -0.466 C  
HETATM    6  C   UNL     1     -10.194   6.341  70.585  1.00  0.00    -0.194 C  
HETATM    7  O   UNL     1      -9.290   5.946  69.867  1.00  0.00    -0.146 OA 
ENDROOT
BRANCH   4   8
HETATM    8  C   UNL     1      -9.083   6.910  72.790  1.00  0.00    -0.134 A  
HETATM    9  C   UNL     1      -8.748   8.141  73.371  1.00  0.00    -0.318 A  
HETATM   10  C   UNL     1      -7.662   8.254  74.245  1.00  0.00    -0.277 A  
HETATM   11  C   UNL     1      -6.888   7.139  74.551  1.00  0.00    -0.096 A  
HETATM   12  C   UNL     1      -7.199   5.909  73.979  1.00  0.00    -0.088 A  
HETATM   13  C   UNL     1      -8.285   5.797  73.104  1.00  0.00    -0.117 A  
ENDBRANCH   4   8
TORSDOF 1
ENDMDL
MODEL      144
REMARK 921   NORMALIZED FREE ENERGY PREDICTED BY IDOCK:   -2.92 KCAL/MOL
REMARK 922        TOTAL FREE ENERGY PREDICTED BY IDOCK:   -3.24 KCAL/MOL
REMARK 923 INTER-LIGAND FREE ENERGY PREDICTED BY IDOCK:   -3.04 KCAL/MOL
REMARK 924 INTRA-LIGAND FREE ENERGY PREDICTED BY IDOCK:   -0.20 KCAL/MOL
REMARK 927      BINDING AFFINITY PREDICTED BY RF-SCORE:    0.00 PKD
ROOT
HETATM    1  C   UNL     1      -5.696  13.095  70.419  1.00  0.00    -0.170 C  
HETATM    2  C   UNL     1      -6.553  13.930  69.532  1.00  0.00    -0.097 C  
HETATM    3  N   UNL     1      -6.813  15.182  69.737  1.00  0.00    -0.181 NA 
HETATM    4  N   UNL     1      -7.629  15.586  68.692  1.00  0.00    -0.133 N  
HETATM    5  C   UNL     1      -7.212  13.358  68.322  1.00  0.00    -0.111 C  
HETATM    6  C   UNL     1      -7.900  14.566  67.764  1.00  0.00    -0.161 C  
HETATM    7  O   UNL     1      -8.545  14.567  66.729  1.00  0.00    -0.210 OA 
ENDROOT
BRANCH   4   8
HETATM    8  C   UNL     1      -8.113  16.919  68.677  1.00  0.00    -0.253 A  
HETATM    9  C   UNL     1      -9.479  17.210  68.804  1.00  0.00    -0.263 A  
HETATM   10  C   UNL     1      -9.936  18.533  68.815  1.00  0.00    -0.417 A  
HETATM   11  C   UNL     1      -9.036  19.587  68.696  1.00  0.00    -0.396 A  
HETATM   12  C   UNL     1      -7.678  19.319  68.561  1.00  0.00    -0.380 A  
HETATM   13  C   UNL     1      -7.221  17.997  68.550  1.00  0.00    -0.265 A  
ENDBRANCH   4   8
TORSDOF 1
ENDMDL
MODEL      145
REMARK 921   NORMALIZED FREE ENERGY PREDICTED BY IDOCK:   -2.86 KCAL/MOL
REMARK 922        TOTAL FREE ENERGY PREDICTED BY IDOCK:   -3.18 KCAL/MOL
REMARK 923 INTER-LIGAND FREE ENERGY PREDICTED BY IDOCK:   -3.31 KCAL/MOL
REMARK 924 INTRA-LIGAND FREE ENERGY PREDICTED BY IDOCK:    0.13 KCAL/MOL
REMARK 927      BINDING AFFINITY PREDICTED BY RF-SCORE:    0.00 PKD
ROOT
HETATM    1  C   UNL     1      -8.445   5.143  68.053  1.00  0.00    -0.100 C  
HETATM    2  C   UNL     1      -9.053   6.471  67.764  1.00  0.00    -0.112 C  
HETATM    3  N   UNL     1      -9.553   7.257  68.666  1.00  0.00    -0.141 NA 
HETATM    4  N   UNL     1     -10.003   8.382  67.994  1.00  0.00    -0.174 N  
HETATM    5  C   UNL     1      -9.155   6.995  66.371  1.00  0.00    -0.189 C  
HETATM    6  C   UNL     1      -9.777   8.337  66.607  1.00  0.00    -0.251 C  
HETATM    7  O   UNL     1     -10.013   9.146  65.725  1.00  0.00    -0.277 OA 
ENDROOT
BRANCH   4   8
HETATM    8  C   UNL     1     -10.645   9.409  68.732  1.00  0.00    -0.208 A  
HETATM    9  C   UNL     1     -10.942   9.264  70.095  1.00  0.00    -0.278 A  
HETATM   10  C   UNL     1     -11.550  10.299  70.814  1.00  0.00    -0.446 A  
HETATM   11  C   UNL     1     -11.875  11.496  70.183  1.00  0.00    -0.440 A  
HETATM   12  C   UNL     1     -11.595  11.657  68.829  1.00  0.00    -0.374 A  
HETATM   13  C   UNL     1     -10.988  10.622  68.111  1.00  0.00    -0.321 A  
ENDBRANCH   4   8
TORSDOF 1
ENDMDL
MODEL      146
REMARK 921   NORMALIZED FREE ENERGY PREDICTED BY IDOCK:   -2.79 KCAL/MOL
REMARK 922        TOTAL FREE ENERGY PREDICTED BY IDOCK:   -3.11 KCAL/MOL
REMARK 923 INTER-LIGAND FREE ENERGY PREDICTED BY IDOCK:   -2.99 KCAL/MOL
REMARK 924 INTRA-LIGAND FREE ENERGY PREDICTED BY IDOCK:   -0.12 KCAL/MOL
REMARK 927      BINDING AFFINITY PREDICTED BY RF-SCORE:    0.00 PKD
ROOT
HETATM    1  C   UNL     1     -10.097   4.033  64.374  1.00  0.00    -0.199 C  
HETATM    2  C   UNL     1      -9.603   4.372  65.737  1.00  0.00    -0.188 C  
HETATM    3  N   UNL     1     -10.372   4.619  66.751  1.00  0.00    -0.187 NA 
HETATM    4  N   UNL     1      -9.531   4.880  67.821  1.00  0.00    -0.132 N  
HETATM    5  C   UNL     1      -8.145   4.480  66.034  1.00  0.00    -0.103 C  
HETATM    6  C   UNL     1      -8.166   4.787  67.500  1.00  0.00    -0.105 C  
HETATM    7  O   UNL     1      -7.165   4.923  68.183  1.00  0.00    -0.061 OA 
ENDROOT
BRANCH   4   8
HETATM    8  C   UNL     1     -10.103   5.228  69.072  1.00  0.00    -0.202 A  
HETATM    9  C   UNL     1      -9.684   4.628  70.268  1.00  0.00    -0.295 A  
HETATM   10  C   UNL     1     -10.239   5.005  71.496  1.00  0.00    -0.273 A  
HETATM   11  C   UNL     1     -11.225   5.985  71.550  1.00  0.00    -0.326 A  
HETATM   12  C   UNL     1     -11.660   6.587  70.373  1.00  0.00    -0.470 A  
HETATM   13  C   UNL     1     -11.105   6.210  69.146  1.00  0.00    -0.448 A  
ENDBRANCH   4   8
TORSDOF 1
ENDMDL
MODEL      147
REMARK 921   NORMALIZED FREE ENERGY PREDICTED BY IDOCK:   -2.79 KCAL/MOL
REMARK 922        TOTAL FREE ENERGY PREDICTED BY IDOCK:   -3.11 KCAL/MOL
REMARK 923 INTER-LIGAND FREE ENERGY PREDICTED BY IDOCK:   -2.88 KCAL/MOL
REMARK 924 INTRA-LIGAND FREE ENERGY PREDICTED BY IDOCK:   -0.22 KCAL/MOL
REMARK 927      BINDING AFFINITY PREDICTED BY RF-SCORE:    0.00 PKD
ROOT
HETATM    1  C   UNL     1      -5.458  10.966  66.032  1.00  0.00    -0.139 C  
HETATM    2  C   UNL     1      -6.934  10.835  66.179  1.00  0.00    -0.124 C  
HETATM    3  N   UNL     1      -7.587  11.115  67.263  1.00  0.00    -0.119 NA 
HETATM    4  N   UNL     1      -8.922  10.868  66.986  1.00  0.00    -0.142 N  
HETATM    5  C   UNL     1      -7.787  10.332  65.063  1.00  0.00    -0.133 C  
HETATM    6  C   UNL     1      -9.152  10.425  65.672  1.00  0.00    -0.176 C  
HETATM    7  O   UNL     1     -10.183  10.143  65.084  1.00  0.00    -0.306 OA 
ENDROOT
BRANCH   4   8
HETATM    8  C   UNL     1      -9.881  11.050  68.017  1.00  0.00    -0.171 A  
HETATM    9  C   UNL     1     -10.508  12.285  68.232  1.00  0.00    -0.236 A  
HETATM   10  C   UNL     1     -11.471  12.439  69.235  1.00  0.00    -0.349 A  
HETATM   11  C   UNL     1     -11.822  11.362  70.043  1.00  0.00    -0.440 A  
HETATM   12  C   UNL     1     -11.206  10.129  69.850  1.00  0.00    -0.343 A  
HETATM   13  C   UNL     1     -10.242   9.976  68.847  1.00  0.00    -0.206 A  
ENDBRANCH   4   8
TORSDOF 1
ENDMDL
MODEL      148
REMARK 921   NORMALIZED FREE ENERGY PREDICTED BY IDOCK:   -2.79 KCAL/MOL
REMARK 922        TOTAL FREE ENERGY PREDICTED BY IDOCK:   -3.10 KCAL/MOL
REMARK 923 INTER-LIGAND FREE ENERGY PREDICTED BY IDOCK:   -2.88 KCAL/MOL
REMARK 924 INTRA-LIGAND FREE ENERGY PREDICTED BY IDOCK:   -0.22 KCAL/MOL
REMARK 927      BINDING AFFINITY PREDICTED BY RF-SCORE:    0.00 PKD
ROOT
HETATM    1  C   UNL     1      -7.881   8.201  74.505  1.00  0.00    -0.301 C  
HETATM    2  C   UNL     1      -8.797   8.016  73.345  1.00  0.00    -0.269 C  
HETATM    3  N   UNL     1      -8.521   8.380  72.133  1.00  0.00    -0.186 NA 
HETATM    4  N   UNL     1      -9.618   8.028  71.363  1.00  0.00    -0.150 N  
HETATM    5  C   UNL     1     -10.147   7.404  73.509  1.00  0.00    -0.390 C  
HETATM    6  C   UNL     1     -10.641   7.400  72.094  1.00  0.00    -0.220 C  
HETATM    7  O   UNL     1     -11.717   6.941  71.747  1.00  0.00    -0.271 OA 
ENDROOT
BRANCH   4   8
HETATM    8  C   UNL     1      -9.616   8.348  69.980  1.00  0.00    -0.168 A  
HETATM    9  C   UNL     1     -10.349   9.429  69.471  1.00  0.00    -0.223 A  
HETATM   10  C   UNL     1     -10.312   9.746  68.109  1.00  0.00    -0.241 A  
HETATM   11  C   UNL     1      -9.545   8.987  67.231  1.00  0.00    -0.206 A  
HETATM   12  C   UNL     1      -8.816   7.905  67.715  1.00  0.00    -0.122 A  
HETATM   13  C   UNL     1      -8.854   7.587  69.077  1.00  0.00    -0.132 A  
ENDBRANCH   4   8
TORSDOF 1
ENDMDL
MODEL      149
REMARK 921   NORMALIZED FREE ENERGY PREDICTED BY IDOCK:   -2.78 KCAL/MOL
REMARK 922        TOTAL FREE ENERGY PREDICTED BY IDOCK:   -3.10 KCAL/MOL
REMARK 923 INTER-LIGAND FREE ENERGY PREDICTED BY IDOCK:   -2.92 KCAL/MOL
REMARK 924 INTRA-LIGAND FREE ENERGY PREDICTED BY IDOCK:   -0.17 KCAL/MOL
REMARK 927      BINDING AFFINITY PREDICTED BY RF-SCORE:    0.00 PKD
ROOT
HETATM    1  C   UNL     1     -13.074  14.740  71.139  1.00  0.00    -0.443 C  
HETATM    2  C   UNL     1     -12.257  14.157  70.039  1.00  0.00    -0.357 C  
HETATM    3  N   UNL     1     -11.561  13.069  70.145  1.00  0.00    -0.144 NA 
HETATM    4  N   UNL     1     -10.963  12.870  68.911  1.00  0.00    -0.244 N  
HETATM    5  C   UNL     1     -12.160  14.818  68.705  1.00  0.00    -0.225 C  
HETATM    6  C   UNL     1     -11.290  13.853  67.961  1.00  0.00    -0.288 C  
HETATM    7  O   UNL     1     -10.974  13.980  66.790  1.00  0.00    -0.292 OA 
ENDROOT
BRANCH   4   8
HETATM    8  C   UNL     1     -10.094  11.760  68.742  1.00  0.00    -0.140 A  
HETATM    9  C   UNL     1     -10.537  10.442  68.922  1.00  0.00    -0.241 A  
HETATM   10  C   UNL     1      -9.674   9.358  68.724  1.00  0.00    -0.161 A  
HETATM   11  C   UNL     1      -8.353   9.574  68.345  1.00  0.00    -0.118 A  
HETATM   12  C   UNL     1      -7.892  10.875  68.167  1.00  0.00    -0.114 A  
HETATM   13  C   UNL     1      -8.755  11.957  68.367  1.00  0.00    -0.157 A  
ENDBRANCH   4   8
TORSDOF 1
ENDMDL
MODEL      150
REMARK 921   NORMALIZED FREE ENERGY PREDICTED BY IDOCK:   -2.78 KCAL/MOL
REMARK 922        TOTAL FREE ENERGY PREDICTED BY IDOCK:   -3.09 KCAL/MOL
REMARK 923 INTER-LIGAND FREE ENERGY PREDICTED BY IDOCK:   -2.87 KCAL/MOL
REMARK 924 INTRA-LIGAND FREE ENERGY PREDICTED BY IDOCK:   -0.22 KCAL/MOL
REMARK 927      BINDING AFFINITY PREDICTED BY RF-SCORE:    0.00 PKD
ROOT
HETATM    1  C   UNL     1     -10.428   8.134  66.836  1.00  0.00    -0.379 C  
HETATM    2  C   UNL     1      -9.877   7.424  68.023  1.00  0.00    -0.148 C  
HETATM    3  N   UNL     1     -10.382   7.493  69.214  1.00  0.00    -0.206 NA 
HETATM    4  N   UNL     1      -9.589   6.691  70.020  1.00  0.00    -0.157 N  
HETATM    5  C   UNL     1      -8.652   6.578  67.926  1.00  0.00    -0.117 C  
HETATM    6  C   UNL     1      -8.537   6.065  69.329  1.00  0.00    -0.118 C  
HETATM    7  O   UNL     1      -7.675   5.287  69.703  1.00  0.00    -0.070 OA 
ENDROOT
BRANCH   4   8
HETATM    8  C   UNL     1      -9.883   6.606  71.405  1.00  0.00    -0.179 A  
HETATM    9  C   UNL     1     -10.704   5.596  71.925  1.00  0.00    -0.299 A  
HETATM   10  C   UNL     1     -10.962   5.511  73.298  1.00  0.00    -0.339 A  
HETATM   11  C   UNL     1     -10.405   6.438  74.175  1.00  0.00    -0.335 A  
HETATM   12  C   UNL     1      -9.594   7.453  73.678  1.00  0.00    -0.337 A  
HETATM   13  C   UNL     1      -9.338   7.537  72.305  1.00  0.00    -0.185 A  
ENDBRANCH   4   8
TORSDOF 1
ENDMDL
MODEL      151
REMARK 921   NORMALIZED FREE ENERGY PREDICTED BY IDOCK:   -2.76 KCAL/MOL
REMARK 922        TOTAL FREE ENERGY PREDICTED BY IDOCK:   -3.08 KCAL/MOL
REMARK 923 INTER-LIGAND FREE ENERGY PREDICTED BY IDOCK:   -3.16 KCAL/MOL
REMARK 924 INTRA-LIGAND FREE ENERGY PREDICTED BY IDOCK:    0.08 KCAL/MOL
REMARK 927      BINDING AFFINITY PREDICTED BY RF-SCORE:    0.00 PKD
ROOT
HETATM    1  C   UNL     1      -8.634   3.650  65.939  1.00  0.00    -0.114 C  
HETATM    2  C   UNL     1      -9.329   4.605  66.845  1.00  0.00    -0.140 C  
HETATM    3  N   UNL     1      -9.494   4.416  68.116  1.00  0.00    -0.146 NA 
HETATM    4  N   UNL     1     -10.173   5.528  68.589  1.00  0.00    -0.188 N  
HETATM    5  C   UNL     1      -9.924   5.874  66.332  1.00  0.00    -0.162 C  
HETATM    6  C   UNL     1     -10.448   6.484  67.596  1.00  0.00    -0.230 C  
HETATM    7  O   UNL     1     -10.994   7.573  67.653  1.00  0.00    -0.148 OA 
ENDROOT
BRANCH   4   8
HETATM    8  C   UNL     1     -10.533   5.578  69.961  1.00  0.00    -0.303 A  
HETATM    9  C   UNL     1     -11.443   6.526  70.451  1.00  0.00    -0.465 A  
HETATM   10  C   UNL     1     -11.808   6.543  71.801  1.00  0.00    -0.384 A  
HETATM   11  C   UNL     1     -11.268   5.615  72.686  1.00  0.00    -0.350 A  
HETATM   12  C   UNL     1     -10.357   4.671  72.221  1.00  0.00    -0.251 A  
HETATM   13  C   UNL     1      -9.992   4.655  70.871  1.00  0.00    -0.273 A  
ENDBRANCH   4   8
TORSDOF 1
ENDMDL
MODEL      152
REMARK 921   NORMALIZED FREE ENERGY PREDICTED BY IDOCK:   -2.73 KCAL/MOL
REMARK 922        TOTAL FREE ENERGY PREDICTED BY IDOCK:   -3.04 KCAL/MOL
REMARK 923 INTER-LIGAND FREE ENERGY PREDICTED BY IDOCK:   -2.82 KCAL/MOL
REMARK 924 INTRA-LIGAND FREE ENERGY PREDICTED BY IDOCK:   -0.22 KCAL/MOL
REMARK 927      BINDING AFFINITY PREDICTED BY RF-SCORE:    0.00 PKD
ROOT
HETATM    1  C   UNL     1     -13.354   7.335  71.490  1.00  0.00    -0.435 C  
HETATM    2  C   UNL     1     -11.916   7.361  71.877  1.00  0.00    -0.302 C  
HETATM    3  N   UNL     1     -11.215   6.306  72.152  1.00  0.00    -0.267 NA 
HETATM    4  N   UNL     1      -9.939   6.756  72.453  1.00  0.00    -0.169 N  
HETATM    5  C   UNL     1     -11.166   8.645  72.005  1.00  0.00    -0.434 C  
HETATM    6  C   UNL     1      -9.797   8.151  72.359  1.00  0.00    -0.276 C  
HETATM    7  O   UNL     1      -8.831   8.877  72.524  1.00  0.00    -0.381 OA 
ENDROOT
BRANCH   4   8
HETATM    8  C   UNL     1      -8.953   5.811  72.839  1.00  0.00    -0.123 A  
HETATM    9  C   UNL     1      -7.948   5.391  71.956  1.00  0.00    -0.113 A  
HETATM   10  C   UNL     1      -6.967   4.479  72.362  1.00  0.00    -0.057 A  
HETATM   11  C   UNL     1      -6.975   3.970  73.657  1.00  0.00    -0.059 A  
HETATM   12  C   UNL     1      -7.969   4.369  74.546  1.00  0.00    -0.087 A  
HETATM   13  C   UNL     1      -8.949   5.279  74.139  1.00  0.00    -0.118 A  
ENDBRANCH   4   8
TORSDOF 1
ENDMDL
MODEL      153
REMARK 921   NORMALIZED FREE ENERGY PREDICTED BY IDOCK:   -2.66 KCAL/MOL
REMARK 922        TOTAL FREE ENERGY PREDICTED BY IDOCK:   -2.97 KCAL/MOL
REMARK 923 INTER-LIGAND FREE ENERGY PREDICTED BY IDOCK:   -2.78 KCAL/MOL
REMARK 924 INTRA-LIGAND FREE ENERGY PREDICTED BY IDOCK:   -0.20 KCAL/MOL
REMARK 927      BINDING AFFINITY PREDICTED BY RF-SCORE:    0.00 PKD
ROOT
HETATM    1  C   UNL     1      -6.751   4.211  67.388  1.00  0.00    -0.047 C  
HETATM    2  C   UNL     1      -7.882   5.135  67.677  1.00  0.00    -0.095 C  
HETATM    3  N   UNL     1      -8.330   5.390  68.866  1.00  0.00    -0.100 NA 
HETATM    4  N   UNL     1      -9.369   6.292  68.704  1.00  0.00    -0.123 N  
HETATM    5  C   UNL     1      -8.618   5.833  66.583  1.00  0.00    -0.118 C  
HETATM    6  C   UNL     1      -9.600   6.650  67.365  1.00  0.00    -0.126 C  
HETATM    7  O   UNL     1     -10.399   7.423  66.862  1.00  0.00    -0.273 OA 
ENDROOT
BRANCH   4   8
HETATM    8  C   UNL     1     -10.086   6.724  69.850  1.00  0.00    -0.180 A  
HETATM    9  C   UNL     1      -9.480   7.493  70.854  1.00  0.00    -0.165 A  
HETATM   10  C   UNL     1     -10.210   7.935  71.963  1.00  0.00    -0.270 A  
HETATM   11  C   UNL     1     -11.557   7.612  72.091  1.00  0.00    -0.354 A  
HETATM   12  C   UNL     1     -12.175   6.844  71.109  1.00  0.00    -0.428 A  
HETATM   13  C   UNL     1     -11.445   6.402  70.001  1.00  0.00    -0.496 A  
ENDBRANCH   4   8
TORSDOF 1
ENDMDL
MODEL      154
REMARK 921   NORMALIZED FREE ENERGY PREDICTED BY IDOCK:   -2.65 KCAL/MOL
REMARK 922        TOTAL FREE ENERGY PREDICTED BY IDOCK:   -2.96 KCAL/MOL
REMARK 923 INTER-LIGAND FREE ENERGY PREDICTED BY IDOCK:   -2.75 KCAL/MOL
REMARK 924 INTRA-LIGAND FREE ENERGY PREDICTED BY IDOCK:   -0.21 KCAL/MOL
REMARK 927      BINDING AFFINITY PREDICTED BY RF-SCORE:    0.00 PKD
ROOT
HETATM    1  C   UNL     1     -11.297   9.170  70.337  1.00  0.00    -0.260 C  
HETATM    2  C   UNL     1     -10.883   7.745  70.464  1.00  0.00    -0.241 C  
HETATM    3  N   UNL     1     -10.667   7.146  71.592  1.00  0.00    -0.212 NA 
HETATM    4  N   UNL     1     -10.313   5.843  71.278  1.00  0.00    -0.213 N  
HETATM    5  C   UNL     1     -10.656   6.890  69.263  1.00  0.00    -0.250 C  
HETATM    6  C   UNL     1     -10.311   5.578  69.898  1.00  0.00    -0.298 C  
HETATM    7  O   UNL     1     -10.080   4.556  69.273  1.00  0.00    -0.172 OA 
ENDROOT
BRANCH   4   8
HETATM    8  C   UNL     1      -9.974   4.953  72.330  1.00  0.00    -0.179 A  
HETATM    9  C   UNL     1     -10.935   4.481  73.235  1.00  0.00    -0.369 A  
HETATM   10  C   UNL     1     -10.588   3.581  74.249  1.00  0.00    -0.256 A  
HETATM   11  C   UNL     1      -9.274   3.140  74.378  1.00  0.00    -0.103 A  
HETATM   12  C   UNL     1      -8.305   3.603  73.493  1.00  0.00    -0.083 A  
HETATM   13  C   UNL     1      -8.652   4.503  72.481  1.00  0.00    -0.115 A  
ENDBRANCH   4   8
TORSDOF 1
ENDMDL
MODEL      155
REMARK 921   NORMALIZED FREE ENERGY PREDICTED BY IDOCK:   -2.64 KCAL/MOL
REMARK 922        TOTAL FREE ENERGY PREDICTED BY IDOCK:   -2.95 KCAL/MOL
REMARK 923 INTER-LIGAND FREE ENERGY PREDICTED BY IDOCK:   -2.78 KCAL/MOL
REMARK 924 INTRA-LIGAND FREE ENERGY PREDICTED BY IDOCK:   -0.18 KCAL/MOL
REMARK 927      BINDING AFFINITY PREDICTED BY RF-SCORE:    0.00 PKD
ROOT
HETATM    1  C   UNL     1     -10.619  13.133  67.691  1.00  0.00    -0.235 C  
HETATM    2  C   UNL     1     -10.413  11.764  67.143  1.00  0.00    -0.220 C  
HETATM    3  N   UNL     1      -9.740  11.501  66.068  1.00  0.00    -0.219 NA 
HETATM    4  N   UNL     1      -9.780  10.125  65.910  1.00  0.00    -0.215 N  
HETATM    5  C   UNL     1     -11.007  10.564  67.801  1.00  0.00    -0.372 C  
HETATM    6  C   UNL     1     -10.492   9.463  66.925  1.00  0.00    -0.211 C  
HETATM    7  O   UNL     1     -10.707   8.278  67.120  1.00  0.00    -0.302 OA 
ENDROOT
BRANCH   4   8
HETATM    8  C   UNL     1      -9.153   9.547  64.777  1.00  0.00    -0.218 A  
HETATM    9  C   UNL     1      -9.524   9.894  63.470  1.00  0.00    -0.140 A  
HETATM   10  C   UNL     1      -8.875   9.334  62.364  1.00  0.00    -0.242 A  
HETATM   11  C   UNL     1      -7.847   8.415  62.544  1.00  0.00    -0.140 A  
HETATM   12  C   UNL     1      -7.469   8.051  63.833  1.00  0.00    -0.117 A  
HETATM   13  C   UNL     1      -8.118   8.610  64.938  1.00  0.00    -0.146 A  
ENDBRANCH   4   8
TORSDOF 1
ENDMDL
MODEL      156
REMARK 921   NORMALIZED FREE ENERGY PREDICTED BY IDOCK:   -2.64 KCAL/MOL
REMARK 922        TOTAL FREE ENERGY PREDICTED BY IDOCK:   -2.94 KCAL/MOL
REMARK 923 INTER-LIGAND FREE ENERGY PREDICTED BY IDOCK:   -2.73 KCAL/MOL
REMARK 924 INTRA-LIGAND FREE ENERGY PREDICTED BY IDOCK:   -0.21 KCAL/MOL
REMARK 927      BINDING AFFINITY PREDICTED BY RF-SCORE:    0.00 PKD
ROOT
HETATM    1  C   UNL     1     -12.171  11.078  69.974  1.00  0.00    -0.418 C  
HETATM    2  C   UNL     1     -11.132  10.033  69.757  1.00  0.00    -0.274 C  
HETATM    3  N   UNL     1     -11.093   8.902  70.388  1.00  0.00    -0.242 NA 
HETATM    4  N   UNL     1      -9.991   8.221  69.895  1.00  0.00    -0.187 N  
HETATM    5  C   UNL     1     -10.017  10.232  68.786  1.00  0.00    -0.187 C  
HETATM    6  C   UNL     1      -9.294   8.924  68.898  1.00  0.00    -0.140 C  
HETATM    7  O   UNL     1      -8.313   8.628  68.236  1.00  0.00    -0.124 OA 
ENDROOT
BRANCH   4   8
HETATM    8  C   UNL     1      -9.671   6.950  70.440  1.00  0.00    -0.172 A  
HETATM    9  C   UNL     1     -10.454   5.817  70.182  1.00  0.00    -0.348 A  
HETATM   10  C   UNL     1     -10.108   4.566  70.706  1.00  0.00    -0.233 A  
HETATM   11  C   UNL     1      -8.973   4.428  71.499  1.00  0.00    -0.162 A  
HETATM   12  C   UNL     1      -8.185   5.542  71.773  1.00  0.00    -0.119 A  
HETATM   13  C   UNL     1      -8.533   6.792  71.250  1.00  0.00    -0.124 A  
ENDBRANCH   4   8
TORSDOF 1
ENDMDL
MODEL      157
REMARK 921   NORMALIZED FREE ENERGY PREDICTED BY IDOCK:   -2.57 KCAL/MOL
REMARK 922        TOTAL FREE ENERGY PREDICTED BY IDOCK:   -2.87 KCAL/MOL
REMARK 923 INTER-LIGAND FREE ENERGY PREDICTED BY IDOCK:   -2.90 KCAL/MOL
REMARK 924 INTRA-LIGAND FREE ENERGY PREDICTED BY IDOCK:    0.03 KCAL/MOL
REMARK 927      BINDING AFFINITY PREDICTED BY RF-SCORE:    0.00 PKD
ROOT
HETATM    1  C   UNL     1     -12.173  11.086  69.800  1.00  0.00    -0.388 C  
HETATM    2  C   UNL     1     -11.308  10.511  68.733  1.00  0.00    -0.249 C  
HETATM    3  N   UNL     1     -11.233   9.247  68.457  1.00  0.00     0.137 NA 
HETATM    4  N   UNL     1     -10.334   9.132  67.409  1.00  0.00    -0.247 N  
HETATM    5  C   UNL     1     -10.423  11.374  67.898  1.00  0.00    -0.212 C  
HETATM    6  C   UNL     1      -9.815  10.364  66.974  1.00  0.00    -0.191 C  
HETATM    7  O   UNL     1      -9.037  10.640  66.076  1.00  0.00    -0.168 OA 
ENDROOT
BRANCH   4   8
HETATM    8  C   UNL     1     -10.017   7.839  66.917  1.00  0.00    -0.261 A  
HETATM    9  C   UNL     1      -8.809   7.576  66.257  1.00  0.00    -0.184 A  
HETATM   10  C   UNL     1      -8.501   6.288  65.804  1.00  0.00    -0.148 A  
HETATM   11  C   UNL     1      -9.397   5.242  66.000  1.00  0.00    -0.167 A  
HETATM   12  C   UNL     1     -10.605   5.484  66.646  1.00  0.00    -0.365 A  
HETATM   13  C   UNL     1     -10.913   6.772  67.098  1.00  0.00    -0.458 A  
ENDBRANCH   4   8
TORSDOF 1
ENDMDL
MODEL      158
REMARK 921   NORMALIZED FREE ENERGY PREDICTED BY IDOCK:   -2.53 KCAL/MOL
REMARK 922        TOTAL FREE ENERGY PREDICTED BY IDOCK:   -2.83 KCAL/MOL
REMARK 923 INTER-LIGAND FREE ENERGY PREDICTED BY IDOCK:   -2.70 KCAL/MOL
REMARK 924 INTRA-LIGAND FREE ENERGY PREDICTED BY IDOCK:   -0.14 KCAL/MOL
REMARK 927      BINDING AFFINITY PREDICTED BY RF-SCORE:    0.00 PKD
ROOT
HETATM    1  C   UNL     1     -13.374   7.276  72.175  1.00  0.00    -0.047 C  
HETATM    2  C   UNL     1     -12.126   6.755  71.551  1.00  0.00    -0.363 C  
HETATM    3  N   UNL     1     -11.827   6.888  70.297  1.00  0.00    -0.300 NA 
HETATM    4  N   UNL     1     -10.594   6.279  70.126  1.00  0.00    -0.227 N  
HETATM    5  C   UNL     1     -11.114   6.000  72.345  1.00  0.00    -0.321 C  
HETATM    6  C   UNL     1     -10.062   5.742  71.310  1.00  0.00    -0.201 C  
HETATM    7  O   UNL     1      -9.008   5.170  71.535  1.00  0.00    -0.134 OA 
ENDROOT
BRANCH   4   8
HETATM    8  C   UNL     1     -10.029   6.232  68.825  1.00  0.00    -0.149 A  
HETATM    9  C   UNL     1      -8.710   6.640  68.579  1.00  0.00    -0.123 A  
HETATM   10  C   UNL     1      -8.159   6.560  67.295  1.00  0.00    -0.113 A  
HETATM   11  C   UNL     1      -8.918   6.076  66.234  1.00  0.00    -0.156 A  
HETATM   12  C   UNL     1     -10.231   5.673  66.456  1.00  0.00    -0.259 A  
HETATM   13  C   UNL     1     -10.782   5.753  67.740  1.00  0.00    -0.306 A  
ENDBRANCH   4   8
TORSDOF 1
ENDMDL
MODEL      159
REMARK 921   NORMALIZED FREE ENERGY PREDICTED BY IDOCK:   -2.49 KCAL/MOL
REMARK 922        TOTAL FREE ENERGY PREDICTED BY IDOCK:   -2.78 KCAL/MOL
REMARK 923 INTER-LIGAND FREE ENERGY PREDICTED BY IDOCK:   -2.81 KCAL/MOL
REMARK 924 INTRA-LIGAND FREE ENERGY PREDICTED BY IDOCK:    0.02 KCAL/MOL
REMARK 927      BINDING AFFINITY PREDICTED BY RF-SCORE:    0.00 PKD
ROOT
HETATM    1  C   UNL     1      -7.835   8.946  64.868  1.00  0.00    -0.121 C  
HETATM    2  C   UNL     1      -8.436   9.638  66.041  1.00  0.00    -0.124 C  
HETATM    3  N   UNL     1      -9.138   9.048  66.956  1.00  0.00    -0.128 NA 
HETATM    4  N   UNL     1      -9.501  10.032  67.862  1.00  0.00    -0.144 N  
HETATM    5  C   UNL     1      -8.288  11.110  66.237  1.00  0.00    -0.163 C  
HETATM    6  C   UNL     1      -9.007  11.307  67.537  1.00  0.00    -0.140 C  
HETATM    7  O   UNL     1      -9.103  12.380  68.108  1.00  0.00    -0.192 OA 
ENDROOT
BRANCH   4   8
HETATM    8  C   UNL     1     -10.322   9.679  68.964  1.00  0.00    -0.205 A  
HETATM    9  C   UNL     1     -11.144  10.618  69.603  1.00  0.00    -0.342 A  
HETATM   10  C   UNL     1     -11.969  10.246  70.671  1.00  0.00    -0.436 A  
HETATM   11  C   UNL     1     -11.984   8.929  71.120  1.00  0.00    -0.344 A  
HETATM   12  C   UNL     1     -11.171   7.983  70.503  1.00  0.00    -0.252 A  
HETATM   13  C   UNL     1     -10.346   8.356  69.437  1.00  0.00    -0.217 A  
ENDBRANCH   4   8
TORSDOF 1
ENDMDL
MODEL      160
REMARK 921   NORMALIZED FREE ENERGY PREDICTED BY IDOCK:   -2.46 KCAL/MOL
REMARK 922        TOTAL FREE ENERGY PREDICTED BY IDOCK:   -2.76 KCAL/MOL
REMARK 923 INTER-LIGAND FREE ENERGY PREDICTED BY IDOCK:   -2.55 KCAL/MOL
REMARK 924 INTRA-LIGAND FREE ENERGY PREDICTED BY IDOCK:   -0.20 KCAL/MOL
REMARK 927      BINDING AFFINITY PREDICTED BY RF-SCORE:    0.00 PKD
ROOT
HETATM    1  C   UNL     1      -9.268  12.696  67.689  1.00  0.00    -0.191 C  
HETATM    2  C   UNL     1      -9.710  11.590  68.583  1.00  0.00    -0.165 C  
HETATM    3  N   UNL     1      -8.929  10.661  69.035  1.00  0.00    -0.171 NA 
HETATM    4  N   UNL     1      -9.718   9.842  69.827  1.00  0.00    -0.227 N  
HETATM    5  C   UNL     1     -11.133  11.457  69.012  1.00  0.00    -0.300 C  
HETATM    6  C   UNL     1     -11.058  10.257  69.906  1.00  0.00    -0.304 C  
HETATM    7  O   UNL     1     -12.010   9.802  70.519  1.00  0.00    -0.261 OA 
ENDROOT
BRANCH   4   8
HETATM    8  C   UNL     1      -9.130   8.699  70.429  1.00  0.00    -0.159 A  
HETATM    9  C   UNL     1      -9.007   8.579  71.820  1.00  0.00    -0.288 A  
HETATM   10  C   UNL     1      -8.451   7.432  72.398  1.00  0.00    -0.132 A  
HETATM   11  C   UNL     1      -8.004   6.388  71.595  1.00  0.00    -0.102 A  
HETATM   12  C   UNL     1      -8.111   6.491  70.211  1.00  0.00    -0.121 A  
HETATM   13  C   UNL     1      -8.666   7.637  69.634  1.00  0.00    -0.136 A  
ENDBRANCH   4   8
TORSDOF 1
ENDMDL
MODEL      161
REMARK 921   NORMALIZED FREE ENERGY PREDICTED BY IDOCK:   -2.43 KCAL/MOL
REMARK 922        TOTAL FREE ENERGY PREDICTED BY IDOCK:   -2.72 KCAL/MOL
REMARK 923 INTER-LIGAND FREE ENERGY PREDICTED BY IDOCK:   -2.50 KCAL/MOL
REMARK 924 INTRA-LIGAND FREE ENERGY PREDICTED BY IDOCK:   -0.22 KCAL/MOL
REMARK 927      BINDING AFFINITY PREDICTED BY RF-SCORE:    0.00 PKD
ROOT
HETATM    1  C   UNL     1      -5.876   8.775  66.907  1.00  0.00    -0.052 C  
HETATM    2  C   UNL     1      -7.034   9.598  66.461  1.00  0.00    -0.085 C  
HETATM    3  N   UNL     1      -7.589  10.525  67.176  1.00  0.00    -0.095 NA 
HETATM    4  N   UNL     1      -8.615  11.049  66.405  1.00  0.00    -0.161 N  
HETATM    5  C   UNL     1      -7.673   9.388  65.129  1.00  0.00    -0.109 C  
HETATM    6  C   UNL     1      -8.726  10.454  65.137  1.00  0.00    -0.181 C  
HETATM    7  O   UNL     1      -9.480  10.675  64.204  1.00  0.00    -0.232 OA 
ENDROOT
BRANCH   4   8
HETATM    8  C   UNL     1      -9.434  12.068  66.956  1.00  0.00    -0.198 A  
HETATM    9  C   UNL     1     -10.765  11.825  67.327  1.00  0.00    -0.279 A  
HETATM   10  C   UNL     1     -11.550  12.835  67.895  1.00  0.00    -0.400 A  
HETATM   11  C   UNL     1     -11.020  14.105  68.100  1.00  0.00    -0.264 A  
HETATM   12  C   UNL     1      -9.704  14.368  67.732  1.00  0.00    -0.221 A  
HETATM   13  C   UNL     1      -8.920  13.359  67.164  1.00  0.00    -0.227 A  
ENDBRANCH   4   8
TORSDOF 1
ENDMDL
MODEL      162
REMARK 921   NORMALIZED FREE ENERGY PREDICTED BY IDOCK:   -2.34 KCAL/MOL
REMARK 922        TOTAL FREE ENERGY PREDICTED BY IDOCK:   -2.62 KCAL/MOL
REMARK 923 INTER-LIGAND FREE ENERGY PREDICTED BY IDOCK:   -2.42 KCAL/MOL
REMARK 924 INTRA-LIGAND FREE ENERGY PREDICTED BY IDOCK:   -0.21 KCAL/MOL
REMARK 927      BINDING AFFINITY PREDICTED BY RF-SCORE:    0.00 PKD
ROOT
HETATM    1  C   UNL     1     -11.328  13.560  69.002  1.00  0.00    -0.336 C  
HETATM    2  C   UNL     1     -10.565  12.443  68.380  1.00  0.00    -0.236 C  
HETATM    3  N   UNL     1     -10.212  12.406  67.134  1.00  0.00    -0.215 NA 
HETATM    4  N   UNL     1      -9.521  11.217  66.962  1.00  0.00    -0.176 N  
HETATM    5  C   UNL     1     -10.162  11.241  69.167  1.00  0.00    -0.123 C  
HETATM    6  C   UNL     1      -9.406  10.457  68.139  1.00  0.00    -0.145 C  
HETATM    7  O   UNL     1      -8.853   9.393  68.361  1.00  0.00    -0.127 OA 
ENDROOT
BRANCH   4   8
HETATM    8  C   UNL     1      -9.044  10.883  65.668  1.00  0.00    -0.204 A  
HETATM    9  C   UNL     1      -7.674  10.796  65.385  1.00  0.00     0.022 A  
HETATM   10  C   UNL     1      -7.222  10.438  64.110  1.00  0.00     0.020 A  
HETATM   11  C   UNL     1      -8.133  10.163  63.094  1.00  0.00    -0.158 A  
HETATM   12  C   UNL     1      -9.497  10.251  63.352  1.00  0.00    -0.340 A  
HETATM   13  C   UNL     1      -9.948  10.610  64.627  1.00  0.00    -0.401 A  
ENDBRANCH   4   8
TORSDOF 1
ENDMDL
MODEL      163
REMARK 921   NORMALIZED FREE ENERGY PREDICTED BY IDOCK:   -2.32 KCAL/MOL
REMARK 922        TOTAL FREE ENERGY PREDICTED BY IDOCK:   -2.60 KCAL/MOL
REMARK 923 INTER-LIGAND FREE ENERGY PREDICTED BY IDOCK:   -2.39 KCAL/MOL
REMARK 924 INTRA-LIGAND FREE ENERGY PREDICTED BY IDOCK:   -0.22 KCAL/MOL
REMARK 927      BINDING AFFINITY PREDICTED BY RF-SCORE:    0.00 PKD
ROOT
HETATM    1  C   UNL     1     -10.897  10.481  67.457  1.00  0.00    -0.357 C  
HETATM    2  C   UNL     1      -9.668  11.323  67.441  1.00  0.00    -0.173 C  
HETATM    3  N   UNL     1      -9.607  12.533  67.901  1.00  0.00    -0.199 NA 
HETATM    4  N   UNL     1      -8.302  12.956  67.706  1.00  0.00    -0.164 N  
HETATM    5  C   UNL     1      -8.391  10.826  66.853  1.00  0.00    -0.132 C  
HETATM    6  C   UNL     1      -7.478  11.985  67.111  1.00  0.00    -0.138 C  
HETATM    7  O   UNL     1      -6.293  11.999  66.822  1.00  0.00    -0.119 OA 
ENDROOT
BRANCH   4   8
HETATM    8  C   UNL     1      -7.947  14.278  68.081  1.00  0.00    -0.140 A  
HETATM    9  C   UNL     1      -7.155  14.538  69.208  1.00  0.00    -0.140 A  
HETATM   10  C   UNL     1      -6.792  15.846  69.548  1.00  0.00    -0.192 A  
HETATM   11  C   UNL     1      -7.216  16.917  68.768  1.00  0.00    -0.220 A  
HETATM   12  C   UNL     1      -8.009  16.681  67.649  1.00  0.00    -0.188 A  
HETATM   13  C   UNL     1      -8.373  15.373  67.311  1.00  0.00    -0.224 A  
ENDBRANCH   4   8
TORSDOF 1
ENDMDL
MODEL      164
REMARK 921   NORMALIZED FREE ENERGY PREDICTED BY IDOCK:   -2.17 KCAL/MOL
REMARK 922        TOTAL FREE ENERGY PREDICTED BY IDOCK:   -2.45 KCAL/MOL
REMARK 923 INTER-LIGAND FREE ENERGY PREDICTED BY IDOCK:   -2.23 KCAL/MOL
REMARK 924 INTRA-LIGAND FREE ENERGY PREDICTED BY IDOCK:   -0.22 KCAL/MOL
REMARK 927      BINDING AFFINITY PREDICTED BY RF-SCORE:    0.00 PKD
ROOT
HETATM    1  C   UNL     1      -6.240  10.470  65.853  1.00  0.00    -0.128 C  
HETATM    2  C   UNL     1      -7.014   9.206  65.991  1.00  0.00    -0.085 C  
HETATM    3  N   UNL     1      -7.719   8.892  67.032  1.00  0.00    -0.098 NA 
HETATM    4  N   UNL     1      -8.280   7.654  66.762  1.00  0.00    -0.121 N  
HETATM    5  C   UNL     1      -7.010   8.168  64.919  1.00  0.00    -0.074 C  
HETATM    6  C   UNL     1      -7.941   7.146  65.496  1.00  0.00    -0.122 C  
HETATM    7  O   UNL     1      -8.267   6.119  64.924  1.00  0.00    -0.136 OA 
ENDROOT
BRANCH   4   8
HETATM    8  C   UNL     1      -9.081   7.033  67.755  1.00  0.00    -0.126 A  
HETATM    9  C   UNL     1      -8.519   6.463  68.907  1.00  0.00    -0.121 A  
HETATM   10  C   UNL     1      -9.326   5.880  69.889  1.00  0.00    -0.173 A  
HETATM   11  C   UNL     1     -10.709   5.854  69.737  1.00  0.00    -0.411 A  
HETATM   12  C   UNL     1     -11.286   6.407  68.598  1.00  0.00    -0.338 A  
HETATM   13  C   UNL     1     -10.478   6.989  67.616  1.00  0.00    -0.301 A  
ENDBRANCH   4   8
TORSDOF 1
ENDMDL
MODEL      165
REMARK 921   NORMALIZED FREE ENERGY PREDICTED BY IDOCK:   -2.17 KCAL/MOL
REMARK 922        TOTAL FREE ENERGY PREDICTED BY IDOCK:   -2.45 KCAL/MOL
REMARK 923 INTER-LIGAND FREE ENERGY PREDICTED BY IDOCK:   -2.23 KCAL/MOL
REMARK 924 INTRA-LIGAND FREE ENERGY PREDICTED BY IDOCK:   -0.22 KCAL/MOL
REMARK 927      BINDING AFFINITY PREDICTED BY RF-SCORE:    0.00 PKD
ROOT
HETATM    1  C   UNL     1     -11.348   9.849  68.994  1.00  0.00    -0.073 C  
HETATM    2  C   UNL     1     -10.371   8.737  69.156  1.00  0.00    -0.217 C  
HETATM    3  N   UNL     1     -10.613   7.502  68.849  1.00  0.00    -0.199 NA 
HETATM    4  N   UNL     1      -9.457   6.796  69.140  1.00  0.00    -0.141 N  
HETATM    5  C   UNL     1      -9.011   8.971  69.724  1.00  0.00    -0.157 C  
HETATM    6  C   UNL     1      -8.418   7.599  69.641  1.00  0.00    -0.135 C  
HETATM    7  O   UNL     1      -7.276   7.327  69.971  1.00  0.00    -0.073 OA 
ENDROOT
BRANCH   4   8
HETATM    8  C   UNL     1      -9.444   5.391  68.941  1.00  0.00    -0.133 A  
HETATM    9  C   UNL     1      -9.291   4.827  67.666  1.00  0.00    -0.161 A  
HETATM   10  C   UNL     1      -9.253   3.439  67.492  1.00  0.00    -0.231 A  
HETATM   11  C   UNL     1      -9.370   2.591  68.589  1.00  0.00    -0.242 A  
HETATM   12  C   UNL     1      -9.530   3.130  69.861  1.00  0.00    -0.203 A  
HETATM   13  C   UNL     1      -9.570   4.518  70.034  1.00  0.00    -0.267 A  
ENDBRANCH   4   8
TORSDOF 1
ENDMDL
MODEL      166
REMARK 921   NORMALIZED FREE ENERGY PREDICTED BY IDOCK:   -2.16 KCAL/MOL
REMARK 922        TOTAL FREE ENERGY PREDICTED BY IDOCK:   -2.44 KCAL/MOL
REMARK 923 INTER-LIGAND FREE ENERGY PREDICTED BY IDOCK:   -2.23 KCAL/MOL
REMARK 924 INTRA-LIGAND FREE ENERGY PREDICTED BY IDOCK:   -0.20 KCAL/MOL
REMARK 927      BINDING AFFINITY PREDICTED BY RF-SCORE:    0.00 PKD
ROOT
HETATM    1  C   UNL     1     -10.208  10.220  69.279  1.00  0.00    -0.244 C  
HETATM    2  C   UNL     1     -10.189   8.732  69.336  1.00  0.00    -0.210 C  
HETATM    3  N   UNL     1      -9.643   7.974  68.438  1.00  0.00    -0.149 NA 
HETATM    4  N   UNL     1      -9.834   6.669  68.863  1.00  0.00    -0.138 N  
HETATM    5  C   UNL     1     -10.840   7.987  70.452  1.00  0.00    -0.247 C  
HETATM    6  C   UNL     1     -10.517   6.570  70.088  1.00  0.00    -0.214 C  
HETATM    7  O   UNL     1     -10.830   5.603  70.761  1.00  0.00    -0.265 OA 
ENDROOT
BRANCH   4   8
HETATM    8  C   UNL     1      -9.370   5.607  68.044  1.00  0.00    -0.108 A  
HETATM    9  C   UNL     1      -9.916   5.360  66.777  1.00  0.00    -0.217 A  
HETATM   10  C   UNL     1      -9.427   4.325  65.971  1.00  0.00    -0.177 A  
HETATM   11  C   UNL     1      -8.386   3.519  66.420  1.00  0.00    -0.102 A  
HETATM   12  C   UNL     1      -7.835   3.744  67.678  1.00  0.00    -0.081 A  
HETATM   13  C   UNL     1      -8.325   4.777  68.483  1.00  0.00    -0.083 A  
ENDBRANCH   4   8
TORSDOF 1
ENDMDL
MODEL      167
REMARK 921   NORMALIZED FREE ENERGY PREDICTED BY IDOCK:   -2.13 KCAL/MOL
REMARK 922        TOTAL FREE ENERGY PREDICTED BY IDOCK:   -2.40 KCAL/MOL
REMARK 923 INTER-LIGAND FREE ENERGY PREDICTED BY IDOCK:   -2.19 KCAL/MOL
REMARK 924 INTRA-LIGAND FREE ENERGY PREDICTED BY IDOCK:   -0.21 KCAL/MOL
REMARK 927      BINDING AFFINITY PREDICTED BY RF-SCORE:    0.00 PKD
ROOT
HETATM    1  C   UNL     1     -11.337  10.877  69.387  1.00  0.00    -0.347 C  
HETATM    2  C   UNL     1     -10.304   9.887  68.973  1.00  0.00    -0.209 C  
HETATM    3  N   UNL     1     -10.564   8.765  68.381  1.00  0.00    -0.180 NA 
HETATM    4  N   UNL     1      -9.343   8.148  68.164  1.00  0.00    -0.133 N  
HETATM    5  C   UNL     1      -8.854  10.115  69.242  1.00  0.00    -0.191 C  
HETATM    6  C   UNL     1      -8.244   8.899  68.616  1.00  0.00    -0.116 C  
HETATM    7  O   UNL     1      -7.045   8.683  68.568  1.00  0.00    -0.070 OA 
ENDROOT
BRANCH   4   8
HETATM    8  C   UNL     1      -9.322   6.864  67.560  1.00  0.00    -0.122 A  
HETATM    9  C   UNL     1      -9.791   5.725  68.230  1.00  0.00    -0.170 A  
HETATM   10  C   UNL     1      -9.789   4.471  67.608  1.00  0.00    -0.181 A  
HETATM   11  C   UNL     1      -9.315   4.333  66.308  1.00  0.00    -0.165 A  
HETATM   12  C   UNL     1      -8.838   5.450  65.628  1.00  0.00    -0.153 A  
HETATM   13  C   UNL     1      -8.839   6.703  66.250  1.00  0.00    -0.156 A  
ENDBRANCH   4   8
TORSDOF 1
ENDMDL
MODEL      168
REMARK 921   NORMALIZED FREE ENERGY PREDICTED BY IDOCK:   -2.01 KCAL/MOL
REMARK 922        TOTAL FREE ENERGY PREDICTED BY IDOCK:   -2.27 KCAL/MOL
REMARK 923 INTER-LIGAND FREE ENERGY PREDICTED BY IDOCK:   -2.05 KCAL/MOL
REMARK 924 INTRA-LIGAND FREE ENERGY PREDICTED BY IDOCK:   -0.22 KCAL/MOL
REMARK 927      BINDING AFFINITY PREDICTED BY RF-SCORE:    0.00 PKD
ROOT
HETATM    1  C   UNL     1      -9.988   4.250  69.800  1.00  0.00    -0.167 C  
HETATM    2  C   UNL     1      -9.951   5.719  70.045  1.00  0.00    -0.191 C  
HETATM    3  N   UNL     1      -9.119   6.532  69.475  1.00  0.00    -0.140 NA 
HETATM    4  N   UNL     1      -9.416   7.795  69.962  1.00  0.00    -0.161 N  
HETATM    5  C   UNL     1     -10.881   6.372  71.012  1.00  0.00    -0.314 C  
HETATM    6  C   UNL     1     -10.489   7.810  70.870  1.00  0.00    -0.206 C  
HETATM    7  O   UNL     1     -11.030   8.728  71.465  1.00  0.00    -0.259 OA 
ENDROOT
BRANCH   4   8
HETATM    8  C   UNL     1      -8.627   8.896  69.538  1.00  0.00    -0.134 A  
HETATM    9  C   UNL     1      -9.093   9.818  68.590  1.00  0.00    -0.130 A  
HETATM   10  C   UNL     1      -8.312  10.913  68.205  1.00  0.00    -0.123 A  
HETATM   11  C   UNL     1      -7.050  11.104  68.758  1.00  0.00    -0.093 A  
HETATM   12  C   UNL     1      -6.566  10.197  69.696  1.00  0.00    -0.069 A  
HETATM   13  C   UNL     1      -7.347   9.102  70.079  1.00  0.00    -0.070 A  
ENDBRANCH   4   8
TORSDOF 1
ENDMDL
MODEL      169
REMARK 921   NORMALIZED FREE ENERGY PREDICTED BY IDOCK:   -1.99 KCAL/MOL
REMARK 922        TOTAL FREE ENERGY PREDICTED BY IDOCK:   -2.26 KCAL/MOL
REMARK 923 INTER-LIGAND FREE ENERGY PREDICTED BY IDOCK:   -2.05 KCAL/MOL
REMARK 924 INTRA-LIGAND FREE ENERGY PREDICTED BY IDOCK:   -0.21 KCAL/MOL
REMARK 927      BINDING AFFINITY PREDICTED BY RF-SCORE:    0.00 PKD
ROOT
HETATM    1  C   UNL     1     -10.034   4.635  70.354  1.00  0.00    -0.300 C  
HETATM    2  C   UNL     1      -9.849   5.564  69.205  1.00  0.00    -0.167 C  
HETATM    3  N   UNL     1      -8.741   5.698  68.547  1.00  0.00    -0.110 NA 
HETATM    4  N   UNL     1      -8.986   6.643  67.563  1.00  0.00    -0.115 N  
HETATM    5  C   UNL     1     -10.952   6.450  68.733  1.00  0.00    -0.404 C  
HETATM    6  C   UNL     1     -10.303   7.133  67.569  1.00  0.00    -0.236 C  
HETATM    7  O   UNL     1     -10.868   7.937  66.846  1.00  0.00    -0.288 OA 
ENDROOT
BRANCH   4   8
HETATM    8  C   UNL     1      -7.924   7.028  66.704  1.00  0.00    -0.108 A  
HETATM    9  C   UNL     1      -7.916   6.691  65.343  1.00  0.00    -0.121 A  
HETATM   10  C   UNL     1      -6.875   7.104  64.504  1.00  0.00    -0.050 A  
HETATM   11  C   UNL     1      -5.821   7.857  65.012  1.00  0.00    -0.037 A  
HETATM   12  C   UNL     1      -5.806   8.196  66.362  1.00  0.00    -0.041 A  
HETATM   13  C   UNL     1      -6.847   7.782  67.200  1.00  0.00    -0.069 A  
ENDBRANCH   4   8
TORSDOF 1
ENDMDL
MODEL      170
REMARK 921   NORMALIZED FREE ENERGY PREDICTED BY IDOCK:   -1.94 KCAL/MOL
REMARK 922        TOTAL FREE ENERGY PREDICTED BY IDOCK:   -2.21 KCAL/MOL
REMARK 923 INTER-LIGAND FREE ENERGY PREDICTED BY IDOCK:   -2.29 KCAL/MOL
REMARK 924 INTRA-LIGAND FREE ENERGY PREDICTED BY IDOCK:    0.08 KCAL/MOL
REMARK 927      BINDING AFFINITY PREDICTED BY RF-SCORE:    0.00 PKD
ROOT
HETATM    1  C   UNL     1     -10.460   5.090  66.106  1.00  0.00    -0.334 C  
HETATM    2  C   UNL     1      -9.682   6.255  66.611  1.00  0.00    -0.155 C  
HETATM    3  N   UNL     1     -10.067   7.488  66.510  1.00  0.00    -0.179 NA 
HETATM    4  N   UNL     1      -9.076   8.255  67.102  1.00  0.00    -0.136 N  
HETATM    5  C   UNL     1      -8.352   6.081  67.264  1.00  0.00    -0.105 C  
HETATM    6  C   UNL     1      -8.012   7.496  67.620  1.00  0.00    -0.117 C  
HETATM    7  O   UNL     1      -7.002   7.826  68.219  1.00  0.00    -0.074 OA 
ENDROOT
BRANCH   4   8
HETATM    8  C   UNL     1      -9.210   9.667  67.101  1.00  0.00    -0.134 A  
HETATM    9  C   UNL     1     -10.456  10.291  66.941  1.00  0.00    -0.291 A  
HETATM   10  C   UNL     1     -10.573  11.685  66.971  1.00  0.00    -0.272 A  
HETATM   11  C   UNL     1      -9.447  12.480  67.159  1.00  0.00    -0.208 A  
HETATM   12  C   UNL     1      -8.200  11.881  67.313  1.00  0.00    -0.170 A  
HETATM   13  C   UNL     1      -8.084  10.488  67.282  1.00  0.00    -0.115 A  
ENDBRANCH   4   8
TORSDOF 1
ENDMDL
MODEL      171
REMARK 921   NORMALIZED FREE ENERGY PREDICTED BY IDOCK:   -1.94 KCAL/MOL
REMARK 922        TOTAL FREE ENERGY PREDICTED BY IDOCK:   -2.20 KCAL/MOL
REMARK 923 INTER-LIGAND FREE ENERGY PREDICTED BY IDOCK:   -2.12 KCAL/MOL
REMARK 924 INTRA-LIGAND FREE ENERGY PREDICTED BY IDOCK:   -0.08 KCAL/MOL
REMARK 927      BINDING AFFINITY PREDICTED BY RF-SCORE:    0.00 PKD
ROOT
HETATM    1  C   UNL     1      -7.994   9.566  70.679  1.00  0.00    -0.152 C  
HETATM    2  C   UNL     1      -8.188   8.089  70.652  1.00  0.00    -0.114 C  
HETATM    3  N   UNL     1      -8.935   7.436  71.485  1.00  0.00    -0.125 NA 
HETATM    4  N   UNL     1      -8.851   6.102  71.118  1.00  0.00    -0.139 N  
HETATM    5  C   UNL     1      -7.493   7.230  69.649  1.00  0.00    -0.094 C  
HETATM    6  C   UNL     1      -8.033   5.877  69.998  1.00  0.00    -0.105 C  
HETATM    7  O   UNL     1      -7.755   4.854  69.394  1.00  0.00    -0.066 OA 
ENDROOT
BRANCH   4   8
HETATM    8  C   UNL     1      -9.544   5.135  71.891  1.00  0.00    -0.150 A  
HETATM    9  C   UNL     1      -8.966   3.900  72.220  1.00  0.00    -0.138 A  
HETATM   10  C   UNL     1      -9.653   2.969  73.006  1.00  0.00    -0.144 A  
HETATM   11  C   UNL     1     -10.932   3.254  73.475  1.00  0.00    -0.324 A  
HETATM   12  C   UNL     1     -11.526   4.471  73.154  1.00  0.00    -0.274 A  
HETATM   13  C   UNL     1     -10.839   5.401  72.367  1.00  0.00    -0.297 A  
ENDBRANCH   4   8
TORSDOF 1
ENDMDL
MODEL      172
REMARK 921   NORMALIZED FREE ENERGY PREDICTED BY IDOCK:   -1.93 KCAL/MOL
REMARK 922        TOTAL FREE ENERGY PREDICTED BY IDOCK:   -2.20 KCAL/MOL
REMARK 923 INTER-LIGAND FREE ENERGY PREDICTED BY IDOCK:   -2.05 KCAL/MOL
REMARK 924 INTRA-LIGAND FREE ENERGY PREDICTED BY IDOCK:   -0.15 KCAL/MOL
REMARK 927      BINDING AFFINITY PREDICTED BY RF-SCORE:    0.00 PKD
ROOT
HETATM    1  C   UNL     1      -5.812   8.018  65.302  1.00  0.00    -0.041 C  
HETATM    2  C   UNL     1      -6.755   7.142  66.053  1.00  0.00    -0.053 C  
HETATM    3  N   UNL     1      -7.506   7.546  67.028  1.00  0.00    -0.096 NA 
HETATM    4  N   UNL     1      -8.230   6.441  67.444  1.00  0.00    -0.116 N  
HETATM    5  C   UNL     1      -6.886   5.689  65.741  1.00  0.00    -0.057 C  
HETATM    6  C   UNL     1      -7.954   5.277  66.707  1.00  0.00    -0.104 C  
HETATM    7  O   UNL     1      -8.414   4.149  66.776  1.00  0.00    -0.104 OA 
ENDROOT
BRANCH   4   8
HETATM    8  C   UNL     1      -9.118   6.577  68.543  1.00  0.00    -0.127 A  
HETATM    9  C   UNL     1     -10.458   6.176  68.464  1.00  0.00    -0.284 A  
HETATM   10  C   UNL     1     -11.312   6.292  69.566  1.00  0.00    -0.475 A  
HETATM   11  C   UNL     1     -10.841   6.814  70.767  1.00  0.00    -0.291 A  
HETATM   12  C   UNL     1      -9.515   7.225  70.864  1.00  0.00    -0.159 A  
HETATM   13  C   UNL     1      -8.663   7.109  69.761  1.00  0.00    -0.142 A  
ENDBRANCH   4   8
TORSDOF 1
ENDMDL
MODEL      173
REMARK 921   NORMALIZED FREE ENERGY PREDICTED BY IDOCK:   -1.89 KCAL/MOL
REMARK 922        TOTAL FREE ENERGY PREDICTED BY IDOCK:   -2.16 KCAL/MOL
REMARK 923 INTER-LIGAND FREE ENERGY PREDICTED BY IDOCK:   -1.94 KCAL/MOL
REMARK 924 INTRA-LIGAND FREE ENERGY PREDICTED BY IDOCK:   -0.22 KCAL/MOL
REMARK 927      BINDING AFFINITY PREDICTED BY RF-SCORE:    0.00 PKD
ROOT
HETATM    1  C   UNL     1     -12.564   6.597  71.859  1.00  0.00    -0.303 C  
HETATM    2  C   UNL     1     -11.190   6.760  71.310  1.00  0.00    -0.276 C  
HETATM    3  N   UNL     1     -10.135   6.964  72.034  1.00  0.00    -0.186 NA 
HETATM    4  N   UNL     1      -9.070   7.051  71.151  1.00  0.00    -0.153 N  
HETATM    5  C   UNL     1     -10.928   6.724  69.842  1.00  0.00    -0.340 C  
HETATM    6  C   UNL     1      -9.439   6.884  69.806  1.00  0.00    -0.145 C  
HETATM    7  O   UNL     1      -8.775   6.873  68.782  1.00  0.00    -0.129 OA 
ENDROOT
BRANCH   4   8
HETATM    8  C   UNL     1      -7.774   7.317  71.665  1.00  0.00    -0.087 A  
HETATM    9  C   UNL     1      -7.032   6.338  72.341  1.00  0.00    -0.078 A  
HETATM   10  C   UNL     1      -5.744   6.610  72.816  1.00  0.00    -0.038 A  
HETATM   11  C   UNL     1      -5.177   7.866  72.628  1.00  0.00    -0.036 A  
HETATM   12  C   UNL     1      -5.900   8.854  71.966  1.00  0.00    -0.065 A  
HETATM   13  C   UNL     1      -7.187   8.582  71.492  1.00  0.00    -0.104 A  
ENDBRANCH   4   8
TORSDOF 1
ENDMDL
MODEL      174
REMARK 921   NORMALIZED FREE ENERGY PREDICTED BY IDOCK:   -1.82 KCAL/MOL
REMARK 922        TOTAL FREE ENERGY PREDICTED BY IDOCK:   -2.08 KCAL/MOL
REMARK 923 INTER-LIGAND FREE ENERGY PREDICTED BY IDOCK:   -2.14 KCAL/MOL
REMARK 924 INTRA-LIGAND FREE ENERGY PREDICTED BY IDOCK:    0.06 KCAL/MOL
REMARK 927      BINDING AFFINITY PREDICTED BY RF-SCORE:    0.00 PKD
ROOT
HETATM    1  C   UNL     1     -10.251   5.086  66.578  1.00  0.00    -0.307 C  
HETATM    2  C   UNL     1      -9.605   5.007  67.918  1.00  0.00    -0.140 C  
HETATM    3  N   UNL     1     -10.195   5.311  69.031  1.00  0.00    -0.209 NA 
HETATM    4  N   UNL     1      -9.263   5.098  70.034  1.00  0.00    -0.129 N  
HETATM    5  C   UNL     1      -8.183   4.585  68.074  1.00  0.00    -0.094 C  
HETATM    6  C   UNL     1      -8.027   4.625  69.563  1.00  0.00    -0.062 C  
HETATM    7  O   UNL     1      -7.005   4.310  70.151  1.00  0.00    -0.040 OA 
ENDROOT
BRANCH   4   8
HETATM    8  C   UNL     1      -9.621   5.392  71.375  1.00  0.00    -0.156 A  
HETATM    9  C   UNL     1      -8.656   5.549  72.380  1.00  0.00    -0.118 A  
HETATM   10  C   UNL     1      -9.026   5.867  73.692  1.00  0.00    -0.127 A  
HETATM   11  C   UNL     1     -10.368   6.030  74.023  1.00  0.00    -0.301 A  
HETATM   12  C   UNL     1     -11.342   5.871  73.042  1.00  0.00    -0.211 A  
HETATM   13  C   UNL     1     -10.971   5.552  71.731  1.00  0.00    -0.249 A  
ENDBRANCH   4   8
TORSDOF 1
ENDMDL
MODEL      175
REMARK 921   NORMALIZED FREE ENERGY PREDICTED BY IDOCK:   -1.77 KCAL/MOL
REMARK 922        TOTAL FREE ENERGY PREDICTED BY IDOCK:   -2.03 KCAL/MOL
REMARK 923 INTER-LIGAND FREE ENERGY PREDICTED BY IDOCK:   -1.93 KCAL/MOL
REMARK 924 INTRA-LIGAND FREE ENERGY PREDICTED BY IDOCK:   -0.10 KCAL/MOL
REMARK 927      BINDING AFFINITY PREDICTED BY RF-SCORE:    0.00 PKD
ROOT
HETATM    1  C   UNL     1     -10.259   4.224  71.911  1.00  0.00    -0.200 C  
HETATM    2  C   UNL     1      -9.871   5.137  70.800  1.00  0.00    -0.202 C  
HETATM    3  N   UNL     1      -9.370   6.320  70.969  1.00  0.00    -0.160 NA 
HETATM    4  N   UNL     1      -9.143   6.831  69.701  1.00  0.00    -0.143 N  
HETATM    5  C   UNL     1     -10.061   4.752  69.372  1.00  0.00    -0.241 C  
HETATM    6  C   UNL     1      -9.495   5.946  68.667  1.00  0.00    -0.122 C  
HETATM    7  O   UNL     1      -9.411   6.048  67.454  1.00  0.00    -0.112 OA 
ENDROOT
BRANCH   4   8
HETATM    8  C   UNL     1      -8.630   8.148  69.574  1.00  0.00    -0.134 A  
HETATM    9  C   UNL     1      -9.158   9.060  68.650  1.00  0.00    -0.137 A  
HETATM   10  C   UNL     1      -8.657  10.364  68.558  1.00  0.00    -0.134 A  
HETATM   11  C   UNL     1      -7.619  10.777  69.387  1.00  0.00    -0.114 A  
HETATM   12  C   UNL     1      -7.076   9.884  70.306  1.00  0.00    -0.155 A  
HETATM   13  C   UNL     1      -7.576   8.581  70.396  1.00  0.00    -0.074 A  
ENDBRANCH   4   8
TORSDOF 1
ENDMDL
MODEL      176
REMARK 921   NORMALIZED FREE ENERGY PREDICTED BY IDOCK:   -1.57 KCAL/MOL
REMARK 922        TOTAL FREE ENERGY PREDICTED BY IDOCK:   -1.82 KCAL/MOL
REMARK 923 INTER-LIGAND FREE ENERGY PREDICTED BY IDOCK:   -1.76 KCAL/MOL
REMARK 924 INTRA-LIGAND FREE ENERGY PREDICTED BY IDOCK:   -0.06 KCAL/MOL
REMARK 927      BINDING AFFINITY PREDICTED BY RF-SCORE:    0.00 PKD
ROOT
HETATM    1  C   UNL     1      -8.363   9.914  69.785  1.00  0.00    -0.196 C  
HETATM    2  C   UNL     1      -8.246   8.739  68.877  1.00  0.00    -0.118 C  
HETATM    3  N   UNL     1      -8.642   7.543  69.176  1.00  0.00    -0.136 NA 
HETATM    4  N   UNL     1      -8.363   6.754  68.072  1.00  0.00    -0.120 N  
HETATM    5  C   UNL     1      -7.620   8.857  67.527  1.00  0.00    -0.093 C  
HETATM    6  C   UNL     1      -7.777   7.461  67.008  1.00  0.00    -0.111 C  
HETATM    7  O   UNL     1      -7.429   7.103  65.895  1.00  0.00    -0.076 OA 
ENDROOT
BRANCH   4   8
HETATM    8  C   UNL     1      -8.655   5.366  68.130  1.00  0.00    -0.096 A  
HETATM    9  C   UNL     1      -9.150   4.668  67.019  1.00  0.00    -0.126 A  
HETATM   10  C   UNL     1      -9.406   3.294  67.087  1.00  0.00    -0.212 A  
HETATM   11  C   UNL     1      -9.175   2.594  68.267  1.00  0.00    -0.255 A  
HETATM   12  C   UNL     1      -8.691   3.270  69.383  1.00  0.00    -0.132 A  
HETATM   13  C   UNL     1      -8.436   4.643  69.315  1.00  0.00    -0.090 A  
ENDBRANCH   4   8
TORSDOF 1
ENDMDL
MODEL      177
REMARK 921   NORMALIZED FREE ENERGY PREDICTED BY IDOCK:   -1.55 KCAL/MOL
REMARK 922        TOTAL FREE ENERGY PREDICTED BY IDOCK:   -1.79 KCAL/MOL
REMARK 923 INTER-LIGAND FREE ENERGY PREDICTED BY IDOCK:   -1.70 KCAL/MOL
REMARK 924 INTRA-LIGAND FREE ENERGY PREDICTED BY IDOCK:   -0.09 KCAL/MOL
REMARK 927      BINDING AFFINITY PREDICTED BY RF-SCORE:    0.00 PKD
ROOT
HETATM    1  C   UNL     1      -8.655   5.550  69.551  1.00  0.00    -0.105 C  
HETATM    2  C   UNL     1      -8.979   6.452  68.411  1.00  0.00    -0.120 C  
HETATM    3  N   UNL     1      -8.269   6.547  67.331  1.00  0.00    -0.120 NA 
HETATM    4  N   UNL     1      -8.907   7.478  66.527  1.00  0.00    -0.141 N  
HETATM    5  C   UNL     1     -10.165   7.356  68.444  1.00  0.00    -0.207 C  
HETATM    6  C   UNL     1     -10.082   8.000  67.095  1.00  0.00    -0.263 C  
HETATM    7  O   UNL     1     -10.895   8.803  66.670  1.00  0.00    -0.079 OA 
ENDROOT
BRANCH   4   8
HETATM    8  C   UNL     1      -8.323   7.821  65.280  1.00  0.00    -0.122 A  
HETATM    9  C   UNL     1      -8.250   9.150  64.839  1.00  0.00    -0.154 A  
HETATM   10  C   UNL     1      -7.646   9.472  63.619  1.00  0.00    -0.119 A  
HETATM   11  C   UNL     1      -7.106   8.472  62.817  1.00  0.00    -0.091 A  
HETATM   12  C   UNL     1      -7.175   7.146  63.233  1.00  0.00    -0.071 A  
HETATM   13  C   UNL     1      -7.780   6.824  64.452  1.00  0.00    -0.109 A  
ENDBRANCH   4   8
TORSDOF 1
ENDMDL
MODEL      178
REMARK 921   NORMALIZED FREE ENERGY PREDICTED BY IDOCK:   -1.53 KCAL/MOL
REMARK 922        TOTAL FREE ENERGY PREDICTED BY IDOCK:   -1.77 KCAL/MOL
REMARK 923 INTER-LIGAND FREE ENERGY PREDICTED BY IDOCK:   -1.71 KCAL/MOL
REMARK 924 INTRA-LIGAND FREE ENERGY PREDICTED BY IDOCK:   -0.05 KCAL/MOL
REMARK 927      BINDING AFFINITY PREDICTED BY RF-SCORE:    0.00 PKD
ROOT
HETATM    1  C   UNL     1      -5.988  10.258  68.870  1.00  0.00    -0.040 C  
HETATM    2  C   UNL     1      -6.551   9.597  70.080  1.00  0.00    -0.072 C  
HETATM    3  N   UNL     1      -7.570   8.796  70.066  1.00  0.00    -0.059 NA 
HETATM    4  N   UNL     1      -7.767   8.395  71.378  1.00  0.00    -0.090 N  
HETATM    5  C   UNL     1      -5.981   9.838  71.437  1.00  0.00     0.005 C  
HETATM    6  C   UNL     1      -6.837   8.942  72.279  1.00  0.00     0.100 C  
HETATM    7  O   UNL     1      -6.693   8.792  73.481  1.00  0.00    -0.302 OA 
ENDROOT
BRANCH   4   8
HETATM    8  C   UNL     1      -8.856   7.536  71.676  1.00  0.00    -0.116 A  
HETATM    9  C   UNL     1      -8.754   6.521  72.638  1.00  0.00    -0.125 A  
HETATM   10  C   UNL     1      -9.847   5.701  72.938  1.00  0.00    -0.183 A  
HETATM   11  C   UNL     1     -11.060   5.878  72.280  1.00  0.00    -0.330 A  
HETATM   12  C   UNL     1     -11.179   6.875  71.317  1.00  0.00    -0.306 A  
HETATM   13  C   UNL     1     -10.086   7.694  71.016  1.00  0.00    -0.196 A  
ENDBRANCH   4   8
TORSDOF 1
ENDMDL
MODEL      179
REMARK 921   NORMALIZED FREE ENERGY PREDICTED BY IDOCK:   -1.47 KCAL/MOL
REMARK 922        TOTAL FREE ENERGY PREDICTED BY IDOCK:   -1.71 KCAL/MOL
REMARK 923 INTER-LIGAND FREE ENERGY PREDICTED BY IDOCK:   -1.54 KCAL/MOL
REMARK 924 INTRA-LIGAND FREE ENERGY PREDICTED BY IDOCK:   -0.16 KCAL/MOL
REMARK 927      BINDING AFFINITY PREDICTED BY RF-SCORE:    0.00 PKD
ROOT
HETATM    1  C   UNL     1     -10.187  10.128  69.146  1.00  0.00    -0.229 C  
HETATM    2  C   UNL     1      -9.817   8.745  68.736  1.00  0.00    -0.171 C  
HETATM    3  N   UNL     1      -8.811   8.455  67.973  1.00  0.00    -0.141 NA 
HETATM    4  N   UNL     1      -8.809   7.075  67.842  1.00  0.00    -0.124 N  
HETATM    5  C   UNL     1     -10.618   7.563  69.169  1.00  0.00    -0.204 C  
HETATM    6  C   UNL     1      -9.840   6.440  68.555  1.00  0.00    -0.138 C  
HETATM    7  O   UNL     1     -10.122   5.261  68.688  1.00  0.00    -0.168 OA 
ENDROOT
BRANCH   4   8
HETATM    8  C   UNL     1      -7.829   6.467  67.015  1.00  0.00    -0.108 A  
HETATM    9  C   UNL     1      -7.682   6.816  65.665  1.00  0.00    -0.102 A  
HETATM   10  C   UNL     1      -6.691   6.227  64.872  1.00  0.00    -0.043 A  
HETATM   11  C   UNL     1      -5.833   5.275  65.413  1.00  0.00    -0.021 A  
HETATM   12  C   UNL     1      -5.967   4.909  66.749  1.00  0.00    -0.027 A  
HETATM   13  C   UNL     1      -6.958   5.498  67.541  1.00  0.00    -0.066 A  
ENDBRANCH   4   8
TORSDOF 1
ENDMDL
MODEL      180
REMARK 921   NORMALIZED FREE ENERGY PREDICTED BY IDOCK:   -1.35 KCAL/MOL
REMARK 922        TOTAL FREE ENERGY PREDICTED BY IDOCK:   -1.58 KCAL/MOL
REMARK 923 INTER-LIGAND FREE ENERGY PREDICTED BY IDOCK:   -1.49 KCAL/MOL
REMARK 924 INTRA-LIGAND FREE ENERGY PREDICTED BY IDOCK:   -0.09 KCAL/MOL
REMARK 927      BINDING AFFINITY PREDICTED BY RF-SCORE:    0.00 PKD
ROOT
HETATM    1  C   UNL     1      -7.577   8.079  68.491  1.00  0.00    -0.104 C  
HETATM    2  C   UNL     1      -7.759   7.329  67.217  1.00  0.00    -0.109 C  
HETATM    3  N   UNL     1      -8.154   6.097  67.146  1.00  0.00    -0.106 NA 
HETATM    4  N   UNL     1      -8.200   5.781  65.798  1.00  0.00    -0.119 N  
HETATM    5  C   UNL     1      -7.466   7.955  65.895  1.00  0.00    -0.078 C  
HETATM    6  C   UNL     1      -7.836   6.847  64.957  1.00  0.00    -0.121 C  
HETATM    7  O   UNL     1      -7.788   6.936  63.742  1.00  0.00    -0.121 OA 
ENDROOT
BRANCH   4   8
HETATM    8  C   UNL     1      -8.564   4.464  65.414  1.00  0.00    -0.122 A  
HETATM    9  C   UNL     1      -8.037   3.335  66.058  1.00  0.00    -0.093 A  
HETATM   10  C   UNL     1      -8.429   2.045  65.685  1.00  0.00    -0.100 A  
HETATM   11  C   UNL     1      -9.352   1.860  64.661  1.00  0.00    -0.118 A  
HETATM   12  C   UNL     1      -9.881   2.967  64.004  1.00  0.00    -0.154 A  
HETATM   13  C   UNL     1      -9.488   4.256  64.377  1.00  0.00    -0.149 A  
ENDBRANCH   4   8
TORSDOF 1
ENDMDL
MODEL      181
REMARK 921   NORMALIZED FREE ENERGY PREDICTED BY IDOCK:   -1.28 KCAL/MOL
REMARK 922        TOTAL FREE ENERGY PREDICTED BY IDOCK:   -1.50 KCAL/MOL
REMARK 923 INTER-LIGAND FREE ENERGY PREDICTED BY IDOCK:   -1.29 KCAL/MOL
REMARK 924 INTRA-LIGAND FREE ENERGY PREDICTED BY IDOCK:   -0.22 KCAL/MOL
REMARK 927      BINDING AFFINITY PREDICTED BY RF-SCORE:    0.00 PKD
ROOT
HETATM    1  C   UNL     1     -10.360   4.404  65.645  1.00  0.00    -0.252 C  
HETATM    2  C   UNL     1      -9.091   5.138  65.904  1.00  0.00    -0.153 C  
HETATM    3  N   UNL     1      -8.940   6.415  65.740  1.00  0.00    -0.103 NA 
HETATM    4  N   UNL     1      -7.630   6.699  66.093  1.00  0.00    -0.084 N  
HETATM    5  C   UNL     1      -7.859   4.430  66.359  1.00  0.00    -0.098 C  
HETATM    6  C   UNL     1      -6.904   5.573  66.515  1.00  0.00    -0.059 C  
HETATM    7  O   UNL     1      -5.757   5.455  66.915  1.00  0.00    -0.016 OA 
ENDROOT
BRANCH   4   8
HETATM    8  C   UNL     1      -7.162   8.033  65.971  1.00  0.00    -0.069 A  
HETATM    9  C   UNL     1      -6.946   8.845  67.094  1.00  0.00    -0.075 A  
HETATM   10  C   UNL     1      -6.457  10.149  66.956  1.00  0.00    -0.069 A  
HETATM   11  C   UNL     1      -6.180  10.666  65.694  1.00  0.00    -0.115 A  
HETATM   12  C   UNL     1      -6.395   9.878  64.567  1.00  0.00    -0.119 A  
HETATM   13  C   UNL     1      -6.884   8.575  64.705  1.00  0.00    -0.072 A  
ENDBRANCH   4   8
TORSDOF 1
ENDMDL
MODEL      182
REMARK 921   NORMALIZED FREE ENERGY PREDICTED BY IDOCK:   -1.09 KCAL/MOL
REMARK 922        TOTAL FREE ENERGY PREDICTED BY IDOCK:   -1.31 KCAL/MOL
REMARK 923 INTER-LIGAND FREE ENERGY PREDICTED BY IDOCK:   -1.10 KCAL/MOL
REMARK 924 INTRA-LIGAND FREE ENERGY PREDICTED BY IDOCK:   -0.21 KCAL/MOL
REMARK 927      BINDING AFFINITY PREDICTED BY RF-SCORE:    0.00 PKD
ROOT
HETATM    1  C   UNL     1      -8.367  11.473  68.565  1.00  0.00    -0.146 C  
HETATM    2  C   UNL     1      -7.713  10.340  67.853  1.00  0.00    -0.089 C  
HETATM    3  N   UNL     1      -7.829  10.113  66.583  1.00  0.00    -0.108 NA 
HETATM    4  N   UNL     1      -7.070   8.984  66.320  1.00  0.00    -0.085 N  
HETATM    5  C   UNL     1      -6.875   9.343  68.580  1.00  0.00    -0.062 C  
HETATM    6  C   UNL     1      -6.424   8.463  67.455  1.00  0.00    -0.058 C  
HETATM    7  O   UNL     1      -5.670   7.513  67.590  1.00  0.00    -0.032 OA 
ENDROOT
BRANCH   4   8
HETATM    8  C   UNL     1      -7.042   8.469  64.998  1.00  0.00    -0.079 A  
HETATM    9  C   UNL     1      -6.418   9.159  63.950  1.00  0.00    -0.089 A  
HETATM   10  C   UNL     1      -6.376   8.624  62.658  1.00  0.00    -0.091 A  
HETATM   11  C   UNL     1      -6.961   7.390  62.390  1.00  0.00    -0.071 A  
HETATM   12  C   UNL     1      -7.593   6.692  63.415  1.00  0.00    -0.085 A  
HETATM   13  C   UNL     1      -7.635   7.229  64.706  1.00  0.00    -0.104 A  
ENDBRANCH   4   8
TORSDOF 1
ENDMDL
MODEL      183
REMARK 921   NORMALIZED FREE ENERGY PREDICTED BY IDOCK:    1.63 KCAL/MOL
REMARK 922        TOTAL FREE ENERGY PREDICTED BY IDOCK:    1.58 KCAL/MOL
REMARK 923 INTER-LIGAND FREE ENERGY PREDICTED BY IDOCK:    1.54 KCAL/MOL
REMARK 924 INTRA-LIGAND FREE ENERGY PREDICTED BY IDOCK:    0.04 KCAL/MOL
REMARK 927      BINDING AFFINITY PREDICTED BY RF-SCORE:    0.00 PKD
ROOT
HETATM    1  C   UNL     1     -12.386  11.441  68.477  1.00  0.00     0.294 C  
HETATM    2  C   UNL     1     -11.468  10.306  68.776  1.00  0.00    -0.113 C  
HETATM    3  N   UNL     1     -10.553  10.330  69.694  1.00  0.00    -0.240 NA 
HETATM    4  N   UNL     1      -9.932   9.092  69.654  1.00  0.00    -0.183 N  
HETATM    5  C   UNL     1     -11.522   9.034  67.998  1.00  0.00     1.001 C  
HETATM    6  C   UNL     1     -10.467   8.224  68.687  1.00  0.00    -0.168 C  
HETATM    7  O   UNL     1     -10.192   7.072  68.396  1.00  0.00    -0.165 OA 
ENDROOT
BRANCH   4   8
HETATM    8  C   UNL     1      -8.846   8.843  70.533  1.00  0.00    -0.192 A  
HETATM    9  C   UNL     1      -8.464   7.540  70.884  1.00  0.00    -0.125 A  
HETATM   10  C   UNL     1      -7.373   7.312  71.730  1.00  0.00    -0.080 A  
HETATM   11  C   UNL     1      -6.647   8.382  72.242  1.00  0.00    -0.089 A  
HETATM   12  C   UNL     1      -7.014   9.683  71.912  1.00  0.00     0.764 A  
HETATM   13  C   UNL     1      -8.106   9.910  71.068  1.00  0.00     0.833 A  
ENDBRANCH   4   8
TORSDOF 1
ENDMDL
