MODEL        1
REMARK 921   NORMALIZED FREE ENERGY PREDICTED BY IDOCK:   -6.07 KCAL/MOL
REMARK 922        TOTAL FREE ENERGY PREDICTED BY IDOCK:   -9.99 KCAL/MOL
REMARK 923 INTER-LIGAND FREE ENERGY PREDICTED BY IDOCK:   -8.55 KCAL/MOL
REMARK 924 INTRA-LIGAND FREE ENERGY PREDICTED BY IDOCK:   -1.44 KCAL/MOL
REMARK 927      BINDING AFFINITY PREDICTED BY RF-SCORE:    0.00 PKD
ROOT
HETATM    1 NA   UNL     1     -13.234  15.392  63.876  1.00  0.00    -0.634 Na 
HETATM    2 NA   UNL     2      -9.270  13.074  63.493  1.00  0.00    -0.465 Na 
HETATM    3 CA   UNL     3     -13.637  14.221  69.227  1.00  0.00    -0.293 Ca 
HETATM    4  O   UNL     4     -11.377  16.030  64.451  1.00  0.00    -0.476 OA 
HETATM    5  C   UNL     4     -10.474  15.444  65.117  1.00  0.00    -0.411 C  
HETATM    6  O   UNL     4     -10.047  14.280  64.807  1.00  0.00    -0.365 OA 
HETATM    7  C   UNL     4      -9.817  16.084  66.356  1.00  0.00    -0.288 C  
ENDROOT
BRANCH   7   8
HETATM    8  N   UNL     4     -10.515  17.204  67.047  1.00  0.00    -0.309 NA 
BRANCH   8   9
HETATM    9  C   UNL     4     -11.094  16.981  68.375  1.00  0.00    -0.164 C  
BRANCH   9  10
HETATM   10  C   UNL     4     -10.430  15.930  69.267  1.00  0.00    -0.253 C  
BRANCH  10  11
HETATM   11  N   UNL     4     -11.263  14.723  69.497  1.00  0.00    -0.267 NA 
BRANCH  11  12
HETATM   12  C   UNL     4     -10.716  13.479  68.866  1.00  0.00    -0.201 C  
HETATM   13  O   UNL     4     -12.148  11.733  68.001  1.00  0.00    -0.572 OA 
HETATM   14  O   UNL     4     -12.390  13.900  67.241  1.00  0.00    -0.347 OA 
HETATM   15  C   UNL     4     -11.832  12.944  67.900  1.00  0.00    -0.339 C  
ENDBRANCH  11  12
BRANCH  11  16
HETATM   16  C   UNL     4     -11.434  14.500  70.979  1.00  0.00    -0.086 C  
HETATM   17  C   UNL     4     -12.367  15.642  71.480  1.00  0.00    -0.428 C  
HETATM   18  O   UNL     4     -11.835  16.458  72.286  1.00  0.00    -0.534 OA 
HETATM   19  O   UNL     4     -13.435  15.739  70.764  1.00  0.00    -0.520 OA 
ENDBRANCH  11  16
ENDBRANCH  10  11
ENDBRANCH   9  10
ENDBRANCH   8   9
BRANCH   8  20
HETATM   20  C   UNL     4      -9.519  18.345  67.178  1.00  0.00    -0.282 C  
HETATM   21  C   UNL     4      -9.955  19.711  66.519  1.00  0.00    -0.440 C  
HETATM   22  O   UNL     4      -9.581  20.743  67.152  1.00  0.00    -0.433 OA 
HETATM   23  O   UNL     4     -10.628  19.665  65.432  1.00  0.00    -0.443 OA 
ENDBRANCH   8  20
ENDBRANCH   7   8
TORSDOF 7
ENDMDL
MODEL        2
REMARK 921   NORMALIZED FREE ENERGY PREDICTED BY IDOCK:   -5.98 KCAL/MOL
REMARK 922        TOTAL FREE ENERGY PREDICTED BY IDOCK:   -9.88 KCAL/MOL
REMARK 923 INTER-LIGAND FREE ENERGY PREDICTED BY IDOCK:   -8.80 KCAL/MOL
REMARK 924 INTRA-LIGAND FREE ENERGY PREDICTED BY IDOCK:   -1.08 KCAL/MOL
REMARK 927      BINDING AFFINITY PREDICTED BY RF-SCORE:    0.00 PKD
ROOT
HETATM    1 NA   UNL     1     -12.549  12.003  69.881  1.00  0.00    -0.252 Na 
HETATM    2 NA   UNL     2     -11.327   8.332  67.377  1.00  0.00    -0.463 Na 
HETATM    3 CA   UNL     3      -7.383  13.861  70.048  1.00  0.00    -0.301 Ca 
HETATM    4  O   UNL     4     -12.161  11.959  67.872  1.00  0.00    -0.508 OA 
HETATM    5  C   UNL     4     -11.202  11.441  67.228  1.00  0.00    -0.304 C  
HETATM    6  O   UNL     4     -10.858  10.220  67.385  1.00  0.00    -0.279 OA 
HETATM    7  C   UNL     4     -10.369  12.239  66.206  1.00  0.00    -0.232 C  
ENDROOT
BRANCH   7   8
HETATM    8  N   UNL     4     -10.390  13.727  66.261  1.00  0.00    -0.287 NA 
BRANCH   8   9
HETATM    9  C   UNL     4      -9.183  14.450  66.675  1.00  0.00    -0.261 C  
BRANCH   9  10
HETATM   10  C   UNL     4      -9.323  15.463  67.813  1.00  0.00    -0.195 C  
BRANCH  10  11
HETATM   11  N   UNL     4      -9.139  16.874  67.390  1.00  0.00    -0.216 NA 
BRANCH  11  12
HETATM   12  C   UNL     4     -10.213  17.798  67.875  1.00  0.00    -0.361 C  
HETATM   13  O   UNL     4     -10.516  20.017  66.964  1.00  0.00    -0.434 OA 
HETATM   14  O   UNL     4     -10.542  18.185  65.559  1.00  0.00    -0.638 OA 
HETATM   15  C   UNL     4     -10.511  18.791  66.696  1.00  0.00    -0.426 C  
ENDBRANCH  11  12
BRANCH  11  16
HETATM   16  C   UNL     4      -7.796  17.374  67.861  1.00  0.00    -0.201 C  
HETATM   17  C   UNL     4      -6.863  17.337  66.614  1.00  0.00    -0.237 C  
HETATM   18  O   UNL     4      -5.899  16.522  66.686  1.00  0.00    -0.330 OA 
HETATM   19  O   UNL     4      -7.396  17.925  65.598  1.00  0.00    -0.533 OA 
ENDBRANCH  11  16
ENDBRANCH  10  11
ENDBRANCH   9  10
ENDBRANCH   8   9
BRANCH   8  20
HETATM   20  C   UNL     4     -10.756  14.226  64.872  1.00  0.00    -0.432 C  
HETATM   21  C   UNL     4     -12.258  14.670  64.680  1.00  0.00    -0.434 C  
HETATM   22  O   UNL     4     -12.419  15.656  63.901  1.00  0.00    -0.693 OA 
HETATM   23  O   UNL     4     -13.162  14.017  65.307  1.00  0.00    -0.782 OA 
ENDBRANCH   8  20
ENDBRANCH   7   8
TORSDOF 7
ENDMDL
MODEL        3
REMARK 921   NORMALIZED FREE ENERGY PREDICTED BY IDOCK:   -5.94 KCAL/MOL
REMARK 922        TOTAL FREE ENERGY PREDICTED BY IDOCK:   -9.81 KCAL/MOL
REMARK 923 INTER-LIGAND FREE ENERGY PREDICTED BY IDOCK:   -8.22 KCAL/MOL
REMARK 924 INTRA-LIGAND FREE ENERGY PREDICTED BY IDOCK:   -1.59 KCAL/MOL
REMARK 927      BINDING AFFINITY PREDICTED BY RF-SCORE:    0.00 PKD
ROOT
HETATM    1 NA   UNL     1     -14.216  11.010  72.605  1.00  0.00    -0.501 Na 
HETATM    2 NA   UNL     2     -11.161   7.640  73.345  1.00  0.00    -0.290 Na 
HETATM    3 CA   UNL     3     -10.242  14.738  71.915  1.00  0.00    -0.481 Ca 
HETATM    4  O   UNL     4     -13.123  10.009  71.193  1.00  0.00    -0.370 OA 
HETATM    5  C   UNL     4     -11.890   9.729  71.151  1.00  0.00    -0.382 C  
HETATM    6  O   UNL     4     -11.292   9.145  72.119  1.00  0.00    -0.330 OA 
HETATM    7  C   UNL     4     -11.007  10.069  69.935  1.00  0.00    -0.293 C  
ENDROOT
BRANCH   7   8
HETATM    8  N   UNL     4     -11.474  11.104  68.970  1.00  0.00    -0.267 NA 
BRANCH   8   9
HETATM    9  C   UNL     4     -11.236  12.520  69.263  1.00  0.00    -0.194 C  
BRANCH   9  10
HETATM   10  C   UNL     4     -12.176  13.203  70.258  1.00  0.00    -0.306 C  
BRANCH  10  11
HETATM   11  N   UNL     4     -12.086  14.685  70.253  1.00  0.00    -0.299 NA 
BRANCH  11  12
HETATM   12  C   UNL     4     -11.868  15.275  68.894  1.00  0.00    -0.320 C  
HETATM   13  O   UNL     4     -10.760  17.400  68.571  1.00  0.00    -0.348 OA 
HETATM   14  O   UNL     4      -9.696  15.714  69.736  1.00  0.00    -0.284 OA 
HETATM   15  C   UNL     4     -10.631  16.234  69.019  1.00  0.00    -0.286 C  
ENDBRANCH  11  12
BRANCH  11  16
HETATM   16  C   UNL     4     -13.336  15.271  70.861  1.00  0.00    -0.419 C  
HETATM   17  C   UNL     4     -12.950  15.696  72.309  1.00  0.00    -0.447 C  
HETATM   18  O   UNL     4     -13.536  15.062  73.232  1.00  0.00    -0.497 OA 
HETATM   19  O   UNL     4     -11.881  16.418  72.329  1.00  0.00    -0.534 OA 
ENDBRANCH  11  16
ENDBRANCH  10  11
ENDBRANCH   9  10
ENDBRANCH   8   9
BRANCH   8  20
HETATM   20  C   UNL     4     -10.814  10.806  67.633  1.00  0.00    -0.279 C  
HETATM   21  C   UNL     4     -11.167  11.803  66.461  1.00  0.00    -0.321 C  
HETATM   22  O   UNL     4     -10.212  12.031  65.660  1.00  0.00    -0.237 OA 
HETATM   23  O   UNL     4     -12.352  12.283  66.417  1.00  0.00    -0.531 OA 
ENDBRANCH   8  20
ENDBRANCH   7   8
TORSDOF 7
ENDMDL
MODEL        4
REMARK 921   NORMALIZED FREE ENERGY PREDICTED BY IDOCK:   -5.90 KCAL/MOL
REMARK 922        TOTAL FREE ENERGY PREDICTED BY IDOCK:   -9.75 KCAL/MOL
REMARK 923 INTER-LIGAND FREE ENERGY PREDICTED BY IDOCK:   -8.51 KCAL/MOL
REMARK 924 INTRA-LIGAND FREE ENERGY PREDICTED BY IDOCK:   -1.25 KCAL/MOL
REMARK 927      BINDING AFFINITY PREDICTED BY RF-SCORE:    0.00 PKD
ROOT
HETATM    1 NA   UNL     1     -13.141  16.201  68.790  1.00  0.00    -0.500 Na 
HETATM    2 NA   UNL     2     -11.172  20.333  69.320  1.00  0.00    -0.514 Na 
HETATM    3 CA   UNL     3     -11.985  16.113  63.421  1.00  0.00    -0.910 Ca 
HETATM    4  O   UNL     4     -11.138  16.600  68.919  1.00  0.00    -0.308 OA 
HETATM    5  C   UNL     4     -10.432  17.472  68.334  1.00  0.00    -0.372 C  
HETATM    6  O   UNL     4     -10.743  18.713  68.334  1.00  0.00    -0.186 OA 
HETATM    7  C   UNL     4      -9.141  17.113  67.572  1.00  0.00    -0.225 C  
ENDROOT
BRANCH   7   8
HETATM    8  N   UNL     4      -8.924  15.702  67.144  1.00  0.00    -0.204 NA 
BRANCH   8   9
HETATM    9  C   UNL     4      -9.450  15.252  65.852  1.00  0.00    -0.316 C  
BRANCH   9  10
HETATM   10  C   UNL     4     -10.941  14.918  65.774  1.00  0.00    -0.345 C  
BRANCH  10  11
HETATM   11  N   UNL     4     -11.246  13.477  65.965  1.00  0.00    -0.294 NA 
BRANCH  11  12
HETATM   12  C   UNL     4     -11.359  13.066  67.401  1.00  0.00    -0.305 C  
HETATM   13  O   UNL     4     -12.146  10.877  68.060  1.00  0.00    -0.563 OA 
HETATM   14  O   UNL     4     -10.350  11.067  66.621  1.00  0.00    -0.223 OA 
HETATM   15  C   UNL     4     -11.261  11.499  67.424  1.00  0.00    -0.304 C  
ENDBRANCH  11  12
BRANCH  11  16
HETATM   16  C   UNL     4     -12.522  13.129  65.242  1.00  0.00    -0.495 C  
HETATM   17  C   UNL     4     -12.138  12.980  63.740  1.00  0.00    -0.502 C  
HETATM   18  O   UNL     4     -12.653  13.835  62.964  1.00  0.00    -0.721 OA 
HETATM   19  O   UNL     4     -11.127  12.195  63.579  1.00  0.00    -0.415 OA 
ENDBRANCH  11  16
ENDBRANCH  10  11
ENDBRANCH   9  10
ENDBRANCH   8   9
BRANCH   8  20
HETATM   20  C   UNL     4      -7.423  15.462  67.125  1.00  0.00    -0.189 C  
HETATM   21  C   UNL     4      -6.934  14.140  67.837  1.00  0.00    -0.165 C  
HETATM   22  O   UNL     4      -5.944  13.580  67.280  1.00  0.00    -0.339 OA 
HETATM   23  O   UNL     4      -7.559  13.756  68.884  1.00  0.00    -0.113 OA 
ENDBRANCH   8  20
ENDBRANCH   7   8
TORSDOF 7
ENDMDL
MODEL        5
REMARK 921   NORMALIZED FREE ENERGY PREDICTED BY IDOCK:   -5.88 KCAL/MOL
REMARK 922        TOTAL FREE ENERGY PREDICTED BY IDOCK:   -9.72 KCAL/MOL
REMARK 923 INTER-LIGAND FREE ENERGY PREDICTED BY IDOCK:   -8.88 KCAL/MOL
REMARK 924 INTRA-LIGAND FREE ENERGY PREDICTED BY IDOCK:   -0.84 KCAL/MOL
REMARK 927      BINDING AFFINITY PREDICTED BY RF-SCORE:    0.00 PKD
ROOT
HETATM    1 NA   UNL     1     -14.346  16.210  70.342  1.00  0.00    -0.788 Na 
HETATM    2 NA   UNL     2     -11.714  14.761  73.836  1.00  0.00    -0.374 Na 
HETATM    3 CA   UNL     3     -11.167  20.610  69.505  1.00  0.00    -0.577 Ca 
HETATM    4  O   UNL     4     -12.547  15.244  70.207  1.00  0.00    -0.370 OA 
HETATM    5  C   UNL     4     -11.453  15.451  70.809  1.00  0.00    -0.355 C  
HETATM    6  O   UNL     4     -11.383  15.536  72.083  1.00  0.00    -0.417 OA 
HETATM    7  C   UNL     4     -10.117  15.619  70.059  1.00  0.00    -0.210 C  
ENDROOT
BRANCH   7   8
HETATM    8  N   UNL     4     -10.142  15.968  68.611  1.00  0.00    -0.213 NA 
BRANCH   8   9
HETATM    9  C   UNL     4     -10.832  15.081  67.668  1.00  0.00    -0.291 C  
BRANCH   9  10
HETATM   10  C   UNL     4      -9.968  14.280  66.692  1.00  0.00    -0.275 C  
BRANCH  10  11
HETATM   11  N   UNL     4     -10.673  13.134  66.064  1.00  0.00    -0.274 NA 
BRANCH  11  12
HETATM   12  C   UNL     4     -10.866  13.278  64.586  1.00  0.00    -0.382 C  
HETATM   13  O   UNL     4     -12.693  12.212  63.413  1.00  0.00    -0.722 OA 
HETATM   14  O   UNL     4     -13.133  13.614  65.194  1.00  0.00    -0.750 OA 
HETATM   15  C   UNL     4     -12.393  13.036  64.311  1.00  0.00    -0.366 C  
ENDBRANCH  11  12
BRANCH  11  16
HETATM   16  C   UNL     4      -9.922  11.858  66.351  1.00  0.00    -0.213 C  
HETATM   17  C   UNL     4     -10.650  11.194  67.556  1.00  0.00    -0.221 C  
HETATM   18  O   UNL     4      -9.970  11.111  68.619  1.00  0.00    -0.193 OA 
HETATM   19  O   UNL     4     -11.922  11.107  67.361  1.00  0.00    -0.532 OA 
ENDBRANCH  11  16
ENDBRANCH  10  11
ENDBRANCH   9  10
ENDBRANCH   8   9
BRANCH   8  20
HETATM   20  C   UNL     4     -10.785  17.340  68.487  1.00  0.00    -0.305 C  
HETATM   21  C   UNL     4      -9.800  18.527  68.149  1.00  0.00    -0.346 C  
HETATM   22  O   UNL     4     -10.292  19.418  67.395  1.00  0.00    -0.386 OA 
HETATM   23  O   UNL     4      -8.624  18.492  68.650  1.00  0.00    -0.325 OA 
ENDBRANCH   8  20
ENDBRANCH   7   8
TORSDOF 7
ENDMDL
MODEL        6
REMARK 921   NORMALIZED FREE ENERGY PREDICTED BY IDOCK:   -5.80 KCAL/MOL
REMARK 922        TOTAL FREE ENERGY PREDICTED BY IDOCK:   -9.62 KCAL/MOL
REMARK 923 INTER-LIGAND FREE ENERGY PREDICTED BY IDOCK:   -8.68 KCAL/MOL
REMARK 924 INTRA-LIGAND FREE ENERGY PREDICTED BY IDOCK:   -0.94 KCAL/MOL
REMARK 927      BINDING AFFINITY PREDICTED BY RF-SCORE:    0.00 PKD
ROOT
HETATM    1 NA   UNL     1      -9.508  13.393  63.945  1.00  0.00    -0.584 Na 
HETATM    2 NA   UNL     2     -13.826  11.785  63.961  1.00  0.00    -0.697 Na 
HETATM    3 CA   UNL     3     -11.201  18.527  64.921  1.00  0.00    -0.512 Ca 
HETATM    4  O   UNL     4     -10.670  13.007  65.585  1.00  0.00    -0.270 OA 
HETATM    5  C   UNL     4     -11.869  13.320  65.837  1.00  0.00    -0.393 C  
HETATM    6  O   UNL     4     -12.824  13.069  65.024  1.00  0.00    -0.689 OA 
HETATM    7  C   UNL     4     -12.280  14.031  67.142  1.00  0.00    -0.321 C  
ENDROOT
BRANCH   7   8
HETATM    8  N   UNL     4     -11.239  14.743  67.934  1.00  0.00    -0.293 NA 
BRANCH   8   9
HETATM    9  C   UNL     4     -11.507  16.099  68.422  1.00  0.00    -0.298 C  
BRANCH   9  10
HETATM   10  C   UNL     4     -10.377  16.820  69.159  1.00  0.00    -0.326 C  
BRANCH  10  11
HETATM   11  N   UNL     4      -9.582  17.731  68.298  1.00  0.00    -0.299 NA 
BRANCH  11  12
HETATM   12  C   UNL     4      -9.510  19.138  68.806  1.00  0.00    -0.399 C  
HETATM   13  O   UNL     4      -9.308  21.039  67.324  1.00  0.00    -0.314 OA 
HETATM   14  O   UNL     4     -11.057  19.555  67.059  1.00  0.00    -0.424 OA 
HETATM   15  C   UNL     4     -10.024  20.058  67.642  1.00  0.00    -0.428 C  
ENDBRANCH  11  12
BRANCH  11  16
HETATM   16  C   UNL     4      -8.185  17.185  68.135  1.00  0.00    -0.224 C  
HETATM   17  C   UNL     4      -8.160  16.479  66.747  1.00  0.00    -0.251 C  
HETATM   18  O   UNL     4      -7.986  15.228  66.781  1.00  0.00    -0.200 OA 
HETATM   19  O   UNL     4      -8.615  17.242  65.812  1.00  0.00    -0.532 OA 
ENDBRANCH  11  16
ENDBRANCH  10  11
ENDBRANCH   9  10
ENDBRANCH   8   9
BRANCH   8  20
HETATM   20  C   UNL     4     -10.930  13.883  69.150  1.00  0.00    -0.218 C  
HETATM   21  C   UNL     4     -12.143  13.619  70.125  1.00  0.00    -0.361 C  
HETATM   22  O   UNL     4     -12.148  12.469  70.657  1.00  0.00    -0.356 OA 
HETATM   23  O   UNL     4     -12.993  14.560  70.294  1.00  0.00    -0.289 OA 
ENDBRANCH   8  20
ENDBRANCH   7   8
TORSDOF 7
ENDMDL
MODEL        7
REMARK 921   NORMALIZED FREE ENERGY PREDICTED BY IDOCK:   -5.77 KCAL/MOL
REMARK 922        TOTAL FREE ENERGY PREDICTED BY IDOCK:   -9.57 KCAL/MOL
REMARK 923 INTER-LIGAND FREE ENERGY PREDICTED BY IDOCK:   -8.15 KCAL/MOL
REMARK 924 INTRA-LIGAND FREE ENERGY PREDICTED BY IDOCK:   -1.42 KCAL/MOL
REMARK 927      BINDING AFFINITY PREDICTED BY RF-SCORE:    0.00 PKD
ROOT
HETATM    1 NA   UNL     1     -11.083  10.758  65.478  1.00  0.00    -0.245 Na 
HETATM    2 NA   UNL     2     -13.140  14.098  63.060  1.00  0.00    -0.837 Na 
HETATM    3 CA   UNL     3      -6.795  13.979  66.664  1.00  0.00    -0.249 Ca 
HETATM    4  O   UNL     4     -12.120  12.356  66.226  1.00  0.00    -0.612 OA 
HETATM    5  C   UNL     4     -12.059  13.586  65.936  1.00  0.00    -0.435 C  
HETATM    6  O   UNL     4     -12.153  14.009  64.733  1.00  0.00    -0.393 OA 
HETATM    7  C   UNL     4     -11.865  14.677  67.008  1.00  0.00    -0.337 C  
ENDROOT
BRANCH   7   8
HETATM    8  N   UNL     4     -11.322  14.291  68.340  1.00  0.00    -0.268 NA 
BRANCH   8   9
HETATM    9  C   UNL     4     -10.053  14.869  68.796  1.00  0.00    -0.241 C  
BRANCH   9  10
HETATM   10  C   UNL     4     -10.055  16.345  69.200  1.00  0.00    -0.278 C  
BRANCH  10  11
HETATM   11  N   UNL     4      -9.609  17.265  68.123  1.00  0.00    -0.274 NA 
BRANCH  11  12
HETATM   12  C   UNL     4     -10.605  18.331  67.785  1.00  0.00    -0.393 C  
HETATM   13  O   UNL     4     -10.288  19.854  65.934  1.00  0.00    -0.495 OA 
HETATM   14  O   UNL     4     -10.247  17.575  65.567  1.00  0.00    -0.608 OA 
HETATM   15  C   UNL     4     -10.415  18.649  66.259  1.00  0.00    -0.424 C  
ENDBRANCH  11  12
BRANCH  11  16
HETATM   16  C   UNL     4      -8.301  17.905  68.514  1.00  0.00    -0.300 C  
HETATM   17  C   UNL     4      -7.193  16.868  68.163  1.00  0.00    -0.170 C  
HETATM   18  O   UNL     4      -6.557  16.403  69.152  1.00  0.00    -0.168 OA 
HETATM   19  O   UNL     4      -7.308  16.433  66.954  1.00  0.00    -0.193 OA 
ENDBRANCH  11  16
ENDBRANCH  10  11
ENDBRANCH   9  10
ENDBRANCH   8   9
BRANCH   8  20
HETATM   20  C   UNL     4     -12.374  14.648  69.378  1.00  0.00    -0.164 C  
HETATM   21  C   UNL     4     -12.374  13.760  70.684  1.00  0.00    -0.375 C  
HETATM   22  O   UNL     4     -12.667  14.387  71.745  1.00  0.00    -0.324 OA 
HETATM   23  O   UNL     4     -12.089  12.519  70.565  1.00  0.00    -0.365 OA 
ENDBRANCH   8  20
ENDBRANCH   7   8
TORSDOF 7
ENDMDL
MODEL        8
REMARK 921   NORMALIZED FREE ENERGY PREDICTED BY IDOCK:   -5.77 KCAL/MOL
REMARK 922        TOTAL FREE ENERGY PREDICTED BY IDOCK:   -9.57 KCAL/MOL
REMARK 923 INTER-LIGAND FREE ENERGY PREDICTED BY IDOCK:   -8.40 KCAL/MOL
REMARK 924 INTRA-LIGAND FREE ENERGY PREDICTED BY IDOCK:   -1.17 KCAL/MOL
REMARK 927      BINDING AFFINITY PREDICTED BY RF-SCORE:    0.00 PKD
ROOT
HETATM    1 NA   UNL     1     -12.637  11.861  69.952  1.00  0.00    -0.262 Na 
HETATM    2 NA   UNL     2     -11.454   8.207  67.405  1.00  0.00    -0.497 Na 
HETATM    3 CA   UNL     3      -7.460  13.688  70.100  1.00  0.00    -0.335 Ca 
HETATM    4  O   UNL     4     -12.264  11.834  67.940  1.00  0.00    -0.538 OA 
HETATM    5  C   UNL     4     -11.313  11.317  67.285  1.00  0.00    -0.255 C  
HETATM    6  O   UNL     4     -10.975  10.092  67.427  1.00  0.00    -0.292 OA 
HETATM    7  C   UNL     4     -10.482  12.119  66.264  1.00  0.00    -0.239 C  
ENDROOT
BRANCH   7   8
HETATM    8  N   UNL     4     -10.494  13.607  66.334  1.00  0.00    -0.284 NA 
BRANCH   8   9
HETATM    9  C   UNL     4      -9.300  14.316  66.802  1.00  0.00    -0.276 C  
BRANCH   9  10
HETATM   10  C   UNL     4      -9.246  15.829  66.583  1.00  0.00    -0.255 C  
BRANCH  10  11
HETATM   11  N   UNL     4      -9.720  16.624  67.744  1.00  0.00    -0.237 NA 
BRANCH  11  12
HETATM   12  C   UNL     4      -9.633  15.899  69.051  1.00  0.00    -0.247 C  
HETATM   13  O   UNL     4     -11.209  16.277  70.845  1.00  0.00    -0.355 OA 
HETATM   14  O   UNL     4     -11.973  15.655  68.757  1.00  0.00    -0.348 OA 
HETATM   15  C   UNL     4     -11.082  15.897  69.656  1.00  0.00    -0.320 C  
ENDBRANCH  11  12
BRANCH  11  16
HETATM   16  C   UNL     4      -8.939  17.911  67.830  1.00  0.00    -0.264 C  
HETATM   17  C   UNL     4      -9.845  19.006  67.195  1.00  0.00    -0.324 C  
HETATM   18  O   UNL     4      -9.400  19.524  66.131  1.00  0.00    -0.365 OA 
HETATM   19  O   UNL     4     -11.034  18.996  67.694  1.00  0.00    -0.407 OA 
ENDBRANCH  11  16
ENDBRANCH  10  11
ENDBRANCH   9  10
ENDBRANCH   8   9
BRANCH   8  20
HETATM   20  C   UNL     4     -10.801  14.122  64.936  1.00  0.00    -0.411 C  
HETATM   21  C   UNL     4     -12.285  14.606  64.698  1.00  0.00    -0.434 C  
HETATM   22  O   UNL     4     -12.395  15.600  63.920  1.00  0.00    -0.673 OA 
HETATM   23  O   UNL     4     -13.225  13.973  65.291  1.00  0.00    -0.782 OA 
ENDBRANCH   8  20
ENDBRANCH   7   8
TORSDOF 7
ENDMDL
MODEL        9
REMARK 921   NORMALIZED FREE ENERGY PREDICTED BY IDOCK:   -5.75 KCAL/MOL
REMARK 922        TOTAL FREE ENERGY PREDICTED BY IDOCK:   -9.55 KCAL/MOL
REMARK 923 INTER-LIGAND FREE ENERGY PREDICTED BY IDOCK:   -8.35 KCAL/MOL
REMARK 924 INTRA-LIGAND FREE ENERGY PREDICTED BY IDOCK:   -1.19 KCAL/MOL
REMARK 927      BINDING AFFINITY PREDICTED BY RF-SCORE:    0.00 PKD
ROOT
HETATM    1 NA   UNL     1     -11.868  20.011  67.193  1.00  0.00    -0.275 Na 
HETATM    2 NA   UNL     2      -7.538  21.274  66.248  1.00  0.00    -0.476 Na 
HETATM    3 CA   UNL     3     -11.823  16.178  63.259  1.00  0.00    -0.897 Ca 
HETATM    4  O   UNL     4     -10.155  19.042  67.754  1.00  0.00    -0.340 OA 
HETATM    5  C   UNL     4      -9.128  18.729  67.084  1.00  0.00    -0.284 C  
HETATM    6  O   UNL     4      -8.489  19.582  66.378  1.00  0.00    -0.323 OA 
HETATM    7  C   UNL     4      -8.565  17.294  67.060  1.00  0.00    -0.227 C  
ENDROOT
BRANCH   7   8
HETATM    8  N   UNL     4      -9.445  16.166  67.472  1.00  0.00    -0.222 NA 
BRANCH   8   9
HETATM    9  C   UNL     4      -9.061  14.792  67.134  1.00  0.00    -0.217 C  
BRANCH   9  10
HETATM   10  C   UNL     4      -9.790  14.122  65.967  1.00  0.00    -0.309 C  
BRANCH  10  11
HETATM   11  N   UNL     4     -10.952  13.294  66.378  1.00  0.00    -0.287 NA 
BRANCH  11  12
HETATM   12  C   UNL     4     -10.938  12.904  67.824  1.00  0.00    -0.243 C  
HETATM   13  O   UNL     4     -12.195  11.017  68.665  1.00  0.00    -0.571 OA 
HETATM   14  O   UNL     4     -10.683  10.716  66.945  1.00  0.00    -0.257 OA 
HETATM   15  C   UNL     4     -11.287  11.374  67.875  1.00  0.00    -0.303 C  
ENDBRANCH  11  12
BRANCH  11  16
HETATM   16  C   UNL     4     -12.233  14.028  66.070  1.00  0.00    -0.458 C  
HETATM   17  C   UNL     4     -12.755  13.434  64.728  1.00  0.00    -0.250 C  
HETATM   18  O   UNL     4     -12.778  14.240  63.754  1.00  0.00    -0.779 OA 
HETATM   19  O   UNL     4     -12.798  12.146  64.758  1.00  0.00    -0.555 OA 
ENDBRANCH  11  16
ENDBRANCH  10  11
ENDBRANCH   9  10
ENDBRANCH   8   9
BRANCH   8  20
HETATM   20  C   UNL     4      -9.587  16.231  68.985  1.00  0.00    -0.257 C  
HETATM   21  C   UNL     4     -11.006  15.841  69.555  1.00  0.00    -0.295 C  
HETATM   22  O   UNL     4     -10.976  15.229  70.664  1.00  0.00    -0.307 OA 
HETATM   23  O   UNL     4     -12.037  16.165  68.872  1.00  0.00    -0.219 OA 
ENDBRANCH   8  20
ENDBRANCH   7   8
TORSDOF 7
ENDMDL
MODEL       10
REMARK 921   NORMALIZED FREE ENERGY PREDICTED BY IDOCK:   -5.75 KCAL/MOL
REMARK 922        TOTAL FREE ENERGY PREDICTED BY IDOCK:   -9.54 KCAL/MOL
REMARK 923 INTER-LIGAND FREE ENERGY PREDICTED BY IDOCK:   -8.59 KCAL/MOL
REMARK 924 INTRA-LIGAND FREE ENERGY PREDICTED BY IDOCK:   -0.95 KCAL/MOL
REMARK 927      BINDING AFFINITY PREDICTED BY RF-SCORE:    0.00 PKD
ROOT
HETATM    1 NA   UNL     1     -12.532  16.886  71.984  1.00  0.00    -0.519 Na 
HETATM    2 NA   UNL     2     -13.334  12.433  72.857  1.00  0.00    -0.450 Na 
HETATM    3 CA   UNL     3      -7.535  15.803  69.979  1.00  0.00    -0.195 Ca 
HETATM    4  O   UNL     4     -13.069  15.447  70.633  1.00  0.00    -0.426 OA 
HETATM    5  C   UNL     4     -12.619  14.278  70.451  1.00  0.00    -0.343 C  
HETATM    6  O   UNL     4     -12.513  13.433  71.404  1.00  0.00    -0.320 OA 
HETATM    7  C   UNL     4     -12.159  13.778  69.067  1.00  0.00    -0.322 C  
ENDROOT
BRANCH   7   8
HETATM    8  N   UNL     4     -11.832  14.776  68.011  1.00  0.00    -0.324 NA 
BRANCH   8   9
HETATM    9  C   UNL     4     -10.953  15.904  68.332  1.00  0.00    -0.331 C  
BRANCH   9  10
HETATM   10  C   UNL     4      -9.547  15.897  67.730  1.00  0.00    -0.218 C  
BRANCH  10  11
HETATM   11  N   UNL     4      -9.148  17.188  67.115  1.00  0.00    -0.224 NA 
BRANCH  11  12
HETATM   12  C   UNL     4     -10.127  18.298  67.345  1.00  0.00    -0.352 C  
HETATM   13  O   UNL     4     -10.534  20.023  65.700  1.00  0.00    -0.458 OA 
HETATM   14  O   UNL     4     -10.789  17.802  65.123  1.00  0.00    -0.671 OA 
HETATM   15  C   UNL     4     -10.584  18.790  65.926  1.00  0.00    -0.352 C  
ENDBRANCH  11  12
BRANCH  11  16
HETATM   16  C   UNL     4      -7.793  17.600  67.634  1.00  0.00    -0.207 C  
HETATM   17  C   UNL     4      -6.806  17.424  66.442  1.00  0.00    -0.274 C  
HETATM   18  O   UNL     4      -5.919  16.538  66.603  1.00  0.00    -0.319 OA 
HETATM   19  O   UNL     4      -7.236  18.003  65.373  1.00  0.00    -0.502 OA 
ENDBRANCH  11  16
ENDBRANCH  10  11
ENDBRANCH   9  10
ENDBRANCH   8   9
BRANCH   8  20
HETATM   20  C   UNL     4     -11.187  14.021  66.859  1.00  0.00    -0.313 C  
HETATM   21  C   UNL     4     -11.961  14.082  65.484  1.00  0.00    -0.384 C  
HETATM   22  O   UNL     4     -11.213  14.116  64.462  1.00  0.00    -0.373 OA 
HETATM   23  O   UNL     4     -13.240  14.090  65.515  1.00  0.00    -0.710 OA 
ENDBRANCH   8  20
ENDBRANCH   7   8
TORSDOF 7
ENDMDL
MODEL       11
REMARK 921   NORMALIZED FREE ENERGY PREDICTED BY IDOCK:   -5.74 KCAL/MOL
REMARK 922        TOTAL FREE ENERGY PREDICTED BY IDOCK:   -9.53 KCAL/MOL
REMARK 923 INTER-LIGAND FREE ENERGY PREDICTED BY IDOCK:   -8.48 KCAL/MOL
REMARK 924 INTRA-LIGAND FREE ENERGY PREDICTED BY IDOCK:   -1.05 KCAL/MOL
REMARK 927      BINDING AFFINITY PREDICTED BY RF-SCORE:    0.00 PKD
ROOT
HETATM    1 NA   UNL     1     -14.007  11.513  63.663  1.00  0.00    -0.434 Na 
HETATM    2 NA   UNL     2     -10.151   9.324  62.407  1.00  0.00    -0.523 Na 
HETATM    3 CA   UNL     3     -12.909  10.811  68.999  1.00  0.00    -0.417 Ca 
HETATM    4  O   UNL     4     -12.106  12.271  63.669  1.00  0.00    -0.469 OA 
HETATM    5  C   UNL     4     -11.025  11.782  64.110  1.00  0.00    -0.374 C  
HETATM    6  O   UNL     4     -10.625  10.612  63.786  1.00  0.00    -0.191 OA 
HETATM    7  C   UNL     4     -10.103  12.555  65.074  1.00  0.00    -0.236 C  
ENDROOT
BRANCH   7   8
HETATM    8  N   UNL     4     -10.661  13.704  65.840  1.00  0.00    -0.284 NA 
BRANCH   8   9
HETATM    9  C   UNL     4     -10.297  13.875  67.250  1.00  0.00    -0.257 C  
BRANCH   9  10
HETATM   10  C   UNL     4      -9.475  15.111  67.621  1.00  0.00    -0.201 C  
BRANCH  10  11
HETATM   11  N   UNL     4     -10.120  15.980  68.638  1.00  0.00    -0.213 NA 
BRANCH  11  12
HETATM   12  C   UNL     4     -10.302  15.322  69.971  1.00  0.00    -0.221 C  
HETATM   13  O   UNL     4     -11.727  16.254  71.688  1.00  0.00    -0.480 OA 
HETATM   14  O   UNL     4     -12.590  15.814  69.592  1.00  0.00    -0.154 OA 
HETATM   15  C   UNL     4     -11.693  15.802  70.518  1.00  0.00    -0.377 C  
ENDBRANCH  11  12
BRANCH  11  16
HETATM   16  C   UNL     4      -9.316  17.245  68.808  1.00  0.00    -0.239 C  
HETATM   17  C   UNL     4      -9.748  18.187  67.646  1.00  0.00    -0.292 C  
HETATM   18  O   UNL     4      -8.845  18.454  66.803  1.00  0.00    -0.262 OA 
HETATM   19  O   UNL     4     -11.031  18.301  67.572  1.00  0.00    -0.335 OA 
ENDBRANCH  11  16
ENDBRANCH  10  11
ENDBRANCH   9  10
ENDBRANCH   8   9
BRANCH   8  20
HETATM   20  C   UNL     4     -10.247  14.975  65.114  1.00  0.00    -0.365 C  
HETATM   21  C   UNL     4     -11.423  15.807  64.470  1.00  0.00    -0.289 C  
HETATM   22  O   UNL     4     -11.261  17.063  64.510  1.00  0.00    -1.091 OA 
HETATM   23  O   UNL     4     -12.412  15.164  63.974  1.00  0.00    -0.771 OA 
ENDBRANCH   8  20
ENDBRANCH   7   8
TORSDOF 7
ENDMDL
MODEL       12
REMARK 921   NORMALIZED FREE ENERGY PREDICTED BY IDOCK:   -5.73 KCAL/MOL
REMARK 922        TOTAL FREE ENERGY PREDICTED BY IDOCK:   -9.52 KCAL/MOL
REMARK 923 INTER-LIGAND FREE ENERGY PREDICTED BY IDOCK:   -8.86 KCAL/MOL
REMARK 924 INTRA-LIGAND FREE ENERGY PREDICTED BY IDOCK:   -0.66 KCAL/MOL
REMARK 927      BINDING AFFINITY PREDICTED BY RF-SCORE:    0.00 PKD
ROOT
HETATM    1 NA   UNL     1     -14.326  16.087  70.289  1.00  0.00    -0.851 Na 
HETATM    2 NA   UNL     2     -11.421  14.498  73.494  1.00  0.00    -0.157 Na 
HETATM    3 CA   UNL     3     -11.380  20.671  69.601  1.00  0.00    -0.566 Ca 
HETATM    4  O   UNL     4     -12.503  15.213  69.971  1.00  0.00    -0.322 OA 
HETATM    5  C   UNL     4     -11.382  15.422  70.519  1.00  0.00    -0.326 C  
HETATM    6  O   UNL     4     -11.233  15.416  71.789  1.00  0.00    -0.398 OA 
HETATM    7  C   UNL     4     -10.104  15.704  69.704  1.00  0.00    -0.291 C  
ENDROOT
BRANCH   7   8
HETATM    8  N   UNL     4     -10.234  16.157  68.292  1.00  0.00    -0.242 NA 
BRANCH   8   9
HETATM    9  C   UNL     4     -11.284  15.582  67.444  1.00  0.00    -0.248 C  
BRANCH   9  10
HETATM   10  C   UNL     4     -10.840  14.756  66.236  1.00  0.00    -0.322 C  
BRANCH  10  11
HETATM   11  N   UNL     4     -11.329  13.354  66.252  1.00  0.00    -0.300 NA 
BRANCH  11  12
HETATM   12  C   UNL     4     -11.533  12.799  67.628  1.00  0.00    -0.334 C  
HETATM   13  O   UNL     4     -11.771  10.428  68.042  1.00  0.00    -0.383 OA 
HETATM   14  O   UNL     4      -9.907  11.219  66.931  1.00  0.00    -0.189 OA 
HETATM   15  C   UNL     4     -11.010  11.319  67.592  1.00  0.00    -0.259 C  
ENDBRANCH  11  12
BRANCH  11  16
HETATM   16  C   UNL     4     -12.619  13.257  65.476  1.00  0.00    -0.446 C  
HETATM   17  C   UNL     4     -12.217  12.854  64.026  1.00  0.00    -0.426 C  
HETATM   18  O   UNL     4     -12.462  13.720  63.138  1.00  0.00    -0.786 OA 
HETATM   19  O   UNL     4     -11.434  11.830  64.011  1.00  0.00    -0.366 OA 
ENDBRANCH  11  16
ENDBRANCH  10  11
ENDBRANCH   9  10
ENDBRANCH   8   9
BRANCH   8  20
HETATM   20  C   UNL     4     -10.455  17.662  68.319  1.00  0.00    -0.375 C  
HETATM   21  C   UNL     4     -10.238  18.408  66.945  1.00  0.00    -0.380 C  
HETATM   22  O   UNL     4     -11.023  19.382  66.746  1.00  0.00    -0.421 OA 
HETATM   23  O   UNL     4      -9.313  17.982  66.170  1.00  0.00    -0.468 OA 
ENDBRANCH   8  20
ENDBRANCH   7   8
TORSDOF 7
ENDMDL
MODEL       13
REMARK 921   NORMALIZED FREE ENERGY PREDICTED BY IDOCK:   -5.73 KCAL/MOL
REMARK 922        TOTAL FREE ENERGY PREDICTED BY IDOCK:   -9.52 KCAL/MOL
REMARK 923 INTER-LIGAND FREE ENERGY PREDICTED BY IDOCK:   -8.56 KCAL/MOL
REMARK 924 INTRA-LIGAND FREE ENERGY PREDICTED BY IDOCK:   -0.96 KCAL/MOL
REMARK 927      BINDING AFFINITY PREDICTED BY RF-SCORE:    0.00 PKD
ROOT
HETATM    1 NA   UNL     1     -11.972  10.098  68.573  1.00  0.00    -0.444 Na 
HETATM    2 NA   UNL     2      -9.671   8.274  65.021  1.00  0.00    -0.408 Na 
HETATM    3 CA   UNL     3      -7.822  13.486  69.783  1.00  0.00    -0.329 Ca 
HETATM    4  O   UNL     4     -11.722  10.923  66.716  1.00  0.00    -0.174 OA 
HETATM    5  C   UNL     4     -10.683  11.051  66.005  1.00  0.00    -0.177 C  
HETATM    6  O   UNL     4      -9.914  10.065  65.739  1.00  0.00    -0.258 OA 
HETATM    7  C   UNL     4     -10.259  12.405  65.401  1.00  0.00    -0.278 C  
ENDROOT
BRANCH   7   8
HETATM    8  N   UNL     4     -10.811  13.660  65.984  1.00  0.00    -0.275 NA 
BRANCH   8   9
HETATM    9  C   UNL     4     -10.459  14.031  67.358  1.00  0.00    -0.263 C  
BRANCH   9  10
HETATM   10  C   UNL     4      -9.681  15.333  67.559  1.00  0.00    -0.204 C  
BRANCH  10  11
HETATM   11  N   UNL     4     -10.422  16.366  68.325  1.00  0.00    -0.286 NA 
BRANCH  11  12
HETATM   12  C   UNL     4     -10.604  17.656  67.585  1.00  0.00    -0.362 C  
HETATM   13  O   UNL     4     -10.280  19.807  68.640  1.00  0.00    -0.445 OA 
HETATM   14  O   UNL     4      -8.581  18.244  68.671  1.00  0.00    -0.320 OA 
HETATM   15  C   UNL     4      -9.728  18.724  68.330  1.00  0.00    -0.376 C  
ENDBRANCH  11  12
BRANCH  11  16
HETATM   16  C   UNL     4     -11.771  15.827  68.732  1.00  0.00    -0.378 C  
HETATM   17  C   UNL     4     -11.681  15.557  70.263  1.00  0.00    -0.346 C  
HETATM   18  O   UNL     4     -11.775  14.344  70.604  1.00  0.00    -0.292 OA 
HETATM   19  O   UNL     4     -11.229  16.580  70.905  1.00  0.00    -0.283 OA 
ENDBRANCH  11  16
ENDBRANCH  10  11
ENDBRANCH   9  10
ENDBRANCH   8   9
BRANCH   8  20
HETATM   20  C   UNL     4     -10.374  14.805  65.085  1.00  0.00    -0.410 C  
HETATM   21  C   UNL     4     -11.539  15.598  64.374  1.00  0.00    -0.249 C  
HETATM   22  O   UNL     4     -11.327  16.840  64.244  1.00  0.00    -1.170 OA 
HETATM   23  O   UNL     4     -12.570  14.940  63.998  1.00  0.00    -0.832 OA 
ENDBRANCH   8  20
ENDBRANCH   7   8
TORSDOF 7
ENDMDL
MODEL       14
REMARK 921   NORMALIZED FREE ENERGY PREDICTED BY IDOCK:   -5.71 KCAL/MOL
REMARK 922        TOTAL FREE ENERGY PREDICTED BY IDOCK:   -9.49 KCAL/MOL
REMARK 923 INTER-LIGAND FREE ENERGY PREDICTED BY IDOCK:   -8.24 KCAL/MOL
REMARK 924 INTRA-LIGAND FREE ENERGY PREDICTED BY IDOCK:   -1.25 KCAL/MOL
REMARK 927      BINDING AFFINITY PREDICTED BY RF-SCORE:    0.00 PKD
ROOT
HETATM    1 NA   UNL     1     -11.220  20.163  66.993  1.00  0.00    -0.401 Na 
HETATM    2 NA   UNL     2      -6.875  19.781  68.482  1.00  0.00    -0.235 Na 
HETATM    3 CA   UNL     3     -10.696  15.786  63.716  1.00  0.00    -0.625 Ca 
HETATM    4  O   UNL     4     -10.510  18.843  68.386  1.00  0.00    -0.336 OA 
HETATM    5  C   UNL     4      -9.491  18.093  68.366  1.00  0.00    -0.318 C  
HETATM    6  O   UNL     4      -8.322  18.538  68.101  1.00  0.00    -0.279 OA 
HETATM    7  C   UNL     4      -9.574  16.581  68.658  1.00  0.00    -0.241 C  
ENDROOT
BRANCH   7   8
HETATM    8  N   UNL     4     -10.892  15.896  68.548  1.00  0.00    -0.282 NA 
BRANCH   8   9
HETATM    9  C   UNL     4     -11.247  15.213  67.301  1.00  0.00    -0.324 C  
BRANCH   9  10
HETATM   10  C   UNL     4     -10.286  14.139  66.786  1.00  0.00    -0.262 C  
BRANCH  10  11
HETATM   11  N   UNL     4     -10.962  12.950  66.210  1.00  0.00    -0.277 NA 
BRANCH  11  12
HETATM   12  C   UNL     4     -10.983  12.931  64.712  1.00  0.00    -0.318 C  
HETATM   13  O   UNL     4     -12.814  11.971  63.458  1.00  0.00    -0.749 OA 
HETATM   14  O   UNL     4     -13.229  13.631  65.009  1.00  0.00    -0.729 OA 
HETATM   15  C   UNL     4     -12.493  12.855  64.289  1.00  0.00    -0.349 C  
ENDBRANCH  11  12
BRANCH  11  16
HETATM   16  C   UNL     4     -10.302  11.694  66.719  1.00  0.00    -0.222 C  
HETATM   17  C   UNL     4     -10.952  11.399  68.104  1.00  0.00    -0.232 C  
HETATM   18  O   UNL     4     -10.170  11.478  69.094  1.00  0.00    -0.141 OA 
HETATM   19  O   UNL     4     -12.240  11.413  68.043  1.00  0.00    -0.607 OA 
ENDBRANCH  11  16
ENDBRANCH  10  11
ENDBRANCH   9  10
ENDBRANCH   8   9
BRANCH   8  20
HETATM   20  C   UNL     4     -10.956  14.860  69.660  1.00  0.00    -0.274 C  
HETATM   21  C   UNL     4     -12.383  14.629  70.295  1.00  0.00    -0.349 C  
HETATM   22  O   UNL     4     -12.618  13.431  70.634  1.00  0.00    -0.311 OA 
HETATM   23  O   UNL     4     -13.159  15.639  70.411  1.00  0.00    -0.379 OA 
ENDBRANCH   8  20
ENDBRANCH   7   8
TORSDOF 7
ENDMDL
MODEL       15
REMARK 921   NORMALIZED FREE ENERGY PREDICTED BY IDOCK:   -5.69 KCAL/MOL
REMARK 922        TOTAL FREE ENERGY PREDICTED BY IDOCK:   -9.47 KCAL/MOL
REMARK 923 INTER-LIGAND FREE ENERGY PREDICTED BY IDOCK:   -8.19 KCAL/MOL
REMARK 924 INTRA-LIGAND FREE ENERGY PREDICTED BY IDOCK:   -1.28 KCAL/MOL
REMARK 927      BINDING AFFINITY PREDICTED BY RF-SCORE:    0.00 PKD
ROOT
HETATM    1 NA   UNL     1     -11.344  13.310  70.892  1.00  0.00    -0.500 Na 
HETATM    2 NA   UNL     2     -12.071   8.760  70.863  1.00  0.00    -0.279 Na 
HETATM    3 CA   UNL     3      -6.443  12.747  68.477  1.00  0.00    -0.063 Ca 
HETATM    4  O   UNL     4     -11.936  12.170  69.299  1.00  0.00    -0.300 OA 
HETATM    5  C   UNL     4     -11.487  11.072  68.859  1.00  0.00    -0.296 C  
HETATM    6  O   UNL     4     -11.329  10.050  69.611  1.00  0.00    -0.242 OA 
HETATM    7  C   UNL     4     -11.091  10.875  67.382  1.00  0.00    -0.307 C  
ENDROOT
BRANCH   7   8
HETATM    8  N   UNL     4     -10.824  12.075  66.540  1.00  0.00    -0.265 NA 
BRANCH   8   9
HETATM    9  C   UNL     4      -9.537  12.767  66.661  1.00  0.00    -0.255 C  
BRANCH   9  10
HETATM   10  C   UNL     4      -9.482  14.000  67.565  1.00  0.00    -0.221 C  
BRANCH  10  11
HETATM   11  N   UNL     4     -10.146  15.198  66.992  1.00  0.00    -0.241 NA 
BRANCH  11  12
HETATM   12  C   UNL     4     -10.271  15.167  65.500  1.00  0.00    -0.376 C  
HETATM   13  O   UNL     4     -11.391  16.916  64.261  1.00  0.00    -1.202 OA 
HETATM   14  O   UNL     4      -9.646  17.448  65.678  1.00  0.00    -0.519 OA 
HETATM   15  C   UNL     4     -10.439  16.658  65.037  1.00  0.00     0.029 C  
ENDBRANCH  11  12
BRANCH  11  16
HETATM   16  C   UNL     4     -11.514  15.362  67.607  1.00  0.00    -0.251 C  
HETATM   17  C   UNL     4     -11.301  16.176  68.917  1.00  0.00    -0.350 C  
HETATM   18  O   UNL     4     -11.568  15.557  69.986  1.00  0.00    -0.287 OA 
HETATM   19  O   UNL     4     -10.607  17.244  68.712  1.00  0.00    -0.338 OA 
ENDBRANCH  11  16
ENDBRANCH  10  11
ENDBRANCH   9  10
ENDBRANCH   8   9
BRANCH   8  20
HETATM   20  C   UNL     4     -10.968  11.649  65.087  1.00  0.00    -0.266 C  
HETATM   21  C   UNL     4     -12.179  12.291  64.305  1.00  0.00    -0.425 C  
HETATM   22  O   UNL     4     -11.944  12.538  63.085  1.00  0.00    -0.450 OA 
HETATM   23  O   UNL     4     -13.265  12.501  64.947  1.00  0.00    -0.787 OA 
ENDBRANCH   8  20
ENDBRANCH   7   8
TORSDOF 7
ENDMDL
MODEL       16
REMARK 921   NORMALIZED FREE ENERGY PREDICTED BY IDOCK:   -5.67 KCAL/MOL
REMARK 922        TOTAL FREE ENERGY PREDICTED BY IDOCK:   -9.43 KCAL/MOL
REMARK 923 INTER-LIGAND FREE ENERGY PREDICTED BY IDOCK:   -8.00 KCAL/MOL
REMARK 924 INTRA-LIGAND FREE ENERGY PREDICTED BY IDOCK:   -1.44 KCAL/MOL
REMARK 927      BINDING AFFINITY PREDICTED BY RF-SCORE:    0.00 PKD
ROOT
HETATM    1 NA   UNL     1     -10.937  16.473  63.609  1.00  0.00    -0.532 Na 
HETATM    2 NA   UNL     2      -9.157  20.519  64.912  1.00  0.00    -0.349 Na 
HETATM    3 CA   UNL     3      -7.359  13.675  66.698  1.00  0.00    -0.348 Ca 
HETATM    4  O   UNL     4     -11.262  17.446  65.380  1.00  0.00    -0.021 OA 
HETATM    5  C   UNL     4     -10.448  17.986  66.185  1.00  0.00    -0.331 C  
HETATM    6  O   UNL     4      -9.579  18.842  65.802  1.00  0.00    -0.427 OA 
HETATM    7  C   UNL     4     -10.436  17.657  67.691  1.00  0.00    -0.372 C  
ENDROOT
BRANCH   7   8
HETATM    8  N   UNL     4     -11.080  16.398  68.160  1.00  0.00    -0.346 NA 
BRANCH   8   9
HETATM    9  C   UNL     4     -10.759  15.133  67.493  1.00  0.00    -0.284 C  
BRANCH   9  10
HETATM   10  C   UNL     4     -11.894  14.124  67.309  1.00  0.00    -0.419 C  
BRANCH  10  11
HETATM   11  N   UNL     4     -11.561  13.001  66.398  1.00  0.00    -0.345 NA 
BRANCH  11  12
HETATM   12  C   UNL     4     -11.417  11.680  67.090  1.00  0.00    -0.271 C  
HETATM   13  O   UNL     4     -10.183   9.841  66.120  1.00  0.00    -0.259 OA 
HETATM   14  O   UNL     4      -9.153  11.886  66.416  1.00  0.00    -0.211 OA 
HETATM   15  C   UNL     4     -10.105  11.025  66.529  1.00  0.00    -0.226 C  
ENDBRANCH  11  12
BRANCH  11  16
HETATM   16  C   UNL     4     -12.611  12.891  65.321  1.00  0.00    -0.439 C  
HETATM   17  C   UNL     4     -12.009  13.582  64.062  1.00  0.00    -0.449 C  
HETATM   18  O   UNL     4     -12.606  14.629  63.683  1.00  0.00    -0.773 OA 
HETATM   19  O   UNL     4     -10.829  13.139  63.790  1.00  0.00    -0.330 OA 
ENDBRANCH  11  16
ENDBRANCH  10  11
ENDBRANCH   9  10
ENDBRANCH   8   9
BRANCH   8  20
HETATM   20  C   UNL     4     -10.728  16.231  69.630  1.00  0.00    -0.338 C  
HETATM   21  C   UNL     4     -11.842  15.564  70.527  1.00  0.00    -0.356 C  
HETATM   22  O   UNL     4     -11.397  14.814  71.446  1.00  0.00    -0.258 OA 
HETATM   23  O   UNL     4     -13.065  15.828  70.261  1.00  0.00    -0.311 OA 
ENDBRANCH   8  20
ENDBRANCH   7   8
TORSDOF 7
ENDMDL
MODEL       17
REMARK 921   NORMALIZED FREE ENERGY PREDICTED BY IDOCK:   -5.67 KCAL/MOL
REMARK 922        TOTAL FREE ENERGY PREDICTED BY IDOCK:   -9.43 KCAL/MOL
REMARK 923 INTER-LIGAND FREE ENERGY PREDICTED BY IDOCK:   -8.45 KCAL/MOL
REMARK 924 INTRA-LIGAND FREE ENERGY PREDICTED BY IDOCK:   -0.98 KCAL/MOL
REMARK 927      BINDING AFFINITY PREDICTED BY RF-SCORE:    0.00 PKD
ROOT
HETATM    1 NA   UNL     1     -13.354  10.722  63.244  1.00  0.00    -0.351 Na 
HETATM    2 NA   UNL     2      -9.123   8.958  62.766  1.00  0.00    -0.217 Na 
HETATM    3 CA   UNL     3     -13.052  10.490  68.723  1.00  0.00    -0.392 Ca 
HETATM    4  O   UNL     4     -11.577  11.710  63.477  1.00  0.00    -0.428 OA 
HETATM    5  C   UNL     4     -10.532  11.388  64.114  1.00  0.00    -0.363 C  
HETATM    6  O   UNL     4      -9.955  10.259  63.950  1.00  0.00    -0.278 OA 
HETATM    7  C   UNL     4      -9.871  12.327  65.142  1.00  0.00    -0.158 C  
ENDROOT
BRANCH   7   8
HETATM    8  N   UNL     4     -10.671  13.442  65.720  1.00  0.00    -0.271 NA 
BRANCH   8   9
HETATM    9  C   UNL     4     -10.458  13.833  67.117  1.00  0.00    -0.272 C  
BRANCH   9  10
HETATM   10  C   UNL     4      -9.652  15.107  67.379  1.00  0.00    -0.208 C  
BRANCH  10  11
HETATM   11  N   UNL     4     -10.373  16.120  68.190  1.00  0.00    -0.260 NA 
BRANCH  11  12
HETATM   12  C   UNL     4     -10.481  17.460  67.530  1.00  0.00    -0.354 C  
HETATM   13  O   UNL     4     -10.221  19.528  68.756  1.00  0.00    -0.431 OA 
HETATM   14  O   UNL     4      -8.545  17.941  68.812  1.00  0.00    -0.281 OA 
HETATM   15  C   UNL     4      -9.656  18.460  68.416  1.00  0.00    -0.345 C  
ENDBRANCH  11  12
BRANCH  11  16
HETATM   16  C   UNL     4     -11.753  15.613  68.527  1.00  0.00    -0.327 C  
HETATM   17  C   UNL     4     -11.732  15.292  70.051  1.00  0.00    -0.315 C  
HETATM   18  O   UNL     4     -11.878  14.072  70.347  1.00  0.00    -0.302 OA 
HETATM   19  O   UNL     4     -11.273  16.279  70.743  1.00  0.00    -0.366 OA 
ENDBRANCH  11  16
ENDBRANCH  10  11
ENDBRANCH   9  10
ENDBRANCH   8   9
BRANCH   8  20
HETATM   20  C   UNL     4     -10.411  14.674  64.867  1.00  0.00    -0.387 C  
HETATM   21  C   UNL     4     -11.689  15.339  64.222  1.00  0.00    -0.215 C  
HETATM   22  O   UNL     4     -11.642  16.602  64.146  1.00  0.00    -1.102 OA 
HETATM   23  O   UNL     4     -12.638  14.570  63.839  1.00  0.00    -0.827 OA 
ENDBRANCH   8  20
ENDBRANCH   7   8
TORSDOF 7
ENDMDL
MODEL       18
REMARK 921   NORMALIZED FREE ENERGY PREDICTED BY IDOCK:   -5.64 KCAL/MOL
REMARK 922        TOTAL FREE ENERGY PREDICTED BY IDOCK:   -9.40 KCAL/MOL
REMARK 923 INTER-LIGAND FREE ENERGY PREDICTED BY IDOCK:   -8.01 KCAL/MOL
REMARK 924 INTRA-LIGAND FREE ENERGY PREDICTED BY IDOCK:   -1.39 KCAL/MOL
REMARK 927      BINDING AFFINITY PREDICTED BY RF-SCORE:    0.00 PKD
ROOT
HETATM    1 NA   UNL     1     -11.549  19.626  67.330  1.00  0.00    -0.464 Na 
HETATM    2 NA   UNL     2      -7.529  21.147  65.669  1.00  0.00    -0.466 Na 
HETATM    3 CA   UNL     3     -12.217  16.174  63.110  1.00  0.00    -0.798 Ca 
HETATM    4  O   UNL     4      -9.737  18.681  67.440  1.00  0.00    -0.295 OA 
HETATM    5  C   UNL     4      -8.861  18.473  66.551  1.00  0.00    -0.293 C  
HETATM    6  O   UNL     4      -8.396  19.413  65.820  1.00  0.00    -0.430 OA 
HETATM    7  C   UNL     4      -8.282  17.071  66.276  1.00  0.00    -0.287 C  
ENDROOT
BRANCH   7   8
HETATM    8  N   UNL     4      -9.036  15.874  66.742  1.00  0.00    -0.229 NA 
BRANCH   8   9
HETATM    9  C   UNL     4     -10.012  15.244  65.847  1.00  0.00    -0.340 C  
BRANCH   9  10
HETATM   10  C   UNL     4     -11.176  14.490  66.492  1.00  0.00    -0.344 C  
BRANCH  10  11
HETATM   11  N   UNL     4     -11.194  13.036  66.190  1.00  0.00    -0.284 NA 
BRANCH  11  12
HETATM   12  C   UNL     4     -11.210  12.165  67.408  1.00  0.00    -0.302 C  
HETATM   13  O   UNL     4     -10.756   9.792  67.304  1.00  0.00    -0.264 OA 
HETATM   14  O   UNL     4      -9.213  11.295  66.472  1.00  0.00    -0.177 OA 
HETATM   15  C   UNL     4     -10.287  10.936  67.087  1.00  0.00    -0.220 C  
ENDBRANCH  11  12
BRANCH  11  16
HETATM   16  C   UNL     4     -12.387  12.712  65.325  1.00  0.00    -0.466 C  
HETATM   17  C   UNL     4     -11.959  13.041  63.864  1.00  0.00    -0.485 C  
HETATM   18  O   UNL     4     -12.592  13.988  63.317  1.00  0.00    -0.801 OA 
HETATM   19  O   UNL     4     -10.833  12.491  63.559  1.00  0.00    -0.440 OA 
ENDBRANCH  11  16
ENDBRANCH  10  11
ENDBRANCH   9  10
ENDBRANCH   8   9
BRANCH   8  20
HETATM   20  C   UNL     4      -8.014  14.810  67.109  1.00  0.00    -0.174 C  
HETATM   21  C   UNL     4      -7.898  14.478  68.648  1.00  0.00    -0.140 C  
HETATM   22  O   UNL     4      -7.660  13.260  68.906  1.00  0.00    -0.077 OA 
HETATM   23  O   UNL     4      -8.048  15.436  69.482  1.00  0.00    -0.236 OA 
ENDBRANCH   8  20
ENDBRANCH   7   8
TORSDOF 7
ENDMDL
MODEL       19
REMARK 921   NORMALIZED FREE ENERGY PREDICTED BY IDOCK:   -5.64 KCAL/MOL
REMARK 922        TOTAL FREE ENERGY PREDICTED BY IDOCK:   -9.40 KCAL/MOL
REMARK 923 INTER-LIGAND FREE ENERGY PREDICTED BY IDOCK:   -8.27 KCAL/MOL
REMARK 924 INTRA-LIGAND FREE ENERGY PREDICTED BY IDOCK:   -1.13 KCAL/MOL
REMARK 927      BINDING AFFINITY PREDICTED BY RF-SCORE:    0.00 PKD
ROOT
HETATM    1 NA   UNL     1     -11.278  17.802  64.699  1.00  0.00    -0.515 Na 
HETATM    2 NA   UNL     2     -12.394  13.908  62.503  1.00  0.00    -0.865 Na 
HETATM    3 CA   UNL     3     -13.661  16.102  69.347  1.00  0.00    -0.541 Ca 
HETATM    4  O   UNL     4     -10.341  15.989  64.858  1.00  0.00    -0.543 OA 
HETATM    5  C   UNL     4     -10.815  14.828  65.026  1.00  0.00    -0.425 C  
HETATM    6  O   UNL     4     -11.739  14.356  64.279  1.00  0.00    -0.376 OA 
HETATM    7  C   UNL     4     -10.321  13.889  66.144  1.00  0.00    -0.301 C  
ENDROOT
BRANCH   7   8
HETATM    8  N   UNL     4      -9.591  14.470  67.304  1.00  0.00    -0.221 NA 
BRANCH   8   9
HETATM    9  C   UNL     4      -8.488  15.407  67.066  1.00  0.00    -0.231 C  
BRANCH   9  10
HETATM   10  C   UNL     4      -8.227  16.474  68.130  1.00  0.00    -0.181 C  
BRANCH  10  11
HETATM   11  N   UNL     4      -8.098  17.849  67.586  1.00  0.00    -0.222 NA 
BRANCH  11  12
HETATM   12  C   UNL     4      -8.872  18.879  68.350  1.00  0.00    -0.344 C  
HETATM   13  O   UNL     4      -9.778  20.858  67.296  1.00  0.00    -0.458 OA 
HETATM   14  O   UNL     4     -10.329  18.769  66.482  1.00  0.00    -0.377 OA 
HETATM   15  C   UNL     4      -9.797  19.604  67.308  1.00  0.00    -0.371 C  
ENDBRANCH  11  12
BRANCH  11  16
HETATM   16  C   UNL     4      -6.643  18.244  67.544  1.00  0.00    -0.195 C  
HETATM   17  C   UNL     4      -6.192  18.062  66.065  1.00  0.00    -0.242 C  
HETATM   18  O   UNL     4      -5.321  17.166  65.873  1.00  0.00    -0.295 OA 
HETATM   19  O   UNL     4      -6.993  18.649  65.242  1.00  0.00    -0.523 OA 
ENDBRANCH  11  16
ENDBRANCH  10  11
ENDBRANCH   9  10
ENDBRANCH   8   9
BRANCH   8  20
HETATM   20  C   UNL     4     -10.614  15.193  68.166  1.00  0.00    -0.246 C  
HETATM   21  C   UNL     4     -11.205  14.360  69.369  1.00  0.00    -0.281 C  
HETATM   22  O   UNL     4     -11.443  15.039  70.412  1.00  0.00    -0.252 OA 
HETATM   23  O   UNL     4     -11.390  13.106  69.197  1.00  0.00    -0.267 OA 
ENDBRANCH   8  20
ENDBRANCH   7   8
TORSDOF 7
ENDMDL
MODEL       20
REMARK 921   NORMALIZED FREE ENERGY PREDICTED BY IDOCK:   -5.63 KCAL/MOL
REMARK 922        TOTAL FREE ENERGY PREDICTED BY IDOCK:   -9.38 KCAL/MOL
REMARK 923 INTER-LIGAND FREE ENERGY PREDICTED BY IDOCK:   -8.34 KCAL/MOL
REMARK 924 INTRA-LIGAND FREE ENERGY PREDICTED BY IDOCK:   -1.04 KCAL/MOL
REMARK 927      BINDING AFFINITY PREDICTED BY RF-SCORE:    0.00 PKD
ROOT
HETATM    1 NA   UNL     1     -12.591  11.520  70.326  1.00  0.00    -0.272 Na 
HETATM    2 NA   UNL     2     -10.854   7.636  68.556  1.00  0.00    -0.194 Na 
HETATM    3 CA   UNL     3      -7.790  14.139  69.818  1.00  0.00    -0.296 Ca 
HETATM    4  O   UNL     4     -12.249  11.115  68.349  1.00  0.00    -0.610 OA 
HETATM    5  C   UNL     4     -11.235  10.627  67.771  1.00  0.00    -0.313 C  
HETATM    6  O   UNL     4     -10.695   9.532  68.153  1.00  0.00    -0.227 OA 
HETATM    7  C   UNL     4     -10.566  11.309  66.562  1.00  0.00    -0.266 C  
ENDROOT
BRANCH   7   8
HETATM    8  N   UNL     4     -10.825  12.755  66.315  1.00  0.00    -0.271 NA 
BRANCH   8   9
HETATM    9  C   UNL     4      -9.905  13.756  66.863  1.00  0.00    -0.264 C  
BRANCH   9  10
HETATM   10  C   UNL     4     -10.517  14.943  67.609  1.00  0.00    -0.249 C  
BRANCH  10  11
HETATM   11  N   UNL     4      -9.866  16.244  67.310  1.00  0.00    -0.239 NA 
BRANCH  11  12
HETATM   12  C   UNL     4      -8.669  16.533  68.163  1.00  0.00    -0.194 C  
HETATM   13  O   UNL     4      -7.725  18.751  68.353  1.00  0.00    -0.293 OA 
HETATM   14  O   UNL     4      -9.954  18.405  68.847  1.00  0.00    -0.381 OA 
HETATM   15  C   UNL     4      -8.751  18.054  68.543  1.00  0.00    -0.295 C  
ENDBRANCH  11  12
BRANCH  11  16
HETATM   16  C   UNL     4      -9.470  16.290  65.856  1.00  0.00    -0.283 C  
HETATM   17  C   UNL     4     -10.510  17.215  65.157  1.00  0.00     0.139 C  
HETATM   18  O   UNL     4     -11.250  16.647  64.304  1.00  0.00    -1.098 OA 
HETATM   19  O   UNL     4     -10.645  18.339  65.775  1.00  0.00    -0.554 OA 
ENDBRANCH  11  16
ENDBRANCH  10  11
ENDBRANCH   9  10
ENDBRANCH   8   9
BRANCH   8  20
HETATM   20  C   UNL     4     -10.859  12.957  64.808  1.00  0.00    -0.327 C  
HETATM   21  C   UNL     4     -12.297  13.032  64.161  1.00  0.00    -0.358 C  
HETATM   22  O   UNL     4     -12.394  13.836  63.188  1.00  0.00    -0.726 OA 
HETATM   23  O   UNL     4     -13.218  12.296  64.659  1.00  0.00    -0.763 OA 
ENDBRANCH   8  20
ENDBRANCH   7   8
TORSDOF 7
ENDMDL
MODEL       21
REMARK 921   NORMALIZED FREE ENERGY PREDICTED BY IDOCK:   -5.59 KCAL/MOL
REMARK 922        TOTAL FREE ENERGY PREDICTED BY IDOCK:   -9.32 KCAL/MOL
REMARK 923 INTER-LIGAND FREE ENERGY PREDICTED BY IDOCK:   -8.15 KCAL/MOL
REMARK 924 INTRA-LIGAND FREE ENERGY PREDICTED BY IDOCK:   -1.17 KCAL/MOL
REMARK 927      BINDING AFFINITY PREDICTED BY RF-SCORE:    0.00 PKD
ROOT
HETATM    1 NA   UNL     1     -12.428  12.445  70.103  1.00  0.00    -0.265 Na 
HETATM    2 NA   UNL     2     -13.736  16.153  72.506  1.00  0.00    -0.433 Na 
HETATM    3 CA   UNL     3     -14.360  14.551  65.413  1.00  0.00    -0.665 Ca 
HETATM    4  O   UNL     4     -11.476  14.254  70.186  1.00  0.00    -0.254 OA 
HETATM    5  C   UNL     4     -11.930  15.430  70.073  1.00  0.00    -0.356 C  
HETATM    6  O   UNL     4     -12.919  15.848  70.768  1.00  0.00    -0.475 OA 
HETATM    7  C   UNL     4     -11.331  16.454  69.089  1.00  0.00    -0.241 C  
ENDROOT
BRANCH   7   8
HETATM    8  N   UNL     4     -10.496  15.965  67.957  1.00  0.00    -0.266 NA 
BRANCH   8   9
HETATM    9  C   UNL     4     -11.045  14.962  67.038  1.00  0.00    -0.338 C  
BRANCH   9  10
HETATM   10  C   UNL     4     -10.056  14.014  66.357  1.00  0.00    -0.294 C  
BRANCH  10  11
HETATM   11  N   UNL     4     -10.688  12.808  65.765  1.00  0.00    -0.268 NA 
BRANCH  11  12
HETATM   12  C   UNL     4     -10.863  12.883  64.280  1.00  0.00    -0.397 C  
HETATM   13  O   UNL     4     -12.464  11.509  63.097  1.00  0.00    -0.326 OA 
HETATM   14  O   UNL     4     -13.170  12.864  64.829  1.00  0.00    -0.764 OA 
HETATM   15  C   UNL     4     -12.324  12.391  63.979  1.00  0.00    -0.488 C  
ENDBRANCH  11  12
BRANCH  11  16
HETATM   16  C   UNL     4      -9.875  11.586  66.114  1.00  0.00    -0.221 C  
HETATM   17  C   UNL     4     -10.385  11.116  67.508  1.00  0.00    -0.196 C  
HETATM   18  O   UNL     4      -9.540  11.191  68.445  1.00  0.00    -0.178 OA 
HETATM   19  O   UNL     4     -11.670  11.006  67.538  1.00  0.00    -0.565 OA 
ENDBRANCH  11  16
ENDBRANCH  10  11
ENDBRANCH   9  10
ENDBRANCH   8   9
BRANCH   8  20
HETATM   20  C   UNL     4     -10.114  17.176  67.121  1.00  0.00    -0.295 C  
HETATM   21  C   UNL     4      -8.574  17.338  66.818  1.00  0.00    -0.249 C  
HETATM   22  O   UNL     4      -8.311  17.813  65.673  1.00  0.00    -0.451 OA 
HETATM   23  O   UNL     4      -7.743  16.988  67.725  1.00  0.00    -0.167 OA 
ENDBRANCH   8  20
ENDBRANCH   7   8
TORSDOF 7
ENDMDL
MODEL       22
REMARK 921   NORMALIZED FREE ENERGY PREDICTED BY IDOCK:   -5.53 KCAL/MOL
REMARK 922        TOTAL FREE ENERGY PREDICTED BY IDOCK:   -9.24 KCAL/MOL
REMARK 923 INTER-LIGAND FREE ENERGY PREDICTED BY IDOCK:   -8.23 KCAL/MOL
REMARK 924 INTRA-LIGAND FREE ENERGY PREDICTED BY IDOCK:   -1.01 KCAL/MOL
REMARK 927      BINDING AFFINITY PREDICTED BY RF-SCORE:    0.00 PKD
ROOT
HETATM    1 NA   UNL     1     -11.281  10.060  67.672  1.00  0.00    -0.230 Na 
HETATM    2 NA   UNL     2     -13.721  12.019  64.289  1.00  0.00    -0.724 Na 
HETATM    3 CA   UNL     3      -6.834  13.051  66.472  1.00  0.00    -0.356 Ca 
HETATM    4  O   UNL     4     -12.160  11.908  67.702  1.00  0.00    -0.568 OA 
HETATM    5  C   UNL     4     -12.145  12.841  66.847  1.00  0.00    -0.197 C  
HETATM    6  O   UNL     4     -12.450  12.647  65.621  1.00  0.00    -0.622 OA 
HETATM    7  C   UNL     4     -11.757  14.288  67.212  1.00  0.00    -0.395 C  
ENDROOT
BRANCH   7   8
HETATM    8  N   UNL     4     -10.985  14.535  68.462  1.00  0.00    -0.241 NA 
BRANCH   8   9
HETATM    9  C   UNL     4      -9.711  15.257  68.392  1.00  0.00    -0.213 C  
BRANCH   9  10
HETATM   10  C   UNL     4      -9.314  15.856  67.042  1.00  0.00    -0.215 C  
BRANCH  10  11
HETATM   11  N   UNL     4      -9.197  17.336  67.051  1.00  0.00    -0.237 NA 
BRANCH  11  12
HETATM   12  C   UNL     4     -10.284  18.026  67.815  1.00  0.00    -0.378 C  
HETATM   13  O   UNL     4     -10.397  20.434  68.010  1.00  0.00    -0.309 OA 
HETATM   14  O   UNL     4     -10.330  19.453  65.921  1.00  0.00    -0.465 OA 
HETATM   15  C   UNL     4     -10.407  19.469  67.208  1.00  0.00    -0.447 C  
ENDBRANCH  11  12
BRANCH  11  16
HETATM   16  C   UNL     4      -7.856  17.736  67.614  1.00  0.00    -0.209 C  
HETATM   17  C   UNL     4      -6.833  17.562  66.452  1.00  0.00    -0.273 C  
HETATM   18  O   UNL     4      -5.957  16.669  66.634  1.00  0.00    -0.306 OA 
HETATM   19  O   UNL     4      -7.227  18.150  65.374  1.00  0.00    -0.529 OA 
ENDBRANCH  11  16
ENDBRANCH  10  11
ENDBRANCH   9  10
ENDBRANCH   8   9
BRANCH   8  20
HETATM   20  C   UNL     4     -11.890  15.313  69.405  1.00  0.00    -0.343 C  
HETATM   21  C   UNL     4     -12.076  14.690  70.843  1.00  0.00    -0.328 C  
HETATM   22  O   UNL     4     -12.176  15.542  71.775  1.00  0.00    -0.323 OA 
HETATM   23  O   UNL     4     -12.109  13.415  70.945  1.00  0.00    -0.326 OA 
ENDBRANCH   8  20
ENDBRANCH   7   8
TORSDOF 7
ENDMDL
MODEL       23
REMARK 921   NORMALIZED FREE ENERGY PREDICTED BY IDOCK:   -5.53 KCAL/MOL
REMARK 922        TOTAL FREE ENERGY PREDICTED BY IDOCK:   -9.24 KCAL/MOL
REMARK 923 INTER-LIGAND FREE ENERGY PREDICTED BY IDOCK:   -8.15 KCAL/MOL
REMARK 924 INTRA-LIGAND FREE ENERGY PREDICTED BY IDOCK:   -1.09 KCAL/MOL
REMARK 927      BINDING AFFINITY PREDICTED BY RF-SCORE:    0.00 PKD
ROOT
HETATM    1 NA   UNL     1     -12.305  12.435  69.948  1.00  0.00    -0.257 Na 
HETATM    2 NA   UNL     2     -13.708  16.140  72.302  1.00  0.00    -0.439 Na 
HETATM    3 CA   UNL     3     -14.211  14.469  65.215  1.00  0.00    -0.688 Ca 
HETATM    4  O   UNL     4     -11.385  14.262  70.028  1.00  0.00    -0.241 OA 
HETATM    5  C   UNL     4     -11.858  15.429  69.899  1.00  0.00    -0.350 C  
HETATM    6  O   UNL     4     -12.862  15.835  70.577  1.00  0.00    -0.423 OA 
HETATM    7  C   UNL     4     -11.264  16.455  68.914  1.00  0.00    -0.304 C  
ENDROOT
BRANCH   7   8
HETATM    8  N   UNL     4     -10.406  15.971  67.797  1.00  0.00    -0.272 NA 
BRANCH   8   9
HETATM    9  C   UNL     4     -11.026  15.295  66.653  1.00  0.00    -0.297 C  
BRANCH   9  10
HETATM   10  C   UNL     4     -10.192  14.244  65.918  1.00  0.00    -0.324 C  
BRANCH  10  11
HETATM   11  N   UNL     4     -10.672  12.852  66.109  1.00  0.00    -0.269 NA 
BRANCH  11  12
HETATM   12  C   UNL     4     -10.574  12.365  67.522  1.00  0.00    -0.219 C  
HETATM   13  O   UNL     4     -11.898  10.517  68.346  1.00  0.00    -0.380 OA 
HETATM   14  O   UNL     4     -10.551  10.229  66.493  1.00  0.00    -0.207 OA 
HETATM   15  C   UNL     4     -11.031  10.863  67.507  1.00  0.00    -0.293 C  
ENDBRANCH  11  12
BRANCH  11  16
HETATM   16  C   UNL     4     -12.100  12.738  65.636  1.00  0.00    -0.459 C  
HETATM   17  C   UNL     4     -12.030  12.625  64.085  1.00  0.00    -0.426 C  
HETATM   18  O   UNL     4     -12.542  13.591  63.450  1.00  0.00    -0.740 OA 
HETATM   19  O   UNL     4     -11.202  11.712  63.706  1.00  0.00    -0.388 OA 
ENDBRANCH  11  16
ENDBRANCH  10  11
ENDBRANCH   9  10
ENDBRANCH   8   9
BRANCH   8  20
HETATM   20  C   UNL     4      -9.653  17.174  67.251  1.00  0.00    -0.245 C  
HETATM   21  C   UNL     4      -8.183  16.890  66.750  1.00  0.00    -0.240 C  
HETATM   22  O   UNL     4      -7.832  17.569  65.740  1.00  0.00    -0.544 OA 
HETATM   23  O   UNL     4      -7.489  16.025  67.387  1.00  0.00    -0.144 OA 
ENDBRANCH   8  20
ENDBRANCH   7   8
TORSDOF 7
ENDMDL
MODEL       24
REMARK 921   NORMALIZED FREE ENERGY PREDICTED BY IDOCK:   -5.52 KCAL/MOL
REMARK 922        TOTAL FREE ENERGY PREDICTED BY IDOCK:   -9.23 KCAL/MOL
REMARK 923 INTER-LIGAND FREE ENERGY PREDICTED BY IDOCK:   -8.07 KCAL/MOL
REMARK 924 INTRA-LIGAND FREE ENERGY PREDICTED BY IDOCK:   -1.16 KCAL/MOL
REMARK 927      BINDING AFFINITY PREDICTED BY RF-SCORE:    0.00 PKD
ROOT
HETATM    1 NA   UNL     1     -12.258  10.966  69.230  1.00  0.00    -0.253 Na 
HETATM    2 NA   UNL     2     -10.508   8.420  65.810  1.00  0.00    -0.451 Na 
HETATM    3 CA   UNL     3      -7.561  13.749  69.833  1.00  0.00    -0.323 Ca 
HETATM    4  O   UNL     4     -12.007  11.534  67.280  1.00  0.00    -0.605 OA 
HETATM    5  C   UNL     4     -11.010  11.415  66.509  1.00  0.00    -0.272 C  
HETATM    6  O   UNL     4     -10.422  10.294  66.324  1.00  0.00    -0.215 OA 
HETATM    7  C   UNL     4     -10.422  12.608  65.731  1.00  0.00    -0.277 C  
ENDROOT
BRANCH   7   8
HETATM    8  N   UNL     4     -10.732  13.991  66.188  1.00  0.00    -0.287 NA 
BRANCH   8   9
HETATM    9  C   UNL     4     -10.056  14.527  67.374  1.00  0.00    -0.235 C  
BRANCH   9  10
HETATM   10  C   UNL     4     -10.288  16.001  67.713  1.00  0.00    -0.279 C  
BRANCH  10  11
HETATM   11  N   UNL     4      -9.076  16.848  67.583  1.00  0.00    -0.222 NA 
BRANCH  11  12
HETATM   12  C   UNL     4      -7.874  16.113  67.075  1.00  0.00    -0.223 C  
HETATM   13  O   UNL     4      -5.618  16.799  67.610  1.00  0.00    -0.120 OA 
HETATM   14  O   UNL     4      -7.120  16.362  69.309  1.00  0.00    -0.213 OA 
HETATM   15  C   UNL     4      -6.711  16.408  68.087  1.00  0.00    -0.132 C  
ENDBRANCH  11  12
BRANCH  11  16
HETATM   16  C   UNL     4      -9.369  18.018  66.678  1.00  0.00    -0.291 C  
HETATM   17  C   UNL     4      -9.803  19.185  67.613  1.00  0.00    -0.335 C  
HETATM   18  O   UNL     4     -11.000  19.568  67.477  1.00  0.00    -0.452 OA 
HETATM   19  O   UNL     4      -8.962  19.370  68.573  1.00  0.00    -0.353 OA 
ENDBRANCH  11  16
ENDBRANCH  10  11
ENDBRANCH   9  10
ENDBRANCH   8   9
BRANCH   8  20
HETATM   20  C   UNL     4     -10.421  14.930  65.033  1.00  0.00    -0.401 C  
HETATM   21  C   UNL     4     -11.673  15.487  64.249  1.00  0.00    -0.190 C  
HETATM   22  O   UNL     4     -11.547  16.678  63.837  1.00  0.00    -1.204 OA 
HETATM   23  O   UNL     4     -12.679  14.712  64.098  1.00  0.00    -0.738 OA 
ENDBRANCH   8  20
ENDBRANCH   7   8
TORSDOF 7
ENDMDL
MODEL       25
REMARK 921   NORMALIZED FREE ENERGY PREDICTED BY IDOCK:   -5.52 KCAL/MOL
REMARK 922        TOTAL FREE ENERGY PREDICTED BY IDOCK:   -9.22 KCAL/MOL
REMARK 923 INTER-LIGAND FREE ENERGY PREDICTED BY IDOCK:   -8.75 KCAL/MOL
REMARK 924 INTRA-LIGAND FREE ENERGY PREDICTED BY IDOCK:   -0.47 KCAL/MOL
REMARK 927      BINDING AFFINITY PREDICTED BY RF-SCORE:    0.00 PKD
ROOT
HETATM    1 NA   UNL     1     -10.655  13.931  70.678  1.00  0.00    -0.425 Na 
HETATM    2 NA   UNL     2     -12.798  10.012  69.546  1.00  0.00    -0.520 Na 
HETATM    3 CA   UNL     3      -6.992  13.335  66.629  1.00  0.00    -0.342 Ca 
HETATM    4  O   UNL     4     -11.972  13.652  69.137  1.00  0.00    -0.329 OA 
HETATM    5  C   UNL     4     -12.031  12.743  68.258  1.00  0.00    -0.229 C  
HETATM    6  O   UNL     4     -12.025  11.501  68.562  1.00  0.00    -0.472 OA 
HETATM    7  C   UNL     4     -12.112  13.057  66.751  1.00  0.00    -0.300 C  
ENDROOT
BRANCH   7   8
HETATM    8  N   UNL     4     -11.696  14.404  66.271  1.00  0.00    -0.381 NA 
BRANCH   8   9
HETATM    9  C   UNL     4     -10.288  14.801  66.372  1.00  0.00    -0.293 C  
BRANCH   9  10
HETATM   10  C   UNL     4      -9.895  15.713  67.535  1.00  0.00    -0.228 C  
BRANCH  10  11
HETATM   11  N   UNL     4      -9.362  17.033  67.112  1.00  0.00    -0.232 NA 
BRANCH  11  12
HETATM   12  C   UNL     4     -10.313  18.169  67.331  1.00  0.00    -0.389 C  
HETATM   13  O   UNL     4     -10.550  19.978  65.743  1.00  0.00    -0.465 OA 
HETATM   14  O   UNL     4     -10.848  17.796  65.051  1.00  0.00    -0.774 OA 
HETATM   15  C   UNL     4     -10.659  18.739  65.909  1.00  0.00    -0.352 C  
ENDBRANCH  11  12
BRANCH  11  16
HETATM   16  C   UNL     4      -8.069  17.314  67.837  1.00  0.00    -0.210 C  
HETATM   17  C   UNL     4      -6.943  17.196  66.767  1.00  0.00    -0.225 C  
HETATM   18  O   UNL     4      -6.126  16.249  66.947  1.00  0.00    -0.313 OA 
HETATM   19  O   UNL     4      -7.203  17.898  65.717  1.00  0.00    -0.470 OA 
ENDBRANCH  11  16
ENDBRANCH  10  11
ENDBRANCH   9  10
ENDBRANCH   8   9
BRANCH   8  20
HETATM   20  C   UNL     4     -12.084  14.500  64.803  1.00  0.00    -0.445 C  
HETATM   21  C   UNL     4     -11.692  13.258  63.911  1.00  0.00    -0.431 C  
HETATM   22  O   UNL     4     -12.529  12.980  63.001  1.00  0.00    -0.565 OA 
HETATM   23  O   UNL     4     -10.596  12.653  64.172  1.00  0.00    -0.355 OA 
ENDBRANCH   8  20
ENDBRANCH   7   8
TORSDOF 7
ENDMDL
MODEL       26
REMARK 921   NORMALIZED FREE ENERGY PREDICTED BY IDOCK:   -5.50 KCAL/MOL
REMARK 922        TOTAL FREE ENERGY PREDICTED BY IDOCK:   -9.19 KCAL/MOL
REMARK 923 INTER-LIGAND FREE ENERGY PREDICTED BY IDOCK:   -7.86 KCAL/MOL
REMARK 924 INTRA-LIGAND FREE ENERGY PREDICTED BY IDOCK:   -1.33 KCAL/MOL
REMARK 927      BINDING AFFINITY PREDICTED BY RF-SCORE:    0.00 PKD
ROOT
HETATM    1 NA   UNL     1      -8.796  18.923  68.011  1.00  0.00    -0.262 Na 
HETATM    2 NA   UNL     2     -11.553  17.383  71.367  1.00  0.00    -0.640 Na 
HETATM    3 CA   UNL     3      -6.273  14.064  67.578  1.00  0.00    -0.111 Ca 
HETATM    4  O   UNL     4     -10.461  17.752  67.794  1.00  0.00    -0.368 OA 
HETATM    5  C   UNL     4     -10.821  16.710  68.415  1.00  0.00    -0.361 C  
HETATM    6  O   UNL     4     -10.878  16.663  69.691  1.00  0.00    -0.341 OA 
HETATM    7  C   UNL     4     -11.221  15.412  67.686  1.00  0.00    -0.311 C  
ENDROOT
BRANCH   7   8
HETATM    8  N   UNL     4     -10.787  15.214  66.274  1.00  0.00    -0.330 NA 
BRANCH   8   9
HETATM    9  C   UNL     4      -9.535  14.502  65.999  1.00  0.00    -0.229 C  
BRANCH   9  10
HETATM   10  C   UNL     4      -9.045  13.505  67.050  1.00  0.00    -0.244 C  
BRANCH  10  11
HETATM   11  N   UNL     4      -9.569  12.128  66.867  1.00  0.00    -0.201 NA 
BRANCH  11  12
HETATM   12  C   UNL     4      -8.673  11.240  66.060  1.00  0.00    -0.164 C  
HETATM   13  O   UNL     4      -9.476   9.230  64.983  1.00  0.00    -0.209 OA 
HETATM   14  O   UNL     4     -10.489  11.256  64.536  1.00  0.00    -0.294 OA 
HETATM   15  C   UNL     4      -9.598  10.477  65.046  1.00  0.00    -0.276 C  
ENDBRANCH  11  12
BRANCH  11  16
HETATM   16  C   UNL     4      -9.821  11.497  68.213  1.00  0.00    -0.203 C  
HETATM   17  C   UNL     4     -11.340  11.688  68.499  1.00  0.00    -0.274 C  
HETATM   18  O   UNL     4     -11.615  12.434  69.481  1.00  0.00    -0.283 OA 
HETATM   19  O   UNL     4     -12.068  11.294  67.510  1.00  0.00    -0.530 OA 
ENDBRANCH  11  16
ENDBRANCH  10  11
ENDBRANCH   9  10
ENDBRANCH   8   9
BRANCH   8  20
HETATM   20  C   UNL     4     -11.898  14.459  65.562  1.00  0.00    -0.357 C  
HETATM   21  C   UNL     4     -12.143  14.866  64.056  1.00  0.00    -0.126 C  
HETATM   22  O   UNL     4     -12.474  13.905  63.300  1.00  0.00    -0.817 OA 
HETATM   23  O   UNL     4     -11.992  16.095  63.735  1.00  0.00    -0.926 OA 
ENDBRANCH   8  20
ENDBRANCH   7   8
TORSDOF 7
ENDMDL
MODEL       27
REMARK 921   NORMALIZED FREE ENERGY PREDICTED BY IDOCK:   -5.48 KCAL/MOL
REMARK 922        TOTAL FREE ENERGY PREDICTED BY IDOCK:   -9.17 KCAL/MOL
REMARK 923 INTER-LIGAND FREE ENERGY PREDICTED BY IDOCK:   -7.75 KCAL/MOL
REMARK 924 INTRA-LIGAND FREE ENERGY PREDICTED BY IDOCK:   -1.42 KCAL/MOL
REMARK 927      BINDING AFFINITY PREDICTED BY RF-SCORE:    0.00 PKD
ROOT
HETATM    1 NA   UNL     1     -12.117  11.584  70.329  1.00  0.00    -0.228 Na 
HETATM    2 NA   UNL     2     -11.447   7.940  67.589  1.00  0.00    -0.472 Na 
HETATM    3 CA   UNL     3      -6.931  13.276  69.686  1.00  0.00    -0.108 Ca 
HETATM    4  O   UNL     4     -12.063  11.578  68.283  1.00  0.00    -0.580 OA 
HETATM    5  C   UNL     4     -11.240  11.047  67.482  1.00  0.00    -0.302 C  
HETATM    6  O   UNL     4     -10.918   9.811  67.557  1.00  0.00    -0.275 OA 
HETATM    7  C   UNL     4     -10.557  11.843  66.353  1.00  0.00    -0.248 C  
ENDROOT
BRANCH   7   8
HETATM    8  N   UNL     4     -10.517  13.329  66.439  1.00  0.00    -0.280 NA 
BRANCH   8   9
HETATM    9  C   UNL     4      -9.315  13.988  66.962  1.00  0.00    -0.250 C  
BRANCH   9  10
HETATM   10  C   UNL     4      -8.907  15.318  66.325  1.00  0.00    -0.227 C  
BRANCH  10  11
HETATM   11  N   UNL     4      -9.166  16.501  67.183  1.00  0.00    -0.211 NA 
BRANCH  11  12
HETATM   12  C   UNL     4     -10.537  17.082  67.018  1.00  0.00    -0.226 C  
HETATM   13  O   UNL     4     -10.982  19.442  67.298  1.00  0.00    -0.491 OA 
HETATM   14  O   UNL     4      -9.381  18.747  65.786  1.00  0.00    -0.404 OA 
HETATM   15  C   UNL     4     -10.337  18.592  66.638  1.00  0.00    -0.415 C  
ENDBRANCH  11  12
BRANCH  11  16
HETATM   16  C   UNL     4      -8.947  16.137  68.631  1.00  0.00    -0.221 C  
HETATM   17  C   UNL     4      -7.510  16.623  68.982  1.00  0.00    -0.232 C  
HETATM   18  O   UNL     4      -6.685  15.707  69.263  1.00  0.00    -0.136 OA 
HETATM   19  O   UNL     4      -7.322  17.852  68.642  1.00  0.00    -0.254 OA 
ENDBRANCH  11  16
ENDBRANCH  10  11
ENDBRANCH   9  10
ENDBRANCH   8   9
BRANCH   8  20
HETATM   20  C   UNL     4     -10.749  13.870  65.037  1.00  0.00    -0.386 C  
HETATM   21  C   UNL     4     -12.182  14.477  64.769  1.00  0.00    -0.431 C  
HETATM   22  O   UNL     4     -12.191  15.478  63.992  1.00  0.00    -0.622 OA 
HETATM   23  O   UNL     4     -13.184  13.926  65.341  1.00  0.00    -0.750 OA 
ENDBRANCH   8  20
ENDBRANCH   7   8
TORSDOF 7
ENDMDL
MODEL       28
REMARK 921   NORMALIZED FREE ENERGY PREDICTED BY IDOCK:   -5.45 KCAL/MOL
REMARK 922        TOTAL FREE ENERGY PREDICTED BY IDOCK:   -9.13 KCAL/MOL
REMARK 923 INTER-LIGAND FREE ENERGY PREDICTED BY IDOCK:   -7.83 KCAL/MOL
REMARK 924 INTRA-LIGAND FREE ENERGY PREDICTED BY IDOCK:   -1.29 KCAL/MOL
REMARK 927      BINDING AFFINITY PREDICTED BY RF-SCORE:    0.00 PKD
ROOT
HETATM    1 NA   UNL     1     -11.926  17.083  71.188  1.00  0.00    -0.591 Na 
HETATM    2 NA   UNL     2     -13.358  13.054  72.906  1.00  0.00    -0.466 Na 
HETATM    3 CA   UNL     3      -7.154  14.915  69.543  1.00  0.00    -0.106 Ca 
HETATM    4  O   UNL     4     -12.677  15.496  70.137  1.00  0.00    -0.347 OA 
HETATM    5  C   UNL     4     -12.402  14.262  70.199  1.00  0.00    -0.353 C  
HETATM    6  O   UNL     4     -12.413  13.616  71.302  1.00  0.00    -0.352 OA 
HETATM    7  C   UNL     4     -12.030  13.436  68.951  1.00  0.00    -0.324 C  
ENDROOT
BRANCH   7   8
HETATM    8  N   UNL     4     -11.571  14.147  67.725  1.00  0.00    -0.327 NA 
BRANCH   8   9
HETATM    9  C   UNL     4     -10.337  14.937  67.771  1.00  0.00    -0.244 C  
BRANCH   9  10
HETATM   10  C   UNL     4     -10.445  16.433  67.468  1.00  0.00    -0.304 C  
BRANCH  10  11
HETATM   11  N   UNL     4      -9.137  17.101  67.252  1.00  0.00    -0.219 NA 
BRANCH  11  12
HETATM   12  C   UNL     4      -8.093  16.210  66.650  1.00  0.00    -0.288 C  
HETATM   13  O   UNL     4      -5.796  16.913  66.380  1.00  0.00    -0.320 OA 
HETATM   14  O   UNL     4      -6.781  16.985  68.467  1.00  0.00    -0.158 OA 
HETATM   15  C   UNL     4      -6.712  16.702  67.211  1.00  0.00    -0.178 C  
ENDBRANCH  11  12
BRANCH  11  16
HETATM   16  C   UNL     4      -9.325  18.314  66.376  1.00  0.00    -0.273 C  
HETATM   17  C   UNL     4      -9.856  19.440  67.312  1.00  0.00    -0.344 C  
HETATM   18  O   UNL     4     -11.030  19.838  67.065  1.00  0.00    -0.435 OA 
HETATM   19  O   UNL     4      -9.125  19.573  68.367  1.00  0.00    -0.343 OA 
ENDBRANCH  11  16
ENDBRANCH  10  11
ENDBRANCH   9  10
ENDBRANCH   8   9
BRANCH   8  20
HETATM   20  C   UNL     4     -11.392  13.101  66.636  1.00  0.00    -0.325 C  
HETATM   21  C   UNL     4     -12.064  13.439  65.249  1.00  0.00    -0.413 C  
HETATM   22  O   UNL     4     -11.412  13.041  64.239  1.00  0.00    -0.343 OA 
HETATM   23  O   UNL     4     -13.179  14.066  65.259  1.00  0.00    -0.782 OA 
ENDBRANCH   8  20
ENDBRANCH   7   8
TORSDOF 7
ENDMDL
MODEL       29
REMARK 921   NORMALIZED FREE ENERGY PREDICTED BY IDOCK:   -5.44 KCAL/MOL
REMARK 922        TOTAL FREE ENERGY PREDICTED BY IDOCK:   -9.11 KCAL/MOL
REMARK 923 INTER-LIGAND FREE ENERGY PREDICTED BY IDOCK:   -8.45 KCAL/MOL
REMARK 924 INTRA-LIGAND FREE ENERGY PREDICTED BY IDOCK:   -0.67 KCAL/MOL
REMARK 927      BINDING AFFINITY PREDICTED BY RF-SCORE:    0.00 PKD
ROOT
HETATM    1 NA   UNL     1     -11.640  17.413  70.709  1.00  0.00    -0.499 Na 
HETATM    2 NA   UNL     2     -13.218  15.379  74.531  1.00  0.00    -0.625 Na 
HETATM    3 CA   UNL     3      -7.429  13.907  70.339  1.00  0.00    -0.349 Ca 
HETATM    4  O   UNL     4     -12.705  15.670  70.823  1.00  0.00    -0.458 OA 
HETATM    5  C   UNL     4     -12.557  14.661  71.573  1.00  0.00    -0.343 C  
HETATM    6  O   UNL     4     -12.470  14.764  72.844  1.00  0.00    -0.354 OA 
HETATM    7  C   UNL     4     -12.467  13.226  71.017  1.00  0.00    -0.336 C  
ENDROOT
BRANCH   7   8
HETATM    8  N   UNL     4     -12.125  13.028  69.581  1.00  0.00    -0.278 NA 
BRANCH   8   9
HETATM    9  C   UNL     4     -11.061  13.837  68.976  1.00  0.00    -0.259 C  
BRANCH   9  10
HETATM   10  C   UNL     4     -11.472  14.868  67.923  1.00  0.00    -0.340 C  
BRANCH  10  11
HETATM   11  N   UNL     4     -10.341  15.670  67.392  1.00  0.00    -0.269 NA 
BRANCH  11  12
HETATM   12  C   UNL     4      -9.268  15.947  68.400  1.00  0.00    -0.197 C  
HETATM   13  O   UNL     4      -8.087  18.056  68.483  1.00  0.00    -0.289 OA 
HETATM   14  O   UNL     4     -10.392  18.023  68.616  1.00  0.00    -0.369 OA 
HETATM   15  C   UNL     4      -9.212  17.507  68.573  1.00  0.00    -0.278 C  
ENDBRANCH  11  12
BRANCH  11  16
HETATM   16  C   UNL     4      -9.739  14.972  66.198  1.00  0.00    -0.306 C  
HETATM   17  C   UNL     4     -10.657  15.322  64.989  1.00  0.00    -0.418 C  
HETATM   18  O   UNL     4     -11.274  14.343  64.479  1.00  0.00    -0.364 OA 
HETATM   19  O   UNL     4     -10.865  16.591  64.896  1.00  0.00    -0.684 OA 
ENDBRANCH  11  16
ENDBRANCH  10  11
ENDBRANCH   9  10
ENDBRANCH   8   9
BRANCH   8  20
HETATM   20  C   UNL     4     -11.732  11.570  69.406  1.00  0.00    -0.346 C  
HETATM   21  C   UNL     4     -11.341  11.139  67.939  1.00  0.00    -0.309 C  
HETATM   22  O   UNL     4     -10.416  10.276  67.873  1.00  0.00    -0.182 OA 
HETATM   23  O   UNL     4     -11.974  11.678  66.967  1.00  0.00    -0.593 OA 
ENDBRANCH   8  20
ENDBRANCH   7   8
TORSDOF 7
ENDMDL
MODEL       30
REMARK 921   NORMALIZED FREE ENERGY PREDICTED BY IDOCK:   -5.44 KCAL/MOL
REMARK 922        TOTAL FREE ENERGY PREDICTED BY IDOCK:   -9.11 KCAL/MOL
REMARK 923 INTER-LIGAND FREE ENERGY PREDICTED BY IDOCK:   -8.38 KCAL/MOL
REMARK 924 INTRA-LIGAND FREE ENERGY PREDICTED BY IDOCK:   -0.73 KCAL/MOL
REMARK 927      BINDING AFFINITY PREDICTED BY RF-SCORE:    0.00 PKD
ROOT
HETATM    1 NA   UNL     1     -14.411  14.400  65.299  1.00  0.00    -0.601 Na 
HETATM    2 NA   UNL     2     -12.912  11.125  62.424  1.00  0.00    -0.955 Na 
HETATM    3 CA   UNL     3     -12.603  11.652  69.697  1.00  0.00    -0.266 Ca 
HETATM    4  O   UNL     4     -12.485  14.097  64.678  1.00  0.00    -0.577 OA 
HETATM    5  C   UNL     4     -11.796  13.037  64.615  1.00  0.00    -0.372 C  
HETATM    6  O   UNL     4     -12.218  11.985  64.025  1.00  0.00    -0.414 OA 
HETATM    7  C   UNL     4     -10.394  12.926  65.246  1.00  0.00    -0.300 C  
ENDROOT
BRANCH   7   8
HETATM    8  N   UNL     4      -9.997  13.902  66.299  1.00  0.00    -0.298 NA 
BRANCH   8   9
HETATM    9  C   UNL     4      -9.527  15.234  65.906  1.00  0.00    -0.316 C  
BRANCH   9  10
HETATM   10  C   UNL     4     -10.517  16.395  66.024  1.00  0.00    -0.323 C  
BRANCH  10  11
HETATM   11  N   UNL     4      -9.998  17.554  66.794  1.00  0.00    -0.300 NA 
BRANCH  11  12
HETATM   12  C   UNL     4     -10.606  18.865  66.399  1.00  0.00    -0.387 C  
HETATM   13  O   UNL     4      -9.620  20.984  67.021  1.00  0.00    -0.292 OA 
HETATM   14  O   UNL     4      -8.365  19.427  65.866  1.00  0.00    -0.431 OA 
HETATM   15  C   UNL     4      -9.436  19.912  66.393  1.00  0.00    -0.412 C  
ENDBRANCH  11  12
BRANCH  11  16
HETATM   16  C   UNL     4     -10.217  17.323  68.268  1.00  0.00    -0.348 C  
HETATM   17  C   UNL     4      -8.824  16.952  68.856  1.00  0.00    -0.216 C  
HETATM   18  O   UNL     4      -8.725  15.777  69.312  1.00  0.00    -0.240 OA 
HETATM   19  O   UNL     4      -7.917  17.803  68.514  1.00  0.00    -0.279 OA 
ENDBRANCH  11  16
ENDBRANCH  10  11
ENDBRANCH   9  10
ENDBRANCH   8   9
BRANCH   8  20
HETATM   20  C   UNL     4     -11.200  14.102  67.207  1.00  0.00    -0.316 C  
HETATM   21  C   UNL     4     -11.057  13.522  68.668  1.00  0.00    -0.269 C  
HETATM   22  O   UNL     4     -11.621  14.215  69.566  1.00  0.00    -0.262 OA 
HETATM   23  O   UNL     4     -10.403  12.433  68.820  1.00  0.00    -0.204 OA 
ENDBRANCH   8  20
ENDBRANCH   7   8
TORSDOF 7
ENDMDL
MODEL       31
REMARK 921   NORMALIZED FREE ENERGY PREDICTED BY IDOCK:   -5.43 KCAL/MOL
REMARK 922        TOTAL FREE ENERGY PREDICTED BY IDOCK:   -9.09 KCAL/MOL
REMARK 923 INTER-LIGAND FREE ENERGY PREDICTED BY IDOCK:   -8.07 KCAL/MOL
REMARK 924 INTRA-LIGAND FREE ENERGY PREDICTED BY IDOCK:   -1.03 KCAL/MOL
REMARK 927      BINDING AFFINITY PREDICTED BY RF-SCORE:    0.00 PKD
ROOT
HETATM    1 NA   UNL     1     -13.089  16.068  64.079  1.00  0.00    -0.507 Na 
HETATM    2 NA   UNL     2     -14.140  11.588  63.837  1.00  0.00    -0.497 Na 
HETATM    3 CA   UNL     3     -13.650  16.112  69.542  1.00  0.00    -0.646 Ca 
HETATM    4  O   UNL     4     -11.857  14.491  64.508  1.00  0.00    -0.430 OA 
HETATM    5  C   UNL     4     -12.057  13.456  65.207  1.00  0.00    -0.413 C  
HETATM    6  O   UNL     4     -13.069  12.696  65.023  1.00  0.00    -0.808 OA 
HETATM    7  C   UNL     4     -11.101  13.025  66.336  1.00  0.00    -0.287 C  
ENDROOT
BRANCH   7   8
HETATM    8  N   UNL     4     -10.165  14.030  66.912  1.00  0.00    -0.257 NA 
BRANCH   8   9
HETATM    9  C   UNL     4     -10.686  15.324  67.364  1.00  0.00    -0.293 C  
BRANCH   9  10
HETATM   10  C   UNL     4      -9.832  16.124  68.349  1.00  0.00    -0.222 C  
BRANCH  10  11
HETATM   11  N   UNL     4      -9.275  17.378  67.783  1.00  0.00    -0.245 NA 
BRANCH  11  12
HETATM   12  C   UNL     4      -9.937  18.621  68.295  1.00  0.00    -0.384 C  
HETATM   13  O   UNL     4      -9.749  20.746  67.157  1.00  0.00    -0.462 OA 
HETATM   14  O   UNL     4     -10.545  18.900  66.020  1.00  0.00    -0.457 OA 
HETATM   15  C   UNL     4     -10.142  19.559  67.052  1.00  0.00    -0.397 C  
ENDBRANCH  11  12
BRANCH  11  16
HETATM   16  C   UNL     4      -7.794  17.447  68.062  1.00  0.00    -0.207 C  
HETATM   17  C   UNL     4      -7.089  16.975  66.756  1.00  0.00    -0.238 C  
HETATM   18  O   UNL     4      -6.436  15.898  66.855  1.00  0.00    -0.294 OA 
HETATM   19  O   UNL     4      -7.530  17.602  65.719  1.00  0.00    -0.512 OA 
ENDBRANCH  11  16
ENDBRANCH  10  11
ENDBRANCH   9  10
ENDBRANCH   8   9
BRANCH   8  20
HETATM   20  C   UNL     4      -9.484  13.381  68.107  1.00  0.00    -0.218 C  
HETATM   21  C   UNL     4      -8.008  12.878  67.860  1.00  0.00    -0.156 C  
HETATM   22  O   UNL     4      -7.236  13.006  68.857  1.00  0.00    -0.103 OA 
HETATM   23  O   UNL     4      -7.722  12.396  66.710  1.00  0.00    -0.036 OA 
ENDBRANCH   8  20
ENDBRANCH   7   8
TORSDOF 7
ENDMDL
MODEL       32
REMARK 921   NORMALIZED FREE ENERGY PREDICTED BY IDOCK:   -5.43 KCAL/MOL
REMARK 922        TOTAL FREE ENERGY PREDICTED BY IDOCK:   -9.09 KCAL/MOL
REMARK 923 INTER-LIGAND FREE ENERGY PREDICTED BY IDOCK:   -8.73 KCAL/MOL
REMARK 924 INTRA-LIGAND FREE ENERGY PREDICTED BY IDOCK:   -0.36 KCAL/MOL
REMARK 927      BINDING AFFINITY PREDICTED BY RF-SCORE:    0.00 PKD
ROOT
HETATM    1 NA   UNL     1      -8.998  12.619  65.744  1.00  0.00    -0.335 Na 
HETATM    2 NA   UNL     2     -10.354   8.533  67.385  1.00  0.00    -0.165 Na 
HETATM    3 CA   UNL     3     -14.167  14.457  65.482  1.00  0.00    -0.722 Ca 
HETATM    4  O   UNL     4      -9.554  12.190  67.666  1.00  0.00    -0.182 OA 
HETATM    5  C   UNL     4     -10.554  11.555  68.112  1.00  0.00    -0.196 C  
HETATM    6  O   UNL     4     -10.859  10.385  67.696  1.00  0.00    -0.264 OA 
HETATM    7  C   UNL     4     -11.487  12.139  69.191  1.00  0.00    -0.296 C  
ENDROOT
BRANCH   7   8
HETATM    8  N   UNL     4     -11.492  13.610  69.422  1.00  0.00    -0.283 NA 
BRANCH   8   9
HETATM    9  C   UNL     4     -11.602  14.519  68.277  1.00  0.00    -0.329 C  
BRANCH   9  10
HETATM   10  C   UNL     4     -10.404  15.422  67.975  1.00  0.00    -0.249 C  
BRANCH  10  11
HETATM   11  N   UNL     4     -10.515  16.162  66.693  1.00  0.00    -0.305 NA 
BRANCH  11  12
HETATM   12  C   UNL     4      -9.483  17.234  66.521  1.00  0.00    -0.269 C  
HETATM   13  O   UNL     4     -10.071  19.523  66.009  1.00  0.00    -0.422 OA 
HETATM   14  O   UNL     4     -10.967  18.496  67.872  1.00  0.00    -0.286 OA 
HETATM   15  C   UNL     4     -10.197  18.595  66.844  1.00  0.00    -0.385 C  
ENDBRANCH  11  12
BRANCH  11  16
HETATM   16  C   UNL     4     -10.431  15.195  65.540  1.00  0.00    -0.379 C  
HETATM   17  C   UNL     4     -11.484  15.677  64.498  1.00  0.00    -0.300 C  
HETATM   18  O   UNL     4     -12.446  14.883  64.296  1.00  0.00    -0.670 OA 
HETATM   19  O   UNL     4     -11.357  16.933  64.234  1.00  0.00    -1.202 OA 
ENDBRANCH  11  16
ENDBRANCH  10  11
ENDBRANCH   9  10
ENDBRANCH   8   9
BRANCH   8  20
HETATM   20  C   UNL     4     -12.656  13.918  70.351  1.00  0.00    -0.282 C  
HETATM   21  C   UNL     4     -12.410  15.078  71.393  1.00  0.00    -0.332 C  
HETATM   22  O   UNL     4     -13.429  15.789  71.638  1.00  0.00    -0.478 OA 
HETATM   23  O   UNL     4     -11.237  15.200  71.890  1.00  0.00    -0.397 OA 
ENDBRANCH   8  20
ENDBRANCH   7   8
TORSDOF 7
ENDMDL
MODEL       33
REMARK 921   NORMALIZED FREE ENERGY PREDICTED BY IDOCK:   -5.42 KCAL/MOL
REMARK 922        TOTAL FREE ENERGY PREDICTED BY IDOCK:   -9.08 KCAL/MOL
REMARK 923 INTER-LIGAND FREE ENERGY PREDICTED BY IDOCK:   -8.36 KCAL/MOL
REMARK 924 INTRA-LIGAND FREE ENERGY PREDICTED BY IDOCK:   -0.72 KCAL/MOL
REMARK 927      BINDING AFFINITY PREDICTED BY RF-SCORE:    0.00 PKD
ROOT
HETATM    1 NA   UNL     1     -11.189  20.042  65.626  1.00  0.00    -0.414 Na 
HETATM    2 NA   UNL     2     -11.136  20.852  70.162  1.00  0.00    -0.880 Na 
HETATM    3 CA   UNL     3      -5.704  20.068  65.352  1.00  0.00    -0.162 Ca 
HETATM    4  O   UNL     4     -10.820  18.685  67.113  1.00  0.00    -0.408 OA 
HETATM    5  C   UNL     4     -10.061  18.756  68.123  1.00  0.00    -0.379 C  
HETATM    6  O   UNL     4     -10.110  19.736  68.944  1.00  0.00    -0.455 OA 
HETATM    7  C   UNL     4      -9.016  17.671  68.449  1.00  0.00    -0.280 C  
ENDROOT
BRANCH   7   8
HETATM    8  N   UNL     4      -8.580  16.742  67.369  1.00  0.00    -0.191 NA 
BRANCH   8   9
HETATM    9  C   UNL     4      -9.589  16.087  66.531  1.00  0.00    -0.261 C  
BRANCH   9  10
HETATM   10  C   UNL     4     -10.507  15.065  67.202  1.00  0.00    -0.277 C  
BRANCH  10  11
HETATM   11  N   UNL     4     -10.903  13.939  66.319  1.00  0.00    -0.289 NA 
BRANCH  11  12
HETATM   12  C   UNL     4     -10.930  14.291  64.863  1.00  0.00    -0.404 C  
HETATM   13  O   UNL     4     -12.323  13.113  63.276  1.00  0.00    -0.712 OA 
HETATM   14  O   UNL     4     -13.276  14.085  65.141  1.00  0.00    -0.768 OA 
HETATM   15  C   UNL     4     -12.323  13.814  64.316  1.00  0.00    -0.337 C  
ENDBRANCH  11  12
BRANCH  11  16
HETATM   16  C   UNL     4      -9.973  12.772  66.536  1.00  0.00    -0.253 C  
HETATM   17  C   UNL     4     -10.681  11.845  67.568  1.00  0.00    -0.225 C  
HETATM   18  O   UNL     4     -10.094  11.731  68.682  1.00  0.00    -0.216 OA 
HETATM   19  O   UNL     4     -11.896  11.583  67.224  1.00  0.00    -0.609 OA 
ENDBRANCH  11  16
ENDBRANCH  10  11
ENDBRANCH   9  10
ENDBRANCH   8   9
BRANCH   8  20
HETATM   20  C   UNL     4      -7.667  17.528  66.439  1.00  0.00    -0.297 C  
HETATM   21  C   UNL     4      -6.120  17.375  66.712  1.00  0.00    -0.190 C  
HETATM   22  O   UNL     4      -5.400  17.384  65.671  1.00  0.00    -0.240 OA 
HETATM   23  O   UNL     4      -5.733  17.259  67.926  1.00  0.00    -0.113 OA 
ENDBRANCH   8  20
ENDBRANCH   7   8
TORSDOF 7
ENDMDL
MODEL       34
REMARK 921   NORMALIZED FREE ENERGY PREDICTED BY IDOCK:   -5.39 KCAL/MOL
REMARK 922        TOTAL FREE ENERGY PREDICTED BY IDOCK:   -9.04 KCAL/MOL
REMARK 923 INTER-LIGAND FREE ENERGY PREDICTED BY IDOCK:   -8.16 KCAL/MOL
REMARK 924 INTRA-LIGAND FREE ENERGY PREDICTED BY IDOCK:   -0.88 KCAL/MOL
REMARK 927      BINDING AFFINITY PREDICTED BY RF-SCORE:    0.00 PKD
ROOT
HETATM    1 NA   UNL     1     -11.716  19.581  67.373  1.00  0.00    -0.447 Na 
HETATM    2 NA   UNL     2      -7.633  20.971  65.751  1.00  0.00    -0.462 Na 
HETATM    3 CA   UNL     3     -12.378  16.029  63.236  1.00  0.00    -0.868 Ca 
HETATM    4  O   UNL     4      -9.928  18.602  67.544  1.00  0.00    -0.312 OA 
HETATM    5  C   UNL     4      -9.039  18.351  66.679  1.00  0.00    -0.297 C  
HETATM    6  O   UNL     4      -8.541  19.260  65.931  1.00  0.00    -0.445 OA 
HETATM    7  C   UNL     4      -8.486  16.930  66.453  1.00  0.00    -0.290 C  
ENDROOT
BRANCH   7   8
HETATM    8  N   UNL     4      -9.274  15.763  66.937  1.00  0.00    -0.217 NA 
BRANCH   8   9
HETATM    9  C   UNL     4      -9.463  15.569  68.378  1.00  0.00    -0.196 C  
BRANCH   9  10
HETATM   10  C   UNL     4      -9.798  14.156  68.861  1.00  0.00    -0.105 C  
BRANCH  10  11
HETATM   11  N   UNL     4     -11.136  14.037  69.493  1.00  0.00    -0.199 NA 
BRANCH  11  12
HETATM   12  C   UNL     4     -11.905  15.322  69.534  1.00  0.00    -0.345 C  
HETATM   13  O   UNL     4     -13.836  15.626  70.957  1.00  0.00    -0.567 OA 
HETATM   14  O   UNL     4     -11.821  14.975  71.879  1.00  0.00    -0.357 OA 
HETATM   15  C   UNL     4     -12.607  15.375  70.938  1.00  0.00    -0.438 C  
ENDBRANCH  11  12
BRANCH  11  16
HETATM   16  C   UNL     4     -11.947  12.990  68.771  1.00  0.00    -0.266 C  
HETATM   17  C   UNL     4     -11.816  11.688  69.616  1.00  0.00    -0.352 C  
HETATM   18  O   UNL     4     -11.213  10.734  69.046  1.00  0.00    -0.223 OA 
HETATM   19  O   UNL     4     -12.082  11.894  70.861  1.00  0.00    -0.321 OA 
ENDBRANCH  11  16
ENDBRANCH  10  11
ENDBRANCH   9  10
ENDBRANCH   8   9
BRANCH   8  20
HETATM   20  C   UNL     4     -10.658  15.863  66.313  1.00  0.00    -0.298 C  
HETATM   21  C   UNL     4     -11.103  14.626  65.439  1.00  0.00    -0.348 C  
HETATM   22  O   UNL     4     -12.336  14.348  65.512  1.00  0.00    -0.392 OA 
HETATM   23  O   UNL     4     -10.209  14.027  64.748  1.00  0.00    -0.416 OA 
ENDBRANCH   8  20
ENDBRANCH   7   8
TORSDOF 7
ENDMDL
MODEL       35
REMARK 921   NORMALIZED FREE ENERGY PREDICTED BY IDOCK:   -5.38 KCAL/MOL
REMARK 922        TOTAL FREE ENERGY PREDICTED BY IDOCK:   -9.03 KCAL/MOL
REMARK 923 INTER-LIGAND FREE ENERGY PREDICTED BY IDOCK:   -7.95 KCAL/MOL
REMARK 924 INTRA-LIGAND FREE ENERGY PREDICTED BY IDOCK:   -1.08 KCAL/MOL
REMARK 927      BINDING AFFINITY PREDICTED BY RF-SCORE:    0.00 PKD
ROOT
HETATM    1 NA   UNL     1     -13.278  10.515  69.081  1.00  0.00    -0.499 Na 
HETATM    2 NA   UNL     2      -8.780   9.584  69.445  1.00  0.00    -0.114 Na 
HETATM    3 CA   UNL     3     -12.548  15.696  70.750  1.00  0.00    -0.295 Ca 
HETATM    4  O   UNL     4     -11.804  11.038  67.761  1.00  0.00    -0.605 OA 
HETATM    5  C   UNL     4     -10.670  11.564  67.959  1.00  0.00    -0.202 C  
HETATM    6  O   UNL     4      -9.834  11.086  68.799  1.00  0.00    -0.191 OA 
HETATM    7  C   UNL     4     -10.204  12.825  67.205  1.00  0.00    -0.233 C  
ENDROOT
BRANCH   7   8
HETATM    8  N   UNL     4     -11.222  13.694  66.551  1.00  0.00    -0.305 NA 
BRANCH   8   9
HETATM    9  C   UNL     4     -11.236  15.131  66.842  1.00  0.00    -0.292 C  
BRANCH   9  10
HETATM   10  C   UNL     4     -10.088  15.974  66.286  1.00  0.00    -0.313 C  
BRANCH  10  11
HETATM   11  N   UNL     4      -9.610  17.030  67.214  1.00  0.00    -0.240 NA 
BRANCH  11  12
HETATM   12  C   UNL     4     -10.358  18.322  67.100  1.00  0.00    -0.384 C  
HETATM   13  O   UNL     4      -9.279  20.468  67.379  1.00  0.00    -0.376 OA 
HETATM   14  O   UNL     4      -8.480  18.975  65.809  1.00  0.00    -0.428 OA 
HETATM   15  C   UNL     4      -9.302  19.413  66.700  1.00  0.00    -0.349 C  
ENDBRANCH  11  12
BRANCH  11  16
HETATM   16  C   UNL     4      -9.688  16.529  68.635  1.00  0.00    -0.247 C  
HETATM   17  C   UNL     4      -8.229  16.169  69.044  1.00  0.00    -0.244 C  
HETATM   18  O   UNL     4      -8.020  14.943  69.272  1.00  0.00    -0.176 OA 
HETATM   19  O   UNL     4      -7.409  17.133  68.795  1.00  0.00    -0.221 OA 
ENDBRANCH  11  16
ENDBRANCH  10  11
ENDBRANCH   9  10
ENDBRANCH   8   9
BRANCH   8  20
HETATM   20  C   UNL     4     -11.047  13.543  65.048  1.00  0.00    -0.328 C  
HETATM   21  C   UNL     4     -12.369  13.265  64.231  1.00  0.00    -0.340 C  
HETATM   22  O   UNL     4     -12.403  13.807  63.087  1.00  0.00    -0.726 OA 
HETATM   23  O   UNL     4     -13.269  12.537  64.776  1.00  0.00    -0.839 OA 
ENDBRANCH   8  20
ENDBRANCH   7   8
TORSDOF 7
ENDMDL
MODEL       36
REMARK 921   NORMALIZED FREE ENERGY PREDICTED BY IDOCK:   -5.36 KCAL/MOL
REMARK 922        TOTAL FREE ENERGY PREDICTED BY IDOCK:   -9.00 KCAL/MOL
REMARK 923 INTER-LIGAND FREE ENERGY PREDICTED BY IDOCK:   -8.26 KCAL/MOL
REMARK 924 INTRA-LIGAND FREE ENERGY PREDICTED BY IDOCK:   -0.74 KCAL/MOL
REMARK 927      BINDING AFFINITY PREDICTED BY RF-SCORE:    0.00 PKD
ROOT
HETATM    1 NA   UNL     1     -13.774  16.018  69.829  1.00  0.00    -0.723 Na 
HETATM    2 NA   UNL     2     -13.664  15.847  74.433  1.00  0.00    -0.719 Na 
HETATM    3 CA   UNL     3      -8.663  14.046  69.432  1.00  0.00    -0.313 Ca 
HETATM    4  O   UNL     4     -14.013  14.359  71.004  1.00  0.00    -0.240 OA 
HETATM    5  C   UNL     4     -13.337  13.943  71.989  1.00  0.00    -0.435 C  
HETATM    6  O   UNL     4     -13.062  14.689  72.991  1.00  0.00    -0.476 OA 
HETATM    7  C   UNL     4     -12.787  12.504  72.064  1.00  0.00    -0.154 C  
ENDROOT
BRANCH   7   8
HETATM    8  N   UNL     4     -12.669  11.710  70.809  1.00  0.00    -0.250 NA 
BRANCH   8   9
HETATM    9  C   UNL     4     -11.991  12.295  69.648  1.00  0.00    -0.279 C  
BRANCH   9  10
HETATM   10  C   UNL     4     -12.000  11.490  68.347  1.00  0.00    -0.198 C  
BRANCH  10  11
HETATM   11  N   UNL     4     -11.511  12.246  67.167  1.00  0.00    -0.333 NA 
BRANCH  11  12
HETATM   12  C   UNL     4     -12.076  13.629  67.057  1.00  0.00    -0.380 C  
HETATM   13  O   UNL     4     -12.197  14.811  64.950  1.00  0.00    -0.375 OA 
HETATM   14  O   UNL     4     -13.176  12.730  65.159  1.00  0.00    -0.686 OA 
HETATM   15  C   UNL     4     -12.573  13.790  65.576  1.00  0.00    -0.512 C  
ENDBRANCH  11  12
BRANCH  11  16
HETATM   16  C   UNL     4     -10.005  12.320  67.199  1.00  0.00    -0.205 C  
HETATM   17  C   UNL     4      -9.499  11.148  66.307  1.00  0.00    -0.196 C  
HETATM   18  O   UNL     4      -8.856  10.246  66.916  1.00  0.00    -0.132 OA 
HETATM   19  O   UNL     4     -10.072  11.142  65.152  1.00  0.00    -0.248 OA 
ENDBRANCH  11  16
ENDBRANCH  10  11
ENDBRANCH   9  10
ENDBRANCH   8   9
BRANCH   8  20
HETATM   20  C   UNL     4     -11.934  10.425  71.156  1.00  0.00    -0.362 C  
HETATM   21  C   UNL     4     -12.849   9.203  71.557  1.00  0.00    -0.347 C  
HETATM   22  O   UNL     4     -12.418   8.075  71.172  1.00  0.00    -0.284 OA 
HETATM   23  O   UNL     4     -13.918   9.444  72.217  1.00  0.00    -0.412 OA 
ENDBRANCH   8  20
ENDBRANCH   7   8
TORSDOF 7
ENDMDL
MODEL       37
REMARK 921   NORMALIZED FREE ENERGY PREDICTED BY IDOCK:   -5.36 KCAL/MOL
REMARK 922        TOTAL FREE ENERGY PREDICTED BY IDOCK:   -9.00 KCAL/MOL
REMARK 923 INTER-LIGAND FREE ENERGY PREDICTED BY IDOCK:   -8.07 KCAL/MOL
REMARK 924 INTRA-LIGAND FREE ENERGY PREDICTED BY IDOCK:   -0.92 KCAL/MOL
REMARK 927      BINDING AFFINITY PREDICTED BY RF-SCORE:    0.00 PKD
ROOT
HETATM    1 NA   UNL     1     -10.807  12.860  69.615  1.00  0.00    -0.316 Na 
HETATM    2 NA   UNL     2     -12.413  16.354  72.155  1.00  0.00    -0.391 Na 
HETATM    3 CA   UNL     3     -14.049  14.180  65.383  1.00  0.00    -0.781 Ca 
HETATM    4  O   UNL     4     -10.288  14.834  69.459  1.00  0.00    -0.196 OA 
HETATM    5  C   UNL     4     -11.008  15.874  69.417  1.00  0.00    -0.309 C  
HETATM    6  O   UNL     4     -11.908  16.115  70.292  1.00  0.00    -0.292 OA 
HETATM    7  C   UNL     4     -10.860  16.934  68.307  1.00  0.00    -0.357 C  
ENDROOT
BRANCH   7   8
HETATM    8  N   UNL     4     -10.177  16.561  67.038  1.00  0.00    -0.283 NA 
BRANCH   8   9
HETATM    9  C   UNL     4      -8.795  16.073  67.080  1.00  0.00    -0.211 C  
BRANCH   9  10
HETATM   10  C   UNL     4      -7.759  16.816  66.235  1.00  0.00    -0.275 C  
BRANCH  10  11
HETATM   11  N   UNL     4      -7.229  18.046  66.876  1.00  0.00    -0.191 NA 
BRANCH  11  12
HETATM   12  C   UNL     4      -7.050  17.928  68.359  1.00  0.00    -0.245 C  
HETATM   13  O   UNL     4      -6.765  19.862  69.783  1.00  0.00    -0.348 OA 
HETATM   14  O   UNL     4      -8.616  19.708  68.411  1.00  0.00    -0.343 OA 
HETATM   15  C   UNL     4      -7.535  19.288  68.975  1.00  0.00    -0.336 C  
ENDBRANCH  11  12
BRANCH  11  16
HETATM   16  C   UNL     4      -5.915  18.424  66.240  1.00  0.00    -0.169 C  
HETATM   17  C   UNL     4      -6.266  19.390  65.071  1.00  0.00    -0.279 C  
HETATM   18  O   UNL     4      -6.000  18.956  63.914  1.00  0.00    -0.405 OA 
HETATM   19  O   UNL     4      -7.040  20.348  65.455  1.00  0.00    -0.276 OA 
ENDBRANCH  11  16
ENDBRANCH  10  11
ENDBRANCH   9  10
ENDBRANCH   8   9
BRANCH   8  20
HETATM   20  C   UNL     4     -11.014  15.477  66.376  1.00  0.00    -0.238 C  
HETATM   21  C   UNL     4     -11.129  15.567  64.805  1.00  0.00    -0.407 C  
HETATM   22  O   UNL     4     -11.163  14.446  64.216  1.00  0.00    -0.262 OA 
HETATM   23  O   UNL     4     -11.178  16.729  64.272  1.00  0.00    -1.163 OA 
ENDBRANCH   8  20
ENDBRANCH   7   8
TORSDOF 7
ENDMDL
MODEL       38
REMARK 921   NORMALIZED FREE ENERGY PREDICTED BY IDOCK:   -5.34 KCAL/MOL
REMARK 922        TOTAL FREE ENERGY PREDICTED BY IDOCK:   -8.97 KCAL/MOL
REMARK 923 INTER-LIGAND FREE ENERGY PREDICTED BY IDOCK:   -7.54 KCAL/MOL
REMARK 924 INTRA-LIGAND FREE ENERGY PREDICTED BY IDOCK:   -1.43 KCAL/MOL
REMARK 927      BINDING AFFINITY PREDICTED BY RF-SCORE:    0.00 PKD
ROOT
HETATM    1 NA   UNL     1      -8.229  15.914  68.099  1.00  0.00    -0.136 Na 
HETATM    2 NA   UNL     2      -9.549  19.592  65.658  1.00  0.00    -0.333 Na 
HETATM    3 CA   UNL     3     -13.395  14.801  69.596  1.00  0.00    -0.563 Ca 
HETATM    4  O   UNL     4      -9.076  15.913  66.236  1.00  0.00    -0.285 OA 
HETATM    5  C   UNL     4     -10.089  16.527  65.791  1.00  0.00    -0.303 C  
HETATM    6  O   UNL     4     -10.232  17.791  65.924  1.00  0.00    -0.523 OA 
HETATM    7  C   UNL     4     -11.234  15.804  65.054  1.00  0.00    -0.308 C  
ENDROOT
BRANCH   7   8
HETATM    8  N   UNL     4     -11.384  14.332  65.222  1.00  0.00    -0.323 NA 
BRANCH   8   9
HETATM    9  C   UNL     4     -11.859  13.798  66.502  1.00  0.00    -0.407 C  
BRANCH   9  10
HETATM   10  C   UNL     4     -11.627  12.310  66.775  1.00  0.00    -0.369 C  
BRANCH  10  11
HETATM   11  N   UNL     4     -11.162  12.016  68.154  1.00  0.00    -0.240 NA 
BRANCH  11  12
HETATM   12  C   UNL     4     -12.021  11.031  68.886  1.00  0.00    -0.262 C  
HETATM   13  O   UNL     4     -11.856  10.698  71.276  1.00  0.00    -0.302 OA 
HETATM   14  O   UNL     4     -12.261  12.810  70.435  1.00  0.00    -0.350 OA 
HETATM   15  C   UNL     4     -12.106  11.532  70.372  1.00  0.00    -0.382 C  
ENDBRANCH  11  12
BRANCH  11  16
HETATM   16  C   UNL     4      -9.742  11.511  68.115  1.00  0.00    -0.192 C  
HETATM   17  C   UNL     4      -8.843  12.771  67.941  1.00  0.00    -0.186 C  
HETATM   18  O   UNL     4      -8.204  12.832  66.852  1.00  0.00    -0.135 OA 
HETATM   19  O   UNL     4      -9.127  13.686  68.803  1.00  0.00    -0.087 OA 
ENDBRANCH  11  16
ENDBRANCH  10  11
ENDBRANCH   9  10
ENDBRANCH   8   9
BRANCH   8  20
HETATM   20  C   UNL     4     -12.351  13.851  64.151  1.00  0.00    -0.335 C  
HETATM   21  C   UNL     4     -11.961  12.498  63.437  1.00  0.00    -0.514 C  
HETATM   22  O   UNL     4     -12.946  11.763  63.131  1.00  0.00    -0.576 OA 
HETATM   23  O   UNL     4     -10.720  12.264  63.232  1.00  0.00    -0.427 OA 
ENDBRANCH   8  20
ENDBRANCH   7   8
TORSDOF 7
ENDMDL
MODEL       39
REMARK 921   NORMALIZED FREE ENERGY PREDICTED BY IDOCK:   -5.34 KCAL/MOL
REMARK 922        TOTAL FREE ENERGY PREDICTED BY IDOCK:   -8.96 KCAL/MOL
REMARK 923 INTER-LIGAND FREE ENERGY PREDICTED BY IDOCK:   -8.56 KCAL/MOL
REMARK 924 INTRA-LIGAND FREE ENERGY PREDICTED BY IDOCK:   -0.40 KCAL/MOL
REMARK 927      BINDING AFFINITY PREDICTED BY RF-SCORE:    0.00 PKD
ROOT
HETATM    1 NA   UNL     1     -11.869  15.722  63.643  1.00  0.00    -0.707 Na 
HETATM    2 NA   UNL     2     -14.128  11.719  63.325  1.00  0.00    -0.396 Na 
HETATM    3 CA   UNL     3     -13.140  16.250  68.960  1.00  0.00    -0.478 Ca 
HETATM    4  O   UNL     4     -11.217  13.889  64.279  1.00  0.00    -0.354 OA 
HETATM    5  C   UNL     4     -11.803  12.996  64.958  1.00  0.00    -0.362 C  
HETATM    6  O   UNL     4     -12.956  12.546  64.639  1.00  0.00    -0.803 OA 
HETATM    7  C   UNL     4     -11.178  12.380  66.225  1.00  0.00    -0.317 C  
ENDROOT
BRANCH   7   8
HETATM    8  N   UNL     4     -10.079  13.111  66.917  1.00  0.00    -0.241 NA 
BRANCH   8   9
HETATM    9  C   UNL     4     -10.102  14.577  66.955  1.00  0.00    -0.257 C  
BRANCH   9  10
HETATM   10  C   UNL     4      -8.880  15.315  66.404  1.00  0.00    -0.276 C  
BRANCH  10  11
HETATM   11  N   UNL     4      -8.884  16.774  66.678  1.00  0.00    -0.236 NA 
BRANCH  11  12
HETATM   12  C   UNL     4     -10.089  17.247  67.431  1.00  0.00    -0.307 C  
HETATM   13  O   UNL     4     -10.872  19.532  67.312  1.00  0.00    -0.493 OA 
HETATM   14  O   UNL     4     -10.618  18.301  65.374  1.00  0.00    -0.612 OA 
HETATM   15  C   UNL     4     -10.642  18.491  66.649  1.00  0.00    -0.342 C  
ENDBRANCH  11  12
BRANCH  11  16
HETATM   16  C   UNL     4      -7.637  17.150  67.439  1.00  0.00    -0.167 C  
HETATM   17  C   UNL     4      -6.599  17.597  66.368  1.00  0.00    -0.243 C  
HETATM   18  O   UNL     4      -5.576  16.860  66.267  1.00  0.00    -0.336 OA 
HETATM   19  O   UNL     4      -7.090  18.472  65.558  1.00  0.00    -0.499 OA 
ENDBRANCH  11  16
ENDBRANCH  10  11
ENDBRANCH   9  10
ENDBRANCH   8   9
BRANCH   8  20
HETATM   20  C   UNL     4     -10.052  12.627  68.358  1.00  0.00    -0.222 C  
HETATM   21  C   UNL     4     -11.377  12.863  69.183  1.00  0.00    -0.273 C  
HETATM   22  O   UNL     4     -11.649  11.946  70.013  1.00  0.00    -0.291 OA 
HETATM   23  O   UNL     4     -12.045  13.930  68.953  1.00  0.00    -0.351 OA 
ENDBRANCH   8  20
ENDBRANCH   7   8
TORSDOF 7
ENDMDL
MODEL       40
REMARK 921   NORMALIZED FREE ENERGY PREDICTED BY IDOCK:   -5.30 KCAL/MOL
REMARK 922        TOTAL FREE ENERGY PREDICTED BY IDOCK:   -8.91 KCAL/MOL
REMARK 923 INTER-LIGAND FREE ENERGY PREDICTED BY IDOCK:   -7.72 KCAL/MOL
REMARK 924 INTRA-LIGAND FREE ENERGY PREDICTED BY IDOCK:   -1.19 KCAL/MOL
REMARK 927      BINDING AFFINITY PREDICTED BY RF-SCORE:    0.00 PKD
ROOT
HETATM    1 NA   UNL     1     -10.757  16.238  63.918  1.00  0.00    -0.555 Na 
HETATM    2 NA   UNL     2      -7.198  18.983  64.937  1.00  0.00    -0.218 Na 
HETATM    3 CA   UNL     3      -7.804  11.710  64.889  1.00  0.00    -0.330 Ca 
HETATM    4  O   UNL     4     -10.079  16.730  65.785  1.00  0.00    -0.478 OA 
HETATM    5  C   UNL     4      -8.907  16.739  66.260  1.00  0.00    -0.299 C  
HETATM    6  O   UNL     4      -7.942  17.347  65.682  1.00  0.00    -0.477 OA 
HETATM    7  C   UNL     4      -8.543  16.018  67.573  1.00  0.00    -0.178 C  
ENDROOT
BRANCH   7   8
HETATM    8  N   UNL     4      -9.447  14.949  68.084  1.00  0.00    -0.197 NA 
BRANCH   8   9
HETATM    9  C   UNL     4      -8.963  13.567  68.147  1.00  0.00    -0.187 C  
BRANCH   9  10
HETATM   10  C   UNL     4      -9.044  12.732  66.867  1.00  0.00    -0.221 C  
BRANCH  10  11
HETATM   11  N   UNL     4     -10.397  12.695  66.257  1.00  0.00    -0.248 NA 
BRANCH  11  12
HETATM   12  C   UNL     4     -10.489  13.407  64.943  1.00  0.00    -0.390 C  
HETATM   13  O   UNL     4     -12.539  13.496  63.663  1.00  0.00    -0.722 OA 
HETATM   14  O   UNL     4     -12.516  14.238  65.849  1.00  0.00    -0.437 OA 
HETATM   15  C   UNL     4     -11.998  13.799  64.754  1.00  0.00    -0.404 C  
ENDBRANCH  11  12
BRANCH  11  16
HETATM   16  C   UNL     4     -10.836  11.262  66.083  1.00  0.00    -0.222 C  
HETATM   17  C   UNL     4     -11.389  10.812  67.467  1.00  0.00    -0.205 C  
HETATM   18  O   UNL     4     -10.730   9.897  68.039  1.00  0.00    -0.224 OA 
HETATM   19  O   UNL     4     -12.252  11.647  67.934  1.00  0.00    -0.560 OA 
ENDBRANCH  11  16
ENDBRANCH  10  11
ENDBRANCH   9  10
ENDBRANCH   8   9
BRANCH   8  20
HETATM   20  C   UNL     4      -9.861  15.343  69.493  1.00  0.00    -0.260 C  
HETATM   21  C   UNL     4     -11.417  15.439  69.745  1.00  0.00    -0.324 C  
HETATM   22  O   UNL     4     -11.785  15.068  70.899  1.00  0.00    -0.288 OA 
HETATM   23  O   UNL     4     -12.154  15.870  68.793  1.00  0.00    -0.297 OA 
ENDBRANCH   8  20
ENDBRANCH   7   8
TORSDOF 7
ENDMDL
MODEL       41
REMARK 921   NORMALIZED FREE ENERGY PREDICTED BY IDOCK:   -5.30 KCAL/MOL
REMARK 922        TOTAL FREE ENERGY PREDICTED BY IDOCK:   -8.91 KCAL/MOL
REMARK 923 INTER-LIGAND FREE ENERGY PREDICTED BY IDOCK:   -8.39 KCAL/MOL
REMARK 924 INTRA-LIGAND FREE ENERGY PREDICTED BY IDOCK:   -0.52 KCAL/MOL
REMARK 927      BINDING AFFINITY PREDICTED BY RF-SCORE:    0.00 PKD
ROOT
HETATM    1 NA   UNL     1      -9.757   9.289  66.819  1.00  0.00    -0.136 Na 
HETATM    2 NA   UNL     2     -13.023  10.196  69.941  1.00  0.00    -0.472 Na 
HETATM    3 CA   UNL     3     -13.005  10.843  62.672  1.00  0.00    -0.811 Ca 
HETATM    4  O   UNL     4     -10.289  11.128  67.543  1.00  0.00    -0.184 OA 
HETATM    5  C   UNL     4     -11.429  11.654  67.697  1.00  0.00    -0.303 C  
HETATM    6  O   UNL     4     -12.372  11.064  68.327  1.00  0.00    -0.479 OA 
HETATM    7  C   UNL     4     -11.777  13.048  67.137  1.00  0.00    -0.382 C  
ENDROOT
BRANCH   7   8
HETATM    8  N   UNL     4     -10.935  13.619  66.049  1.00  0.00    -0.286 NA 
BRANCH   8   9
HETATM    9  C   UNL     4      -9.810  14.494  66.393  1.00  0.00    -0.290 C  
BRANCH   9  10
HETATM   10  C   UNL     4      -9.967  15.396  67.618  1.00  0.00    -0.225 C  
BRANCH  10  11
HETATM   11  N   UNL     4      -9.518  16.794  67.399  1.00  0.00    -0.234 NA 
BRANCH  11  12
HETATM   12  C   UNL     4     -10.454  17.825  67.952  1.00  0.00    -0.397 C  
HETATM   13  O   UNL     4     -10.467  20.112  67.167  1.00  0.00    -0.400 OA 
HETATM   14  O   UNL     4     -10.752  18.380  65.666  1.00  0.00    -0.548 OA 
HETATM   15  C   UNL     4     -10.629  18.913  66.834  1.00  0.00    -0.421 C  
ENDBRANCH  11  12
BRANCH  11  16
HETATM   16  C   UNL     4      -8.148  16.988  67.998  1.00  0.00    -0.204 C  
HETATM   17  C   UNL     4      -7.151  16.980  66.801  1.00  0.00    -0.238 C  
HETATM   18  O   UNL     4      -6.336  16.014  66.785  1.00  0.00    -0.278 OA 
HETATM   19  O   UNL     4      -7.515  17.793  65.869  1.00  0.00    -0.463 OA 
ENDBRANCH  11  16
ENDBRANCH  10  11
ENDBRANCH   9  10
ENDBRANCH   8   9
BRANCH   8  20
HETATM   20  C   UNL     4     -10.368  12.452  65.256  1.00  0.00    -0.282 C  
HETATM   21  C   UNL     4     -10.708  12.445  63.715  1.00  0.00    -0.451 C  
HETATM   22  O   UNL     4      -9.782  11.999  62.975  1.00  0.00    -0.383 OA 
HETATM   23  O   UNL     4     -11.856  12.877  63.351  1.00  0.00    -0.525 OA 
ENDBRANCH   8  20
ENDBRANCH   7   8
TORSDOF 7
ENDMDL
MODEL       42
REMARK 921   NORMALIZED FREE ENERGY PREDICTED BY IDOCK:   -5.30 KCAL/MOL
REMARK 922        TOTAL FREE ENERGY PREDICTED BY IDOCK:   -8.91 KCAL/MOL
REMARK 923 INTER-LIGAND FREE ENERGY PREDICTED BY IDOCK:   -7.53 KCAL/MOL
REMARK 924 INTRA-LIGAND FREE ENERGY PREDICTED BY IDOCK:   -1.38 KCAL/MOL
REMARK 927      BINDING AFFINITY PREDICTED BY RF-SCORE:    0.00 PKD
ROOT
HETATM    1 NA   UNL     1     -11.644  19.589  67.045  1.00  0.00    -0.423 Na 
HETATM    2 NA   UNL     2      -7.103  18.839  67.284  1.00  0.00    -0.192 Na 
HETATM    3 CA   UNL     3     -12.320  15.563  63.371  1.00  0.00    -0.812 Ca 
HETATM    4  O   UNL     4     -10.697  18.096  68.076  1.00  0.00    -0.374 OA 
HETATM    5  C   UNL     4      -9.778  17.303  67.719  1.00  0.00    -0.270 C  
HETATM    6  O   UNL     4      -8.688  17.716  67.193  1.00  0.00    -0.233 OA 
HETATM    7  C   UNL     4      -9.896  15.775  67.886  1.00  0.00    -0.217 C  
ENDROOT
BRANCH   7   8
HETATM    8  N   UNL     4     -11.245  15.171  68.071  1.00  0.00    -0.311 NA 
BRANCH   8   9
HETATM    9  C   UNL     4     -11.875  14.460  66.954  1.00  0.00    -0.410 C  
BRANCH   9  10
HETATM   10  C   UNL     4     -11.961  12.936  67.047  1.00  0.00    -0.325 C  
BRANCH  10  11
HETATM   11  N   UNL     4     -11.079  12.222  66.089  1.00  0.00    -0.297 NA 
BRANCH  11  12
HETATM   12  C   UNL     4     -10.301  11.099  66.703  1.00  0.00    -0.241 C  
HETATM   13  O   UNL     4      -8.033  10.586  66.039  1.00  0.00    -0.139 OA 
HETATM   14  O   UNL     4      -8.562  12.710  66.773  1.00  0.00    -0.183 OA 
HETATM   15  C   UNL     4      -8.783  11.464  66.530  1.00  0.00    -0.181 C  
ENDBRANCH  11  12
BRANCH  11  16
HETATM   16  C   UNL     4     -11.900  11.694  64.939  1.00  0.00     0.052 C  
HETATM   17  C   UNL     4     -11.544  12.586  63.713  1.00  0.00    -0.475 C  
HETATM   18  O   UNL     4     -12.493  13.291  63.266  1.00  0.00    -0.736 OA 
HETATM   19  O   UNL     4     -10.270  12.681  63.542  1.00  0.00    -0.387 OA 
ENDBRANCH  11  16
ENDBRANCH  10  11
ENDBRANCH   9  10
ENDBRANCH   8   9
BRANCH   8  20
HETATM   20  C   UNL     4     -11.145  14.188  69.227  1.00  0.00    -0.250 C  
HETATM   21  C   UNL     4     -12.256  14.328  70.340  1.00  0.00    -0.342 C  
HETATM   22  O   UNL     4     -12.629  13.231  70.851  1.00  0.00    -0.345 OA 
HETATM   23  O   UNL     4     -12.675  15.503  70.625  1.00  0.00    -0.439 OA 
ENDBRANCH   8  20
ENDBRANCH   7   8
TORSDOF 7
ENDMDL
MODEL       43
REMARK 921   NORMALIZED FREE ENERGY PREDICTED BY IDOCK:   -5.28 KCAL/MOL
REMARK 922        TOTAL FREE ENERGY PREDICTED BY IDOCK:   -8.89 KCAL/MOL
REMARK 923 INTER-LIGAND FREE ENERGY PREDICTED BY IDOCK:   -8.01 KCAL/MOL
REMARK 924 INTRA-LIGAND FREE ENERGY PREDICTED BY IDOCK:   -0.88 KCAL/MOL
REMARK 927      BINDING AFFINITY PREDICTED BY RF-SCORE:    0.00 PKD
ROOT
HETATM    1 NA   UNL     1      -9.589  13.196  63.736  1.00  0.00    -0.559 Na 
HETATM    2 NA   UNL     2     -13.969  11.764  63.658  1.00  0.00    -0.608 Na 
HETATM    3 CA   UNL     3     -11.083  18.353  64.896  1.00  0.00    -0.533 Ca 
HETATM    4  O   UNL     4     -10.780  12.795  65.351  1.00  0.00    -0.274 OA 
HETATM    5  C   UNL     4     -11.969  13.146  65.606  1.00  0.00    -0.415 C  
HETATM    6  O   UNL     4     -12.925  12.965  64.777  1.00  0.00    -0.743 OA 
HETATM    7  C   UNL     4     -12.362  13.822  66.934  1.00  0.00    -0.285 C  
ENDROOT
BRANCH   7   8
HETATM    8  N   UNL     4     -11.301  14.461  67.761  1.00  0.00    -0.296 NA 
BRANCH   8   9
HETATM    9  C   UNL     4     -10.519  15.567  67.201  1.00  0.00    -0.286 C  
BRANCH   9  10
HETATM   10  C   UNL     4      -9.929  16.582  68.182  1.00  0.00    -0.248 C  
BRANCH  10  11
HETATM   11  N   UNL     4      -8.687  17.237  67.698  1.00  0.00    -0.217 NA 
BRANCH  11  12
HETATM   12  C   UNL     4      -7.905  16.410  66.724  1.00  0.00    -0.266 C  
HETATM   13  O   UNL     4      -5.622  16.934  66.126  1.00  0.00    -0.291 OA 
HETATM   14  O   UNL     4      -6.187  16.628  68.343  1.00  0.00    -0.128 OA 
HETATM   15  C   UNL     4      -6.390  16.630  67.070  1.00  0.00    -0.187 C  
ENDBRANCH  11  12
BRANCH  11  16
HETATM   16  C   UNL     4      -9.026  18.565  67.069  1.00  0.00    -0.274 C  
HETATM   17  C   UNL     4      -9.116  19.584  68.243  1.00  0.00    -0.342 C  
HETATM   18  O   UNL     4     -10.263  20.079  68.441  1.00  0.00    -0.439 OA 
HETATM   19  O   UNL     4      -8.078  19.533  69.005  1.00  0.00    -0.348 OA 
ENDBRANCH  11  16
ENDBRANCH  10  11
ENDBRANCH   9  10
ENDBRANCH   8   9
BRANCH   8  20
HETATM   20  C   UNL     4     -11.965  14.979  69.027  1.00  0.00    -0.264 C  
HETATM   21  C   UNL     4     -11.919  14.007  70.270  1.00  0.00    -0.339 C  
HETATM   22  O   UNL     4     -11.792  14.589  71.388  1.00  0.00    -0.336 OA 
HETATM   23  O   UNL     4     -12.011  12.750  70.052  1.00  0.00    -0.332 OA 
ENDBRANCH   8  20
ENDBRANCH   7   8
TORSDOF 7
ENDMDL
MODEL       44
REMARK 921   NORMALIZED FREE ENERGY PREDICTED BY IDOCK:   -5.27 KCAL/MOL
REMARK 922        TOTAL FREE ENERGY PREDICTED BY IDOCK:   -8.87 KCAL/MOL
REMARK 923 INTER-LIGAND FREE ENERGY PREDICTED BY IDOCK:   -7.25 KCAL/MOL
REMARK 924 INTRA-LIGAND FREE ENERGY PREDICTED BY IDOCK:   -1.61 KCAL/MOL
REMARK 927      BINDING AFFINITY PREDICTED BY RF-SCORE:    0.00 PKD
ROOT
HETATM    1 NA   UNL     1      -8.309  10.267  67.465  1.00  0.00    -0.108 Na 
HETATM    2 NA   UNL     2     -10.432   7.165  70.132  1.00  0.00    -0.190 Na 
HETATM    3 CA   UNL     3     -13.029  11.741  65.075  1.00  0.00    -0.273 Ca 
HETATM    4  O   UNL     4      -9.389  10.640  69.163  1.00  0.00    -0.196 OA 
HETATM    5  C   UNL     4     -10.526  10.220  69.526  1.00  0.00    -0.244 C  
HETATM    6  O   UNL     4     -10.821   8.976  69.536  1.00  0.00    -0.229 OA 
HETATM    7  C   UNL     4     -11.650  11.171  69.982  1.00  0.00    -0.338 C  
ENDROOT
BRANCH   7   8
HETATM    8  N   UNL     4     -11.574  12.610  69.605  1.00  0.00    -0.277 NA 
BRANCH   8   9
HETATM    9  C   UNL     4     -11.866  13.010  68.225  1.00  0.00    -0.343 C  
BRANCH   9  10
HETATM   10  C   UNL     4     -10.702  13.533  67.381  1.00  0.00    -0.263 C  
BRANCH  10  11
HETATM   11  N   UNL     4     -10.782  13.160  65.947  1.00  0.00    -0.271 NA 
BRANCH  11  12
HETATM   12  C   UNL     4     -10.868  14.333  65.019  1.00  0.00    -0.403 C  
HETATM   13  O   UNL     4     -12.416  14.402  63.163  1.00  0.00    -0.482 OA 
HETATM   14  O   UNL     4     -13.203  14.035  65.302  1.00  0.00    -0.782 OA 
HETATM   15  C   UNL     4     -12.315  14.314  64.410  1.00  0.00    -0.391 C  
ENDBRANCH  11  12
BRANCH  11  16
HETATM   16  C   UNL     4      -9.592  12.312  65.575  1.00  0.00    -0.099 C  
HETATM   17  C   UNL     4     -10.169  11.040  64.886  1.00  0.00    -0.311 C  
HETATM   18  O   UNL     4      -9.975   9.956  65.506  1.00  0.00    -0.304 OA 
HETATM   19  O   UNL     4     -11.005  11.338  63.950  1.00  0.00    -0.386 OA 
ENDBRANCH  11  16
ENDBRANCH  10  11
ENDBRANCH   9  10
ENDBRANCH   8   9
BRANCH   8  20
HETATM   20  C   UNL     4     -12.543  13.364  70.503  1.00  0.00    -0.211 C  
HETATM   21  C   UNL     4     -12.232  14.898  70.708  1.00  0.00    -0.325 C  
HETATM   22  O   UNL     4     -13.258  15.634  70.801  1.00  0.00    -0.517 OA 
HETATM   23  O   UNL     4     -11.006  15.259  70.762  1.00  0.00    -0.313 OA 
ENDBRANCH   8  20
ENDBRANCH   7   8
TORSDOF 7
ENDMDL
MODEL       45
REMARK 921   NORMALIZED FREE ENERGY PREDICTED BY IDOCK:   -5.27 KCAL/MOL
REMARK 922        TOTAL FREE ENERGY PREDICTED BY IDOCK:   -8.86 KCAL/MOL
REMARK 923 INTER-LIGAND FREE ENERGY PREDICTED BY IDOCK:   -8.30 KCAL/MOL
REMARK 924 INTRA-LIGAND FREE ENERGY PREDICTED BY IDOCK:   -0.56 KCAL/MOL
REMARK 927      BINDING AFFINITY PREDICTED BY RF-SCORE:    0.00 PKD
ROOT
HETATM    1 NA   UNL     1      -7.372  13.036  66.598  1.00  0.00    -0.322 Na 
HETATM    2 NA   UNL     2      -7.858   8.529  67.428  1.00  0.00    -0.087 Na 
HETATM    3 CA   UNL     3     -10.964  12.865  62.447  1.00  0.00    -0.547 Ca 
HETATM    4  O   UNL     4      -8.915  12.128  67.589  1.00  0.00    -0.165 OA 
HETATM    5  C   UNL     4      -9.600  11.108  67.289  1.00  0.00    -0.165 C  
HETATM    6  O   UNL     4      -9.060   9.991  66.980  1.00  0.00    -0.141 OA 
HETATM    7  C   UNL     4     -11.142  11.126  67.270  1.00  0.00    -0.302 C  
ENDROOT
BRANCH   7   8
HETATM    8  N   UNL     4     -11.847  12.435  67.184  1.00  0.00    -0.534 NA 
BRANCH   8   9
HETATM    9  C   UNL     4     -11.687  13.412  68.266  1.00  0.00    -0.356 C  
BRANCH   9  10
HETATM   10  C   UNL     4     -11.896  14.887  67.920  1.00  0.00    -0.259 C  
BRANCH  10  11
HETATM   11  N   UNL     4     -11.213  15.826  68.845  1.00  0.00    -0.309 NA 
BRANCH  11  12
HETATM   12  C   UNL     4     -10.949  15.254  70.204  1.00  0.00    -0.291 C  
HETATM   13  O   UNL     4     -11.681  16.350  72.231  1.00  0.00    -0.508 OA 
HETATM   14  O   UNL     4     -13.216  15.835  70.585  1.00  0.00    -0.501 OA 
HETATM   15  C   UNL     4     -12.058  15.831  71.153  1.00  0.00    -0.427 C  
ENDBRANCH  11  12
BRANCH  11  16
HETATM   16  C   UNL     4      -9.913  16.285  68.233  1.00  0.00    -0.236 C  
HETATM   17  C   UNL     4     -10.286  17.425  67.240  1.00  0.00    -0.324 C  
HETATM   18  O   UNL     4     -10.062  17.173  66.021  1.00  0.00    -0.395 OA 
HETATM   19  O   UNL     4     -11.033  18.318  67.792  1.00  0.00    -0.321 OA 
ENDBRANCH  11  16
ENDBRANCH  10  11
ENDBRANCH   9  10
ENDBRANCH   8   9
BRANCH   8  20
HETATM   20  C   UNL     4     -11.391  13.111  65.900  1.00  0.00    -0.311 C  
HETATM   21  C   UNL     4     -12.480  13.220  64.762  1.00  0.00    -0.383 C  
HETATM   22  O   UNL     4     -12.413  14.280  64.072  1.00  0.00    -0.700 OA 
HETATM   23  O   UNL     4     -13.313  12.259  64.635  1.00  0.00    -0.717 OA 
ENDBRANCH   8  20
ENDBRANCH   7   8
TORSDOF 7
ENDMDL
MODEL       46
REMARK 921   NORMALIZED FREE ENERGY PREDICTED BY IDOCK:   -5.25 KCAL/MOL
REMARK 922        TOTAL FREE ENERGY PREDICTED BY IDOCK:   -8.84 KCAL/MOL
REMARK 923 INTER-LIGAND FREE ENERGY PREDICTED BY IDOCK:   -7.79 KCAL/MOL
REMARK 924 INTRA-LIGAND FREE ENERGY PREDICTED BY IDOCK:   -1.05 KCAL/MOL
REMARK 927      BINDING AFFINITY PREDICTED BY RF-SCORE:    0.00 PKD
ROOT
HETATM    1 NA   UNL     1     -11.659  10.200  67.784  1.00  0.00    -0.295 Na 
HETATM    2 NA   UNL     2     -13.967  11.771  64.117  1.00  0.00    -0.723 Na 
HETATM    3 CA   UNL     3      -6.900  12.184  65.893  1.00  0.00    -0.349 Ca 
HETATM    4  O   UNL     4     -12.264  12.125  67.445  1.00  0.00    -0.486 OA 
HETATM    5  C   UNL     4     -12.160  12.852  66.414  1.00  0.00    -0.329 C  
HETATM    6  O   UNL     4     -12.553  12.460  65.262  1.00  0.00    -0.636 OA 
HETATM    7  C   UNL     4     -11.552  14.268  66.460  1.00  0.00    -0.378 C  
ENDROOT
BRANCH   7   8
HETATM    8  N   UNL     4     -10.691  14.646  67.615  1.00  0.00    -0.267 NA 
BRANCH   8   9
HETATM    9  C   UNL     4      -9.371  15.234  67.367  1.00  0.00    -0.199 C  
BRANCH   9  10
HETATM   10  C   UNL     4      -9.294  16.407  66.388  1.00  0.00    -0.292 C  
BRANCH  10  11
HETATM   11  N   UNL     4      -8.396  17.503  66.831  1.00  0.00    -0.222 NA 
BRANCH  11  12
HETATM   12  C   UNL     4      -7.000  17.396  66.301  1.00  0.00    -0.284 C  
HETATM   13  O   UNL     4      -5.173  18.702  67.199  1.00  0.00    -0.130 OA 
HETATM   14  O   UNL     4      -6.425  17.360  68.602  1.00  0.00    -0.176 OA 
HETATM   15  C   UNL     4      -6.046  17.841  67.467  1.00  0.00    -0.154 C  
ENDBRANCH  11  12
BRANCH  11  16
HETATM   16  C   UNL     4      -8.984  18.833  66.431  1.00  0.00    -0.292 C  
HETATM   17  C   UNL     4      -9.881  19.282  67.622  1.00  0.00    -0.339 C  
HETATM   18  O   UNL     4     -11.118  19.352  67.370  1.00  0.00    -0.445 OA 
HETATM   19  O   UNL     4      -9.252  19.223  68.746  1.00  0.00    -0.365 OA 
ENDBRANCH  11  16
ENDBRANCH  10  11
ENDBRANCH   9  10
ENDBRANCH   8   9
BRANCH   8  20
HETATM   20  C   UNL     4     -11.474  15.643  68.456  1.00  0.00    -0.375 C  
HETATM   21  C   UNL     4     -11.943  15.123  69.870  1.00  0.00    -0.337 C  
HETATM   22  O   UNL     4     -11.931  16.001  70.783  1.00  0.00    -0.385 OA 
HETATM   23  O   UNL     4     -12.288  13.895  69.974  1.00  0.00    -0.330 OA 
ENDBRANCH   8  20
ENDBRANCH   7   8
TORSDOF 7
ENDMDL
MODEL       47
REMARK 921   NORMALIZED FREE ENERGY PREDICTED BY IDOCK:   -5.23 KCAL/MOL
REMARK 922        TOTAL FREE ENERGY PREDICTED BY IDOCK:   -8.81 KCAL/MOL
REMARK 923 INTER-LIGAND FREE ENERGY PREDICTED BY IDOCK:   -7.24 KCAL/MOL
REMARK 924 INTRA-LIGAND FREE ENERGY PREDICTED BY IDOCK:   -1.57 KCAL/MOL
REMARK 927      BINDING AFFINITY PREDICTED BY RF-SCORE:    0.00 PKD
ROOT
HETATM    1 NA   UNL     1     -11.405  10.699  64.128  1.00  0.00    -0.354 Na 
HETATM    2 NA   UNL     2     -11.663   7.567  67.499  1.00  0.00    -0.488 Na 
HETATM    3 CA   UNL     3     -12.815  14.774  67.529  1.00  0.00    -0.592 Ca 
HETATM    4  O   UNL     4     -10.016  10.349  65.589  1.00  0.00    -0.241 OA 
HETATM    5  C   UNL     4     -10.152  10.211  66.840  1.00  0.00    -0.223 C  
HETATM    6  O   UNL     4     -10.985   9.384  67.347  1.00  0.00    -0.210 OA 
HETATM    7  C   UNL     4      -9.327  11.027  67.854  1.00  0.00    -0.158 C  
ENDROOT
BRANCH   7   8
HETATM    8  N   UNL     4      -8.669  12.285  67.404  1.00  0.00    -0.171 NA 
BRANCH   8   9
HETATM    9  C   UNL     4      -9.462  13.514  67.297  1.00  0.00    -0.230 C  
BRANCH   9  10
HETATM   10  C   UNL     4      -9.917  13.940  65.901  1.00  0.00    -0.300 C  
BRANCH  10  11
HETATM   11  N   UNL     4     -10.703  15.200  65.881  1.00  0.00    -0.321 NA 
BRANCH  11  12
HETATM   12  C   UNL     4      -9.900  16.421  66.207  1.00  0.00    -0.314 C  
HETATM   13  O   UNL     4     -10.879  18.371  67.249  1.00  0.00    -0.389 OA 
HETATM   14  O   UNL     4     -11.073  16.306  68.264  1.00  0.00    -0.341 OA 
HETATM   15  C   UNL     4     -10.648  17.145  67.383  1.00  0.00    -0.297 C  
ENDBRANCH  11  12
BRANCH  11  16
HETATM   16  C   UNL     4     -11.352  15.372  64.531  1.00  0.00    -0.313 C  
HETATM   17  C   UNL     4     -12.351  14.186  64.380  1.00  0.00    -0.381 C  
HETATM   18  O   UNL     4     -12.076  13.363  63.461  1.00  0.00    -0.549 OA 
HETATM   19  O   UNL     4     -13.126  14.078  65.405  1.00  0.00    -0.763 OA 
ENDBRANCH  11  16
ENDBRANCH  10  11
ENDBRANCH   9  10
ENDBRANCH   8   9
BRANCH   8  20
HETATM   20  C   UNL     4      -7.530  12.570  68.370  1.00  0.00    -0.127 C  
HETATM   21  C   UNL     4      -6.107  12.755  67.712  1.00  0.00    -0.134 C  
HETATM   22  O   UNL     4      -5.373  13.615  68.282  1.00  0.00    -0.091 OA 
HETATM   23  O   UNL     4      -5.822  12.042  66.689  1.00  0.00    -0.253 OA 
ENDBRANCH   8  20
ENDBRANCH   7   8
TORSDOF 7
ENDMDL
MODEL       48
REMARK 921   NORMALIZED FREE ENERGY PREDICTED BY IDOCK:   -5.22 KCAL/MOL
REMARK 922        TOTAL FREE ENERGY PREDICTED BY IDOCK:   -8.79 KCAL/MOL
REMARK 923 INTER-LIGAND FREE ENERGY PREDICTED BY IDOCK:   -7.80 KCAL/MOL
REMARK 924 INTRA-LIGAND FREE ENERGY PREDICTED BY IDOCK:   -1.00 KCAL/MOL
REMARK 927      BINDING AFFINITY PREDICTED BY RF-SCORE:    0.00 PKD
ROOT
HETATM    1 NA   UNL     1      -9.875   8.096  65.190  1.00  0.00    -0.408 Na 
HETATM    2 NA   UNL     2      -5.899  10.017  66.511  1.00  0.00    -0.048 Na 
HETATM    3 CA   UNL     3     -12.422   9.733  69.772  1.00  0.00    -0.445 Ca 
HETATM    4  O   UNL     4      -9.379  10.080  65.103  1.00  0.00    -0.204 OA 
HETATM    5  C   UNL     4      -8.856  10.837  65.970  1.00  0.00    -0.180 C  
HETATM    6  O   UNL     4      -7.774  10.530  66.580  1.00  0.00    -0.119 OA 
HETATM    7  C   UNL     4      -9.478  12.191  66.367  1.00  0.00    -0.233 C  
ENDROOT
BRANCH   7   8
HETATM    8  N   UNL     4     -10.913  12.443  66.061  1.00  0.00    -0.278 NA 
BRANCH   8   9
HETATM    9  C   UNL     4     -11.807  12.907  67.127  1.00  0.00    -0.362 C  
BRANCH   9  10
HETATM   10  C   UNL     4     -12.122  14.403  67.181  1.00  0.00    -0.333 C  
BRANCH  10  11
HETATM   11  N   UNL     4     -11.399  15.133  68.252  1.00  0.00    -0.313 NA 
BRANCH  11  12
HETATM   12  C   UNL     4     -11.246  14.353  69.522  1.00  0.00    -0.254 C  
HETATM   13  O   UNL     4     -11.155  15.420  71.690  1.00  0.00    -0.363 OA 
HETATM   14  O   UNL     4     -12.954  15.806  70.294  1.00  0.00    -0.340 OA 
HETATM   15  C   UNL     4     -11.856  15.240  70.665  1.00  0.00    -0.335 C  
ENDBRANCH  11  12
BRANCH  11  16
HETATM   16  C   UNL     4     -10.038  15.549  67.753  1.00  0.00    -0.232 C  
HETATM   17  C   UNL     4     -10.237  16.936  67.072  1.00  0.00    -0.297 C  
HETATM   18  O   UNL     4     -10.025  16.960  65.826  1.00  0.00    -0.510 OA 
HETATM   19  O   UNL     4     -10.870  17.760  67.835  1.00  0.00    -0.365 OA 
ENDBRANCH  11  16
ENDBRANCH  10  11
ENDBRANCH   9  10
ENDBRANCH   8   9
BRANCH   8  20
HETATM   20  C   UNL     4     -10.963  13.482  64.951  1.00  0.00    -0.352 C  
HETATM   21  C   UNL     4     -12.170  13.346  63.943  1.00  0.00    -0.415 C  
HETATM   22  O   UNL     4     -12.632  14.449  63.525  1.00  0.00    -0.784 OA 
HETATM   23  O   UNL     4     -12.569  12.169  63.639  1.00  0.00    -0.623 OA 
ENDBRANCH   8  20
ENDBRANCH   7   8
TORSDOF 7
ENDMDL
MODEL       49
REMARK 921   NORMALIZED FREE ENERGY PREDICTED BY IDOCK:   -5.21 KCAL/MOL
REMARK 922        TOTAL FREE ENERGY PREDICTED BY IDOCK:   -8.79 KCAL/MOL
REMARK 923 INTER-LIGAND FREE ENERGY PREDICTED BY IDOCK:   -7.59 KCAL/MOL
REMARK 924 INTRA-LIGAND FREE ENERGY PREDICTED BY IDOCK:   -1.20 KCAL/MOL
REMARK 927      BINDING AFFINITY PREDICTED BY RF-SCORE:    0.00 PKD
ROOT
HETATM    1 NA   UNL     1      -8.991  10.336  70.492  1.00  0.00    -0.270 Na 
HETATM    2 NA   UNL     2     -11.654   8.216  67.386  1.00  0.00    -0.499 Na 
HETATM    3 CA   UNL     3      -6.933  13.739  66.704  1.00  0.00    -0.313 Ca 
HETATM    4  O   UNL     4     -10.762  11.016  69.722  1.00  0.00    -0.197 OA 
HETATM    5  C   UNL     4     -11.172  11.074  68.527  1.00  0.00    -0.268 C  
HETATM    6  O   UNL     4     -11.152  10.059  67.749  1.00  0.00    -0.286 OA 
HETATM    7  C   UNL     4     -11.728  12.372  67.908  1.00  0.00    -0.360 C  
ENDROOT
BRANCH   7   8
HETATM    8  N   UNL     4     -11.403  13.675  68.551  1.00  0.00    -0.270 NA 
BRANCH   8   9
HETATM    9  C   UNL     4     -11.280  14.878  67.721  1.00  0.00    -0.321 C  
BRANCH   9  10
HETATM   10  C   UNL     4      -9.905  15.185  67.125  1.00  0.00    -0.228 C  
BRANCH  10  11
HETATM   11  N   UNL     4      -9.557  16.629  67.125  1.00  0.00    -0.237 NA 
BRANCH  11  12
HETATM   12  C   UNL     4     -10.598  17.503  67.754  1.00  0.00    -0.375 C  
HETATM   13  O   UNL     4     -10.583  19.909  67.510  1.00  0.00    -0.408 OA 
HETATM   14  O   UNL     4     -10.593  18.564  65.633  1.00  0.00    -0.616 OA 
HETATM   15  C   UNL     4     -10.653  18.817  66.896  1.00  0.00    -0.409 C  
ENDBRANCH  11  12
BRANCH  11  16
HETATM   16  C   UNL     4      -8.238  16.834  67.827  1.00  0.00    -0.183 C  
HETATM   17  C   UNL     4      -7.154  16.837  66.710  1.00  0.00    -0.235 C  
HETATM   18  O   UNL     4      -6.330  15.879  66.754  1.00  0.00    -0.248 OA 
HETATM   19  O   UNL     4      -7.452  17.648  65.753  1.00  0.00    -0.512 OA 
ENDBRANCH  11  16
ENDBRANCH  10  11
ENDBRANCH   9  10
ENDBRANCH   8   9
BRANCH   8  20
HETATM   20  C   UNL     4     -12.486  13.953  69.582  1.00  0.00    -0.143 C  
HETATM   21  C   UNL     4     -12.194  15.146  70.574  1.00  0.00    -0.341 C  
HETATM   22  O   UNL     4     -13.217  15.817  70.903  1.00  0.00    -0.560 OA 
HETATM   23  O   UNL     4     -10.986  15.331  70.952  1.00  0.00    -0.312 OA 
ENDBRANCH   8  20
ENDBRANCH   7   8
TORSDOF 7
ENDMDL
MODEL       50
REMARK 921   NORMALIZED FREE ENERGY PREDICTED BY IDOCK:   -5.20 KCAL/MOL
REMARK 922        TOTAL FREE ENERGY PREDICTED BY IDOCK:   -8.77 KCAL/MOL
REMARK 923 INTER-LIGAND FREE ENERGY PREDICTED BY IDOCK:   -7.50 KCAL/MOL
REMARK 924 INTRA-LIGAND FREE ENERGY PREDICTED BY IDOCK:   -1.27 KCAL/MOL
REMARK 927      BINDING AFFINITY PREDICTED BY RF-SCORE:    0.00 PKD
ROOT
HETATM    1 NA   UNL     1     -13.026  16.278  68.722  1.00  0.00    -0.475 Na 
HETATM    2 NA   UNL     2     -11.153  20.450  69.297  1.00  0.00    -0.572 Na 
HETATM    3 CA   UNL     3     -11.927  16.304  63.341  1.00  0.00    -0.889 Ca 
HETATM    4  O   UNL     4     -11.032  16.725  68.837  1.00  0.00    -0.314 OA 
HETATM    5  C   UNL     4     -10.354  17.624  68.258  1.00  0.00    -0.384 C  
HETATM    6  O   UNL     4     -10.696  18.855  68.281  1.00  0.00    -0.237 OA 
HETATM    7  C   UNL     4      -9.064  17.308  67.477  1.00  0.00    -0.223 C  
ENDROOT
BRANCH   7   8
HETATM    8  N   UNL     4      -8.817  15.910  67.025  1.00  0.00    -0.201 NA 
BRANCH   8   9
HETATM    9  C   UNL     4      -9.332  15.473  65.723  1.00  0.00    -0.257 C  
BRANCH   9  10
HETATM   10  C   UNL     4     -10.740  14.876  65.687  1.00  0.00    -0.342 C  
BRANCH  10  11
HETATM   11  N   UNL     4     -10.771  13.421  65.396  1.00  0.00    -0.292 NA 
BRANCH  11  12
HETATM   12  C   UNL     4     -10.315  13.069  64.013  1.00  0.00    -0.249 C  
HETATM   13  O   UNL     4     -10.476  10.822  63.133  1.00  0.00    -0.189 OA 
HETATM   14  O   UNL     4     -12.364  11.879  63.939  1.00  0.00    -0.417 OA 
HETATM   15  C   UNL     4     -11.127  11.794  63.588  1.00  0.00    -0.439 C  
ENDBRANCH  11  12
BRANCH  11  16
HETATM   16  C   UNL     4      -9.927  12.683  66.406  1.00  0.00    -0.255 C  
HETATM   17  C   UNL     4     -10.847  12.443  67.639  1.00  0.00    -0.225 C  
HETATM   18  O   UNL     4     -10.499  13.041  68.697  1.00  0.00    -0.249 OA 
HETATM   19  O   UNL     4     -11.973  11.913  67.302  1.00  0.00    -0.605 OA 
ENDBRANCH  11  16
ENDBRANCH  10  11
ENDBRANCH   9  10
ENDBRANCH   8   9
BRANCH   8  20
HETATM   20  C   UNL     4      -7.311  15.702  67.003  1.00  0.00    -0.168 C  
HETATM   21  C   UNL     4      -6.793  14.389  67.711  1.00  0.00    -0.178 C  
HETATM   22  O   UNL     4      -5.791  13.851  67.153  1.00  0.00    -0.218 OA 
HETATM   23  O   UNL     4      -7.409  13.990  68.759  1.00  0.00    -0.120 OA 
ENDBRANCH   8  20
ENDBRANCH   7   8
TORSDOF 7
ENDMDL
MODEL       51
REMARK 921   NORMALIZED FREE ENERGY PREDICTED BY IDOCK:   -5.19 KCAL/MOL
REMARK 922        TOTAL FREE ENERGY PREDICTED BY IDOCK:   -8.76 KCAL/MOL
REMARK 923 INTER-LIGAND FREE ENERGY PREDICTED BY IDOCK:   -8.06 KCAL/MOL
REMARK 924 INTRA-LIGAND FREE ENERGY PREDICTED BY IDOCK:   -0.70 KCAL/MOL
REMARK 927      BINDING AFFINITY PREDICTED BY RF-SCORE:    0.00 PKD
ROOT
HETATM    1 NA   UNL     1     -14.280  14.171  65.354  1.00  0.00    -0.726 Na 
HETATM    2 NA   UNL     2     -10.985  12.607  62.538  1.00  0.00    -0.597 Na 
HETATM    3 CA   UNL     3     -13.133  10.364  69.143  1.00  0.00    -0.547 Ca 
HETATM    4  O   UNL     4     -12.269  14.514  65.507  1.00  0.00    -0.353 OA 
HETATM    5  C   UNL     4     -11.289  13.716  65.434  1.00  0.00    -0.301 C  
HETATM    6  O   UNL     4     -11.141  12.908  64.454  1.00  0.00    -0.324 OA 
HETATM    7  C   UNL     4     -10.196  13.650  66.518  1.00  0.00    -0.284 C  
ENDROOT
BRANCH   7   8
HETATM    8  N   UNL     4     -10.485  14.206  67.869  1.00  0.00    -0.235 NA 
BRANCH   8   9
HETATM    9  C   UNL     4     -10.769  15.638  68.013  1.00  0.00    -0.287 C  
BRANCH   9  10
HETATM   10  C   UNL     4      -9.772  16.477  68.814  1.00  0.00    -0.251 C  
BRANCH  10  11
HETATM   11  N   UNL     4      -9.214  17.630  68.063  1.00  0.00    -0.264 NA 
BRANCH  11  12
HETATM   12  C   UNL     4      -9.651  18.964  68.586  1.00  0.00    -0.391 C  
HETATM   13  O   UNL     4      -9.784  20.924  67.176  1.00  0.00    -0.431 OA 
HETATM   14  O   UNL     4     -10.941  19.011  66.597  1.00  0.00    -0.293 OA 
HETATM   15  C   UNL     4     -10.217  19.760  67.356  1.00  0.00    -0.440 C  
ENDBRANCH  11  12
BRANCH  11  16
HETATM   16  C   UNL     4      -7.708  17.558  68.068  1.00  0.00    -0.211 C  
HETATM   17  C   UNL     4      -7.302  16.970  66.684  1.00  0.00    -0.261 C  
HETATM   18  O   UNL     4      -6.745  15.836  66.722  1.00  0.00    -0.227 OA 
HETATM   19  O   UNL     4      -7.865  17.600  65.711  1.00  0.00    -0.548 OA 
ENDBRANCH  11  16
ENDBRANCH  10  11
ENDBRANCH   9  10
ENDBRANCH   8   9
BRANCH   8  20
HETATM   20  C   UNL     4     -11.686  13.454  68.420  1.00  0.00    -0.355 C  
HETATM   21  C   UNL     4     -11.354  12.257  69.394  1.00  0.00    -0.228 C  
HETATM   22  O   UNL     4     -12.184  12.103  70.339  1.00  0.00    -0.341 OA 
HETATM   23  O   UNL     4     -10.308  11.562  69.155  1.00  0.00    -0.167 OA 
ENDBRANCH   8  20
ENDBRANCH   7   8
TORSDOF 7
ENDMDL
MODEL       52
REMARK 921   NORMALIZED FREE ENERGY PREDICTED BY IDOCK:   -5.19 KCAL/MOL
REMARK 922        TOTAL FREE ENERGY PREDICTED BY IDOCK:   -8.75 KCAL/MOL
REMARK 923 INTER-LIGAND FREE ENERGY PREDICTED BY IDOCK:   -7.54 KCAL/MOL
REMARK 924 INTRA-LIGAND FREE ENERGY PREDICTED BY IDOCK:   -1.21 KCAL/MOL
REMARK 927      BINDING AFFINITY PREDICTED BY RF-SCORE:    0.00 PKD
ROOT
HETATM    1 NA   UNL     1      -8.190  16.012  68.649  1.00  0.00    -0.141 Na 
HETATM    2 NA   UNL     2      -8.276  19.349  65.473  1.00  0.00    -0.300 Na 
HETATM    3 CA   UNL     3     -13.617  16.335  69.429  1.00  0.00    -0.551 Ca 
HETATM    4  O   UNL     4      -8.773  15.835  66.696  1.00  0.00    -0.235 OA 
HETATM    5  C   UNL     4      -9.546  16.554  65.998  1.00  0.00    -0.290 C  
HETATM    6  O   UNL     4      -9.398  17.820  65.904  1.00  0.00    -0.514 OA 
HETATM    7  C   UNL     4     -10.730  15.964  65.206  1.00  0.00    -0.424 C  
ENDROOT
BRANCH   7   8
HETATM    8  N   UNL     4     -11.248  14.618  65.577  1.00  0.00    -0.333 NA 
BRANCH   8   9
HETATM    9  C   UNL     4     -11.787  14.400  66.923  1.00  0.00    -0.410 C  
BRANCH   9  10
HETATM   10  C   UNL     4     -12.232  12.981  67.283  1.00  0.00    -0.120 C  
BRANCH  10  11
HETATM   11  N   UNL     4     -11.488  12.387  68.422  1.00  0.00    -0.285 NA 
BRANCH  11  12
HETATM   12  C   UNL     4     -10.184  11.759  68.033  1.00  0.00    -0.193 C  
HETATM   13  O   UNL     4      -8.931  10.345  69.541  1.00  0.00    -0.182 OA 
HETATM   14  O   UNL     4     -11.127   9.833  69.044  1.00  0.00    -0.196 OA 
HETATM   15  C   UNL     4     -10.020  10.483  68.932  1.00  0.00    -0.204 C  
ENDBRANCH  11  12
BRANCH  11  16
HETATM   16  C   UNL     4     -11.244  13.439  69.474  1.00  0.00    -0.117 C  
HETATM   17  C   UNL     4     -12.368  13.254  70.535  1.00  0.00    -0.316 C  
HETATM   18  O   UNL     4     -13.180  14.217  70.635  1.00  0.00    -0.300 OA 
HETATM   19  O   UNL     4     -12.461  12.029  70.927  1.00  0.00    -0.369 OA 
ENDBRANCH  11  16
ENDBRANCH  10  11
ENDBRANCH   9  10
ENDBRANCH   8   9
BRANCH   8  20
HETATM   20  C   UNL     4     -12.353  14.271  64.591  1.00  0.00    -0.415 C  
HETATM   21  C   UNL     4     -12.140  12.941  63.768  1.00  0.00    -0.508 C  
HETATM   22  O   UNL     4     -13.203  12.295  63.530  1.00  0.00    -0.716 OA 
HETATM   23  O   UNL     4     -10.948  12.635  63.419  1.00  0.00    -0.428 OA 
ENDBRANCH   8  20
ENDBRANCH   7   8
TORSDOF 7
ENDMDL
MODEL       53
REMARK 921   NORMALIZED FREE ENERGY PREDICTED BY IDOCK:   -5.18 KCAL/MOL
REMARK 922        TOTAL FREE ENERGY PREDICTED BY IDOCK:   -8.74 KCAL/MOL
REMARK 923 INTER-LIGAND FREE ENERGY PREDICTED BY IDOCK:   -8.16 KCAL/MOL
REMARK 924 INTRA-LIGAND FREE ENERGY PREDICTED BY IDOCK:   -0.58 KCAL/MOL
REMARK 927      BINDING AFFINITY PREDICTED BY RF-SCORE:    0.00 PKD
ROOT
HETATM    1 NA   UNL     1     -13.246  16.298  69.724  1.00  0.00    -0.537 Na 
HETATM    2 NA   UNL     2     -13.738  16.092  74.301  1.00  0.00    -0.768 Na 
HETATM    3 CA   UNL     3      -8.224  14.089  69.961  1.00  0.00    -0.320 Ca 
HETATM    4  O   UNL     4     -13.711  14.645  70.837  1.00  0.00    -0.303 OA 
HETATM    5  C   UNL     4     -13.187  14.191  71.896  1.00  0.00    -0.387 C  
HETATM    6  O   UNL     4     -13.010  14.916  72.933  1.00  0.00    -0.404 OA 
HETATM    7  C   UNL     4     -12.719  12.727  72.022  1.00  0.00    -0.028 C  
ENDROOT
BRANCH   7   8
HETATM    8  N   UNL     4     -12.477  11.937  70.783  1.00  0.00    -0.335 NA 
BRANCH   8   9
HETATM    9  C   UNL     4     -11.670  12.517  69.705  1.00  0.00    -0.285 C  
BRANCH   9  10
HETATM   10  C   UNL     4     -11.974  12.065  68.276  1.00  0.00    -0.179 C  
BRANCH  10  11
HETATM   11  N   UNL     4     -11.512  13.015  67.232  1.00  0.00    -0.312 NA 
BRANCH  11  12
HETATM   12  C   UNL     4     -10.285  13.784  67.612  1.00  0.00    -0.242 C  
HETATM   13  O   UNL     4      -9.952  16.089  66.962  1.00  0.00    -0.246 OA 
HETATM   14  O   UNL     4     -11.849  15.488  68.133  1.00  0.00    -0.301 OA 
HETATM   15  C   UNL     4     -10.689  15.301  67.602  1.00  0.00    -0.282 C  
ENDBRANCH  11  12
BRANCH  11  16
HETATM   16  C   UNL     4     -11.260  12.271  65.944  1.00  0.00    -0.340 C  
HETATM   17  C   UNL     4     -12.164  12.951  64.873  1.00  0.00    -0.453 C  
HETATM   18  O   UNL     4     -13.081  12.221  64.400  1.00  0.00    -0.780 OA 
HETATM   19  O   UNL     4     -12.014  14.232  64.861  1.00  0.00    -0.383 OA 
ENDBRANCH  11  16
ENDBRANCH  10  11
ENDBRANCH   9  10
ENDBRANCH   8   9
BRANCH   8  20
HETATM   20  C   UNL     4     -11.803  10.639  71.199  1.00  0.00    -0.241 C  
HETATM   21  C   UNL     4     -12.773   9.481  71.654  1.00  0.00    -0.388 C  
HETATM   22  O   UNL     4     -12.391   8.317  71.330  1.00  0.00    -0.303 OA 
HETATM   23  O   UNL     4     -13.834   9.802  72.294  1.00  0.00    -0.338 OA 
ENDBRANCH   8  20
ENDBRANCH   7   8
TORSDOF 7
ENDMDL
MODEL       54
REMARK 921   NORMALIZED FREE ENERGY PREDICTED BY IDOCK:   -5.17 KCAL/MOL
REMARK 922        TOTAL FREE ENERGY PREDICTED BY IDOCK:   -8.74 KCAL/MOL
REMARK 923 INTER-LIGAND FREE ENERGY PREDICTED BY IDOCK:   -7.98 KCAL/MOL
REMARK 924 INTRA-LIGAND FREE ENERGY PREDICTED BY IDOCK:   -0.76 KCAL/MOL
REMARK 927      BINDING AFFINITY PREDICTED BY RF-SCORE:    0.00 PKD
ROOT
HETATM    1 NA   UNL     1     -12.439  12.109  66.636  1.00  0.00    -0.321 Na 
HETATM    2 NA   UNL     2     -12.182  13.887  62.392  1.00  0.00    -0.896 Na 
HETATM    3 CA   UNL     3      -7.065  12.853  67.493  1.00  0.00    -0.079 Ca 
HETATM    4  O   UNL     4     -12.339  14.091  66.138  1.00  0.00    -0.448 OA 
HETATM    5  C   UNL     4     -11.573  14.702  65.337  1.00  0.00    -0.345 C  
HETATM    6  O   UNL     4     -11.415  14.325  64.125  1.00  0.00    -0.278 OA 
HETATM    7  C   UNL     4     -10.768  15.948  65.754  1.00  0.00    -0.316 C  
ENDROOT
BRANCH   7   8
HETATM    8  N   UNL     4     -10.538  16.207  67.203  1.00  0.00    -0.306 NA 
BRANCH   8   9
HETATM    9  C   UNL     4     -10.166  15.096  68.084  1.00  0.00    -0.227 C  
BRANCH   9  10
HETATM   10  C   UNL     4     -10.266  15.327  69.592  1.00  0.00    -0.244 C  
BRANCH  10  11
HETATM   11  N   UNL     4     -11.464  14.713  70.218  1.00  0.00    -0.263 NA 
BRANCH  11  12
HETATM   12  C   UNL     4     -12.522  15.702  70.602  1.00  0.00    -0.417 C  
HETATM   13  O   UNL     4     -13.900  15.419  72.570  1.00  0.00    -0.493 OA 
HETATM   14  O   UNL     4     -11.599  15.428  72.769  1.00  0.00    -0.460 OA 
HETATM   15  C   UNL     4     -12.724  15.556  72.153  1.00  0.00    -0.403 C  
ENDBRANCH  11  12
BRANCH  11  16
HETATM   16  C   UNL     4     -12.054  13.685  69.285  1.00  0.00    -0.314 C  
HETATM   17  C   UNL     4     -11.793  12.302  69.951  1.00  0.00    -0.311 C  
HETATM   18  O   UNL     4     -11.014  11.536  69.315  1.00  0.00    -0.231 OA 
HETATM   19  O   UNL     4     -12.178  12.281  71.181  1.00  0.00    -0.243 OA 
ENDBRANCH  11  16
ENDBRANCH  10  11
ENDBRANCH   9  10
ENDBRANCH   8   9
BRANCH   8  20
HETATM   20  C   UNL     4      -9.435  17.249  67.306  1.00  0.00    -0.250 C  
HETATM   21  C   UNL     4      -9.903  18.699  67.720  1.00  0.00    -0.325 C  
HETATM   22  O   UNL     4      -9.083  19.325  68.455  1.00  0.00    -0.332 OA 
HETATM   23  O   UNL     4     -11.036  19.110  67.291  1.00  0.00    -0.478 OA 
ENDBRANCH   8  20
ENDBRANCH   7   8
TORSDOF 7
ENDMDL
MODEL       55
REMARK 921   NORMALIZED FREE ENERGY PREDICTED BY IDOCK:   -5.17 KCAL/MOL
REMARK 922        TOTAL FREE ENERGY PREDICTED BY IDOCK:   -8.73 KCAL/MOL
REMARK 923 INTER-LIGAND FREE ENERGY PREDICTED BY IDOCK:   -7.27 KCAL/MOL
REMARK 924 INTRA-LIGAND FREE ENERGY PREDICTED BY IDOCK:   -1.46 KCAL/MOL
REMARK 927      BINDING AFFINITY PREDICTED BY RF-SCORE:    0.00 PKD
ROOT
HETATM    1 NA   UNL     1     -11.414   8.113  68.052  1.00  0.00    -0.444 Na 
HETATM    2 NA   UNL     2      -6.979   8.591  66.893  1.00  0.00    -0.062 Na 
HETATM    3 CA   UNL     3     -11.411  12.855  70.823  1.00  0.00    -0.501 Ca 
HETATM    4  O   UNL     4     -10.651   9.309  66.577  1.00  0.00    -0.178 OA 
HETATM    5  C   UNL     4      -9.678  10.118  66.592  1.00  0.00    -0.192 C  
HETATM    6  O   UNL     4      -8.516   9.778  67.004  1.00  0.00    -0.117 OA 
HETATM    7  C   UNL     4      -9.813  11.579  66.119  1.00  0.00    -0.221 C  
ENDROOT
BRANCH   7   8
HETATM    8  N   UNL     4     -11.169  12.189  66.038  1.00  0.00    -0.322 NA 
BRANCH   8   9
HETATM    9  C   UNL     4     -11.745  12.825  67.227  1.00  0.00    -0.378 C  
BRANCH   9  10
HETATM   10  C   UNL     4     -11.894  14.348  67.210  1.00  0.00    -0.405 C  
BRANCH  10  11
HETATM   11  N   UNL     4     -10.976  15.054  68.137  1.00  0.00    -0.269 NA 
BRANCH  11  12
HETATM   12  C   UNL     4      -9.748  15.601  67.475  1.00  0.00    -0.222 C  
HETATM   13  O   UNL     4      -7.665  15.902  68.665  1.00  0.00    -0.143 OA 
HETATM   14  O   UNL     4      -8.675  13.826  68.623  1.00  0.00    -0.147 OA 
HETATM   15  C   UNL     4      -8.523  15.064  68.297  1.00  0.00    -0.147 C  
ENDBRANCH  11  12
BRANCH  11  16
HETATM   16  C   UNL     4     -11.714  16.173  68.829  1.00  0.00    -0.231 C  
HETATM   17  C   UNL     4     -11.923  15.705  70.299  1.00  0.00    -0.374 C  
HETATM   18  O   UNL     4     -13.126  15.522  70.641  1.00  0.00    -0.450 OA 
HETATM   19  O   UNL     4     -10.824  15.296  70.834  1.00  0.00    -0.301 OA 
ENDBRANCH  11  16
ENDBRANCH  10  11
ENDBRANCH   9  10
ENDBRANCH   8   9
BRANCH   8  20
HETATM   20  C   UNL     4     -11.125  13.244  64.943  1.00  0.00    -0.328 C  
HETATM   21  C   UNL     4     -12.108  13.011  63.731  1.00  0.00    -0.502 C  
HETATM   22  O   UNL     4     -12.598  14.071  63.241  1.00  0.00    -0.801 OA 
HETATM   23  O   UNL     4     -12.322  11.807  63.354  1.00  0.00    -0.532 OA 
ENDBRANCH   8  20
ENDBRANCH   7   8
TORSDOF 7
ENDMDL
MODEL       56
REMARK 921   NORMALIZED FREE ENERGY PREDICTED BY IDOCK:   -5.16 KCAL/MOL
REMARK 922        TOTAL FREE ENERGY PREDICTED BY IDOCK:   -8.71 KCAL/MOL
REMARK 923 INTER-LIGAND FREE ENERGY PREDICTED BY IDOCK:   -7.12 KCAL/MOL
REMARK 924 INTRA-LIGAND FREE ENERGY PREDICTED BY IDOCK:   -1.59 KCAL/MOL
REMARK 927      BINDING AFFINITY PREDICTED BY RF-SCORE:    0.00 PKD
ROOT
HETATM    1 NA   UNL     1      -6.786  11.216  63.552  1.00  0.00    -0.345 Na 
HETATM    2 NA   UNL     2      -7.046   6.615  63.588  1.00  0.00    -0.041 Na 
HETATM    3 CA   UNL     3     -12.145  11.712  62.457  1.00  0.00    -0.631 Ca 
HETATM    4  O   UNL     4      -7.500  10.037  65.065  1.00  0.00    -0.129 OA 
HETATM    5  C   UNL     4      -8.309   9.065  65.040  1.00  0.00    -0.166 C  
HETATM    6  O   UNL     4      -8.154   8.069  64.253  1.00  0.00    -0.151 OA 
HETATM    7  C   UNL     4      -9.550   9.000  65.953  1.00  0.00    -0.247 C  
ENDROOT
BRANCH   7   8
HETATM    8  N   UNL     4     -10.057  10.257  66.571  1.00  0.00    -0.222 NA 
BRANCH   8   9
HETATM    9  C   UNL     4     -10.768  11.233  65.738  1.00  0.00    -0.223 C  
BRANCH   9  10
HETATM   10  C   UNL     4     -10.066  12.562  65.454  1.00  0.00    -0.267 C  
BRANCH  10  11
HETATM   11  N   UNL     4     -10.744  13.741  66.049  1.00  0.00    -0.281 NA 
BRANCH  11  12
HETATM   12  C   UNL     4      -9.934  14.442  67.096  1.00  0.00    -0.253 C  
HETATM   13  O   UNL     4     -10.764  16.373  68.292  1.00  0.00    -0.306 OA 
HETATM   14  O   UNL     4     -11.974  14.407  68.304  1.00  0.00    -0.329 OA 
HETATM   15  C   UNL     4     -10.959  15.158  68.045  1.00  0.00    -0.295 C  
ENDBRANCH  11  12
BRANCH  11  16
HETATM   16  C   UNL     4     -11.111  14.718  64.960  1.00  0.00    -0.405 C  
HETATM   17  C   UNL     4     -12.493  14.252  64.414  1.00  0.00    -0.300 C  
HETATM   18  O   UNL     4     -12.492  13.856  63.213  1.00  0.00    -0.817 OA 
HETATM   19  O   UNL     4     -13.347  14.067  65.362  1.00  0.00    -0.721 OA 
ENDBRANCH  11  16
ENDBRANCH  10  11
ENDBRANCH   9  10
ENDBRANCH   8   9
BRANCH   8  20
HETATM   20  C   UNL     4     -10.999   9.859  67.696  1.00  0.00    -0.200 C  
HETATM   21  C   UNL     4     -11.190  10.932  68.838  1.00  0.00    -0.267 C  
HETATM   22  O   UNL     4     -12.358  10.976  69.327  1.00  0.00    -0.412 OA 
HETATM   23  O   UNL     4     -10.181  11.647  69.165  1.00  0.00    -0.111 OA 
ENDBRANCH   8  20
ENDBRANCH   7   8
TORSDOF 7
ENDMDL
MODEL       57
REMARK 921   NORMALIZED FREE ENERGY PREDICTED BY IDOCK:   -5.13 KCAL/MOL
REMARK 922        TOTAL FREE ENERGY PREDICTED BY IDOCK:   -8.67 KCAL/MOL
REMARK 923 INTER-LIGAND FREE ENERGY PREDICTED BY IDOCK:   -7.15 KCAL/MOL
REMARK 924 INTRA-LIGAND FREE ENERGY PREDICTED BY IDOCK:   -1.52 KCAL/MOL
REMARK 927      BINDING AFFINITY PREDICTED BY RF-SCORE:    0.00 PKD
ROOT
HETATM    1 NA   UNL     1      -6.891   9.310  67.903  1.00  0.00    -0.062 Na 
HETATM    2 NA   UNL     2     -10.138   6.887  65.707  1.00  0.00    -0.402 Na 
HETATM    3 CA   UNL     3      -8.578  14.016  65.630  1.00  0.00    -0.396 Ca 
HETATM    4  O   UNL     4      -8.871   9.176  68.400  1.00  0.00    -0.129 OA 
HETATM    5  C   UNL     4      -9.909   9.283  67.685  1.00  0.00    -0.176 C  
HETATM    6  O   UNL     4     -10.069   8.608  66.611  1.00  0.00    -0.263 OA 
HETATM    7  C   UNL     4     -11.066  10.237  68.046  1.00  0.00    -0.274 C  
ENDROOT
BRANCH   7   8
HETATM    8  N   UNL     4     -10.809  11.354  68.997  1.00  0.00    -0.213 NA 
BRANCH   8   9
HETATM    9  C   UNL     4     -10.163  12.578  68.512  1.00  0.00    -0.203 C  
BRANCH   9  10
HETATM   10  C   UNL     4     -11.030  13.833  68.394  1.00  0.00    -0.254 C  
BRANCH  10  11
HETATM   11  N   UNL     4     -11.015  14.450  67.044  1.00  0.00    -0.298 NA 
BRANCH  11  12
HETATM   12  C   UNL     4     -12.152  14.021  66.168  1.00  0.00    -0.446 C  
HETATM   13  O   UNL     4     -12.577  15.034  64.013  1.00  0.00    -0.817 OA 
HETATM   14  O   UNL     4     -10.509  14.109  64.462  1.00  0.00    -0.408 OA 
HETATM   15  C   UNL     4     -11.745  14.389  64.697  1.00  0.00    -0.430 C  
ENDBRANCH  11  12
BRANCH  11  16
HETATM   16  C   UNL     4     -11.020  15.953  67.172  1.00  0.00    -0.214 C  
HETATM   17  C   UNL     4      -9.567  16.355  67.561  1.00  0.00    -0.227 C  
HETATM   18  O   UNL     4      -9.438  16.870  68.708  1.00  0.00    -0.254 OA 
HETATM   19  O   UNL     4      -8.695  15.827  66.771  1.00  0.00    -0.221 OA 
ENDBRANCH  11  16
ENDBRANCH  10  11
ENDBRANCH   9  10
ENDBRANCH   8   9
BRANCH   8  20
HETATM   20  C   UNL     4     -12.150  11.760  69.589  1.00  0.00    -0.258 C  
HETATM   21  C   UNL     4     -12.412  11.287  71.072  1.00  0.00    -0.400 C  
HETATM   22  O   UNL     4     -13.070  12.109  71.777  1.00  0.00    -0.438 OA 
HETATM   23  O   UNL     4     -11.953  10.148  71.429  1.00  0.00    -0.369 OA 
ENDBRANCH   8  20
ENDBRANCH   7   8
TORSDOF 7
ENDMDL
MODEL       58
REMARK 921   NORMALIZED FREE ENERGY PREDICTED BY IDOCK:   -5.11 KCAL/MOL
REMARK 922        TOTAL FREE ENERGY PREDICTED BY IDOCK:   -8.65 KCAL/MOL
REMARK 923 INTER-LIGAND FREE ENERGY PREDICTED BY IDOCK:   -7.98 KCAL/MOL
REMARK 924 INTRA-LIGAND FREE ENERGY PREDICTED BY IDOCK:   -0.66 KCAL/MOL
REMARK 927      BINDING AFFINITY PREDICTED BY RF-SCORE:    0.00 PKD
ROOT
HETATM    1 NA   UNL     1      -7.416  11.840  67.318  1.00  0.00    -0.095 Na 
HETATM    2 NA   UNL     2      -8.768   8.218  69.826  1.00  0.00    -0.117 Na 
HETATM    3 CA   UNL     3     -10.458  10.262  63.027  1.00  0.00    -0.478 Ca 
HETATM    4  O   UNL     4      -9.200  11.619  68.296  1.00  0.00    -0.177 OA 
HETATM    5  C   UNL     4     -10.010  10.647  68.322  1.00  0.00    -0.158 C  
HETATM    6  O   UNL     4      -9.637   9.457  68.604  1.00  0.00    -0.145 OA 
HETATM    7  C   UNL     4     -11.511  10.816  68.016  1.00  0.00    -0.256 C  
ENDROOT
BRANCH   7   8
HETATM    8  N   UNL     4     -11.965  12.024  67.272  1.00  0.00    -0.590 NA 
BRANCH   8   9
HETATM    9  C   UNL     4     -11.765  13.351  67.862  1.00  0.00    -0.361 C  
BRANCH   9  10
HETATM   10  C   UNL     4     -11.945  13.484  69.376  1.00  0.00    -0.330 C  
BRANCH  10  11
HETATM   11  N   UNL     4     -11.786  14.871  69.882  1.00  0.00    -0.292 NA 
BRANCH  11  12
HETATM   12  C   UNL     4     -11.596  15.892  68.804  1.00  0.00    -0.386 C  
HETATM   13  O   UNL     4     -10.290  17.899  69.141  1.00  0.00    -0.340 OA 
HETATM   14  O   UNL     4      -9.339  15.830  69.525  1.00  0.00    -0.265 OA 
HETATM   15  C   UNL     4     -10.258  16.645  69.134  1.00  0.00    -0.309 C  
ENDBRANCH  11  12
BRANCH  11  16
HETATM   16  C   UNL     4     -12.982  15.244  70.722  1.00  0.00    -0.436 C  
HETATM   17  C   UNL     4     -12.619  14.848  72.184  1.00  0.00    -0.327 C  
HETATM   18  O   UNL     4     -13.326  13.927  72.685  1.00  0.00    -0.512 OA 
HETATM   19  O   UNL     4     -11.472  15.318  72.538  1.00  0.00    -0.450 OA 
ENDBRANCH  11  16
ENDBRANCH  10  11
ENDBRANCH   9  10
ENDBRANCH   8   9
BRANCH   8  20
HETATM   20  C   UNL     4     -11.253  12.021  65.928  1.00  0.00    -0.337 C  
HETATM   21  C   UNL     4     -12.053  12.667  64.731  1.00  0.00    -0.436 C  
HETATM   22  O   UNL     4     -11.334  13.291  63.895  1.00  0.00    -0.381 OA 
HETATM   23  O   UNL     4     -13.323  12.512  64.703  1.00  0.00    -0.804 OA 
ENDBRANCH   8  20
ENDBRANCH   7   8
TORSDOF 7
ENDMDL
MODEL       59
REMARK 921   NORMALIZED FREE ENERGY PREDICTED BY IDOCK:   -5.10 KCAL/MOL
REMARK 922        TOTAL FREE ENERGY PREDICTED BY IDOCK:   -8.63 KCAL/MOL
REMARK 923 INTER-LIGAND FREE ENERGY PREDICTED BY IDOCK:   -7.55 KCAL/MOL
REMARK 924 INTRA-LIGAND FREE ENERGY PREDICTED BY IDOCK:   -1.07 KCAL/MOL
REMARK 927      BINDING AFFINITY PREDICTED BY RF-SCORE:    0.00 PKD
ROOT
HETATM    1 NA   UNL     1     -11.694  15.561  63.668  1.00  0.00    -0.620 Na 
HETATM    2 NA   UNL     2     -14.228  11.733  63.272  1.00  0.00    -0.278 Na 
HETATM    3 CA   UNL     3     -13.065  16.165  68.952  1.00  0.00    -0.529 Ca 
HETATM    4  O   UNL     4     -11.194  13.684  64.312  1.00  0.00    -0.379 OA 
HETATM    5  C   UNL     4     -11.860  12.834  64.972  1.00  0.00    -0.382 C  
HETATM    6  O   UNL     4     -13.034  12.469  64.620  1.00  0.00    -0.803 OA 
HETATM    7  C   UNL     4     -11.315  12.171  66.252  1.00  0.00    -0.357 C  
ENDROOT
BRANCH   7   8
HETATM    8  N   UNL     4     -10.186  12.819  66.975  1.00  0.00    -0.240 NA 
BRANCH   8   9
HETATM    9  C   UNL     4     -10.469  13.854  67.974  1.00  0.00    -0.243 C  
BRANCH   9  10
HETATM   10  C   UNL     4     -10.980  15.204  67.465  1.00  0.00    -0.310 C  
BRANCH  10  11
HETATM   11  N   UNL     4      -9.994  16.307  67.590  1.00  0.00    -0.243 NA 
BRANCH  11  12
HETATM   12  C   UNL     4      -8.823  15.978  68.464  1.00  0.00    -0.199 C  
HETATM   13  O   UNL     4      -6.874  17.403  68.602  1.00  0.00    -0.197 OA 
HETATM   14  O   UNL     4      -8.967  18.271  69.048  1.00  0.00    -0.178 OA 
HETATM   15  C   UNL     4      -8.114  17.341  68.789  1.00  0.00    -0.242 C  
ENDBRANCH  11  12
BRANCH  11  16
HETATM   16  C   UNL     4      -9.503  16.706  66.221  1.00  0.00    -0.293 C  
HETATM   17  C   UNL     4     -10.508  17.775  65.699  1.00  0.00    -0.128 C  
HETATM   18  O   UNL     4     -11.181  17.433  64.685  1.00  0.00    -0.992 OA 
HETATM   19  O   UNL     4     -10.700  18.715  66.561  1.00  0.00    -0.367 OA 
ENDBRANCH  11  16
ENDBRANCH  10  11
ENDBRANCH   9  10
ENDBRANCH   8   9
BRANCH   8  20
HETATM   20  C   UNL     4      -9.410  11.717  67.681  1.00  0.00    -0.180 C  
HETATM   21  C   UNL     4      -7.922  12.072  68.071  1.00  0.00    -0.149 C  
HETATM   22  O   UNL     4      -7.531  11.566  69.164  1.00  0.00    -0.100 OA 
HETATM   23  O   UNL     4      -7.255  12.819  67.275  1.00  0.00    -0.145 OA 
ENDBRANCH   8  20
ENDBRANCH   7   8
TORSDOF 7
ENDMDL
MODEL       60
REMARK 921   NORMALIZED FREE ENERGY PREDICTED BY IDOCK:   -5.10 KCAL/MOL
REMARK 922        TOTAL FREE ENERGY PREDICTED BY IDOCK:   -8.63 KCAL/MOL
REMARK 923 INTER-LIGAND FREE ENERGY PREDICTED BY IDOCK:   -7.30 KCAL/MOL
REMARK 924 INTRA-LIGAND FREE ENERGY PREDICTED BY IDOCK:   -1.33 KCAL/MOL
REMARK 927      BINDING AFFINITY PREDICTED BY RF-SCORE:    0.00 PKD
ROOT
HETATM    1 NA   UNL     1     -13.050  14.728  67.536  1.00  0.00    -0.548 Na 
HETATM    2 NA   UNL     2     -13.374  12.996  63.278  1.00  0.00    -0.634 Na 
HETATM    3 CA   UNL     3     -14.247   9.878  69.819  1.00  0.00    -0.641 Ca 
HETATM    4  O   UNL     4     -11.652  13.597  66.560  1.00  0.00    -0.335 OA 
HETATM    5  C   UNL     4     -11.773  12.519  65.908  1.00  0.00    -0.426 C  
HETATM    6  O   UNL     4     -12.629  12.384  64.968  1.00  0.00    -0.601 OA 
HETATM    7  C   UNL     4     -10.901  11.280  66.192  1.00  0.00    -0.222 C  
ENDROOT
BRANCH   7   8
HETATM    8  N   UNL     4     -10.202  11.175  67.504  1.00  0.00    -0.182 NA 
BRANCH   8   9
HETATM    9  C   UNL     4     -10.351   9.955  68.303  1.00  0.00    -0.201 C  
BRANCH   9  10
HETATM   10  C   UNL     4     -11.188  10.048  69.581  1.00  0.00    -0.239 C  
BRANCH  10  11
HETATM   11  N   UNL     4     -11.220   8.792  70.372  1.00  0.00    -0.247 NA 
BRANCH  11  12
HETATM   12  C   UNL     4      -9.980   7.961  70.243  1.00  0.00    -0.189 C  
HETATM   13  O   UNL     4      -9.962   5.587  70.703  1.00  0.00    -0.184 OA 
HETATM   14  O   UNL     4     -11.442   6.446  69.152  1.00  0.00    -0.364 OA 
HETATM   15  C   UNL     4     -10.457   6.488  69.983  1.00  0.00    -0.212 C  
ENDBRANCH  11  12
BRANCH  11  16
HETATM   16  C   UNL     4     -11.458   9.114  71.826  1.00  0.00    -0.381 C  
HETATM   17  C   UNL     4     -13.003   9.096  72.022  1.00  0.00    -0.424 C  
HETATM   18  O   UNL     4     -13.522  10.209  72.323  1.00  0.00    -0.398 OA 
HETATM   19  O   UNL     4     -13.534   8.018  71.555  1.00  0.00    -0.327 OA 
ENDBRANCH  11  16
ENDBRANCH  10  11
ENDBRANCH   9  10
ENDBRANCH   8   9
BRANCH   8  20
HETATM   20  C   UNL     4      -8.716  11.358  67.240  1.00  0.00    -0.148 C  
HETATM   21  C   UNL     4      -8.065  12.651  67.870  1.00  0.00    -0.165 C  
HETATM   22  O   UNL     4      -6.875  12.495  68.276  1.00  0.00    -0.069 OA 
HETATM   23  O   UNL     4      -8.771  13.717  67.917  1.00  0.00    -0.163 OA 
ENDBRANCH   8  20
ENDBRANCH   7   8
TORSDOF 7
ENDMDL
MODEL       61
REMARK 921   NORMALIZED FREE ENERGY PREDICTED BY IDOCK:   -5.10 KCAL/MOL
REMARK 922        TOTAL FREE ENERGY PREDICTED BY IDOCK:   -8.63 KCAL/MOL
REMARK 923 INTER-LIGAND FREE ENERGY PREDICTED BY IDOCK:   -7.86 KCAL/MOL
REMARK 924 INTRA-LIGAND FREE ENERGY PREDICTED BY IDOCK:   -0.77 KCAL/MOL
REMARK 927      BINDING AFFINITY PREDICTED BY RF-SCORE:    0.00 PKD
ROOT
HETATM    1 NA   UNL     1     -10.286   9.128  66.459  1.00  0.00    -0.197 Na 
HETATM    2 NA   UNL     2     -12.841   9.442  70.282  1.00  0.00    -0.480 Na 
HETATM    3 CA   UNL     3     -13.996  11.904  63.510  1.00  0.00    -0.601 Ca 
HETATM    4  O   UNL     4     -10.470  10.757  67.685  1.00  0.00    -0.190 OA 
HETATM    5  C   UNL     4     -11.498  11.306  68.178  1.00  0.00    -0.306 C  
HETATM    6  O   UNL     4     -12.381  10.643  68.823  1.00  0.00    -0.349 OA 
HETATM    7  C   UNL     4     -11.772  12.816  68.041  1.00  0.00    -0.356 C  
ENDROOT
BRANCH   7   8
HETATM    8  N   UNL     4     -11.070  13.584  66.975  1.00  0.00    -0.291 NA 
BRANCH   8   9
HETATM    9  C   UNL     4      -9.672  13.978  67.174  1.00  0.00    -0.242 C  
BRANCH   9  10
HETATM   10  C   UNL     4      -9.313  15.447  66.943  1.00  0.00    -0.236 C  
BRANCH  10  11
HETATM   11  N   UNL     4      -9.666  16.339  68.076  1.00  0.00    -0.228 NA 
BRANCH  11  12
HETATM   12  C   UNL     4      -9.788  15.631  69.390  1.00  0.00    -0.284 C  
HETATM   13  O   UNL     4     -11.183  16.464  71.181  1.00  0.00    -0.282 OA 
HETATM   14  O   UNL     4     -12.100  16.070  69.099  1.00  0.00    -0.293 OA 
HETATM   15  C   UNL     4     -11.174  16.052  69.996  1.00  0.00    -0.362 C  
ENDBRANCH  11  12
BRANCH  11  16
HETATM   16  C   UNL     4      -8.643  17.441  68.192  1.00  0.00    -0.248 C  
HETATM   17  C   UNL     4      -9.232  18.657  67.417  1.00  0.00    -0.279 C  
HETATM   18  O   UNL     4      -8.587  19.003  66.386  1.00  0.00    -0.309 OA 
HETATM   19  O   UNL     4     -10.439  18.922  67.785  1.00  0.00    -0.393 OA 
ENDBRANCH  11  16
ENDBRANCH  10  11
ENDBRANCH   9  10
ENDBRANCH   8   9
BRANCH   8  20
HETATM   20  C   UNL     4     -11.122  12.748  65.706  1.00  0.00    -0.285 C  
HETATM   21  C   UNL     4     -12.141  13.241  64.606  1.00  0.00    -0.408 C  
HETATM   22  O   UNL     4     -11.747  13.073  63.413  1.00  0.00    -0.504 OA 
HETATM   23  O   UNL     4     -13.246  13.753  64.997  1.00  0.00    -0.733 OA 
ENDBRANCH   8  20
ENDBRANCH   7   8
TORSDOF 7
ENDMDL
MODEL       62
REMARK 921   NORMALIZED FREE ENERGY PREDICTED BY IDOCK:   -5.06 KCAL/MOL
REMARK 922        TOTAL FREE ENERGY PREDICTED BY IDOCK:   -8.57 KCAL/MOL
REMARK 923 INTER-LIGAND FREE ENERGY PREDICTED BY IDOCK:   -7.95 KCAL/MOL
REMARK 924 INTRA-LIGAND FREE ENERGY PREDICTED BY IDOCK:   -0.62 KCAL/MOL
REMARK 927      BINDING AFFINITY PREDICTED BY RF-SCORE:    0.00 PKD
ROOT
HETATM    1 NA   UNL     1     -10.264  20.409  65.581  1.00  0.00    -0.386 Na 
HETATM    2 NA   UNL     2     -11.120  20.675  70.101  1.00  0.00    -0.815 Na 
HETATM    3 CA   UNL     3      -5.179  18.523  66.449  1.00  0.00    -0.123 Ca 
HETATM    4  O   UNL     4     -10.740  18.863  66.835  1.00  0.00    -0.421 OA 
HETATM    5  C   UNL     4     -10.285  18.557  67.975  1.00  0.00    -0.383 C  
HETATM    6  O   UNL     4     -10.228  19.400  68.934  1.00  0.00    -0.410 OA 
HETATM    7  C   UNL     4      -9.760  17.145  68.301  1.00  0.00    -0.280 C  
ENDROOT
BRANCH   7   8
HETATM    8  N   UNL     4      -9.380  16.239  67.182  1.00  0.00    -0.219 NA 
BRANCH   8   9
HETATM    9  C   UNL     4     -10.319  16.028  66.075  1.00  0.00    -0.351 C  
BRANCH   9  10
HETATM   10  C   UNL     4     -11.645  15.337  66.398  1.00  0.00     0.007 C  
BRANCH  10  11
HETATM   11  N   UNL     4     -11.583  13.855  66.338  1.00  0.00    -0.351 NA 
BRANCH  11  12
HETATM   12  C   UNL     4     -11.721  13.187  67.671  1.00  0.00    -0.369 C  
HETATM   13  O   UNL     4     -11.740  10.782  67.915  1.00  0.00    -0.543 OA 
HETATM   14  O   UNL     4      -9.968  11.815  66.856  1.00  0.00    -0.196 OA 
HETATM   15  C   UNL     4     -11.067  11.767  67.527  1.00  0.00    -0.272 C  
ENDBRANCH  11  12
BRANCH  11  16
HETATM   16  C   UNL     4     -12.651  13.340  65.406  1.00  0.00    -0.468 C  
HETATM   17  C   UNL     4     -12.031  13.383  63.978  1.00  0.00    -0.464 C  
HETATM   18  O   UNL     4     -12.582  14.189  63.175  1.00  0.00    -0.686 OA 
HETATM   19  O   UNL     4     -10.877  12.809  63.938  1.00  0.00    -0.389 OA 
ENDBRANCH  11  16
ENDBRANCH  10  11
ENDBRANCH   9  10
ENDBRANCH   8   9
BRANCH   8  20
HETATM   20  C   UNL     4      -8.093  16.781  66.579  1.00  0.00    -0.294 C  
HETATM   21  C   UNL     4      -6.766  16.392  67.340  1.00  0.00    -0.169 C  
HETATM   22  O   UNL     4      -5.767  16.195  66.587  1.00  0.00    -0.239 OA 
HETATM   23  O   UNL     4      -6.808  16.312  68.616  1.00  0.00    -0.130 OA 
ENDBRANCH   8  20
ENDBRANCH   7   8
TORSDOF 7
ENDMDL
MODEL       63
REMARK 921   NORMALIZED FREE ENERGY PREDICTED BY IDOCK:   -5.05 KCAL/MOL
REMARK 922        TOTAL FREE ENERGY PREDICTED BY IDOCK:   -8.56 KCAL/MOL
REMARK 923 INTER-LIGAND FREE ENERGY PREDICTED BY IDOCK:   -7.92 KCAL/MOL
REMARK 924 INTRA-LIGAND FREE ENERGY PREDICTED BY IDOCK:   -0.63 KCAL/MOL
REMARK 927      BINDING AFFINITY PREDICTED BY RF-SCORE:    0.00 PKD
ROOT
HETATM    1 NA   UNL     1     -10.985  16.744  70.584  1.00  0.00    -0.309 Na 
HETATM    2 NA   UNL     2      -6.937  14.581  70.995  1.00  0.00    -0.290 Na 
HETATM    3 CA   UNL     3      -8.729  20.853  67.722  1.00  0.00    -0.293 Ca 
HETATM    4  O   UNL     4     -10.042  15.618  69.158  1.00  0.00    -0.207 OA 
HETATM    5  C   UNL     4      -8.841  15.628  68.762  1.00  0.00    -0.208 C  
HETATM    6  O   UNL     4      -7.856  15.538  69.573  1.00  0.00    -0.224 OA 
HETATM    7  C   UNL     4      -8.463  15.750  67.273  1.00  0.00    -0.189 C  
ENDROOT
BRANCH   7   8
HETATM    8  N   UNL     4      -9.471  16.284  66.315  1.00  0.00    -0.293 NA 
BRANCH   8   9
HETATM    9  C   UNL     4     -10.550  15.412  65.842  1.00  0.00    -0.339 C  
BRANCH   9  10
HETATM   10  C   UNL     4     -10.216  13.936  65.617  1.00  0.00    -0.328 C  
BRANCH  10  11
HETATM   11  N   UNL     4     -11.265  13.001  66.096  1.00  0.00    -0.284 NA 
BRANCH  11  12
HETATM   12  C   UNL     4     -11.460  13.016  67.581  1.00  0.00    -0.324 C  
HETATM   13  O   UNL     4     -12.487  11.176  68.768  1.00  0.00    -0.468 OA 
HETATM   14  O   UNL     4     -10.642  10.795  67.432  1.00  0.00    -0.211 OA 
HETATM   15  C   UNL     4     -11.525  11.514  68.036  1.00  0.00    -0.311 C  
ENDBRANCH  11  12
BRANCH  11  16
HETATM   16  C   UNL     4     -12.574  13.315  65.416  1.00  0.00    -0.468 C  
HETATM   17  C   UNL     4     -12.397  12.889  63.928  1.00  0.00    -0.396 C  
HETATM   18  O   UNL     4     -12.438  13.834  63.088  1.00  0.00    -0.786 OA 
HETATM   19  O   UNL     4     -11.944  11.687  63.823  1.00  0.00    -0.384 OA 
ENDBRANCH  11  16
ENDBRANCH  10  11
ENDBRANCH   9  10
ENDBRANCH   8   9
BRANCH   8  20
HETATM   20  C   UNL     4     -10.125  17.489  66.972  1.00  0.00    -0.323 C  
HETATM   21  C   UNL     4      -9.768  18.890  66.338  1.00  0.00    -0.363 C  
HETATM   22  O   UNL     4     -10.720  19.726  66.343  1.00  0.00    -0.464 OA 
HETATM   23  O   UNL     4      -8.584  19.061  65.887  1.00  0.00    -0.461 OA 
ENDBRANCH   8  20
ENDBRANCH   7   8
TORSDOF 7
ENDMDL
MODEL       64
REMARK 921   NORMALIZED FREE ENERGY PREDICTED BY IDOCK:   -5.05 KCAL/MOL
REMARK 922        TOTAL FREE ENERGY PREDICTED BY IDOCK:   -8.55 KCAL/MOL
REMARK 923 INTER-LIGAND FREE ENERGY PREDICTED BY IDOCK:   -7.48 KCAL/MOL
REMARK 924 INTRA-LIGAND FREE ENERGY PREDICTED BY IDOCK:   -1.08 KCAL/MOL
REMARK 927      BINDING AFFINITY PREDICTED BY RF-SCORE:    0.00 PKD
ROOT
HETATM    1 NA   UNL     1     -13.369   8.683  70.564  1.00  0.00    -0.510 Na 
HETATM    2 NA   UNL     2      -9.510   8.556  73.080  1.00  0.00    -0.203 Na 
HETATM    3 CA   UNL     3     -13.060  14.137  69.994  1.00  0.00    -0.345 Ca 
HETATM    4  O   UNL     4     -11.446   8.792  69.872  1.00  0.00    -0.057 OA 
HETATM    5  C   UNL     4     -10.467   9.490  70.266  1.00  0.00    -0.268 C  
HETATM    6  O   UNL     4     -10.094   9.511  71.489  1.00  0.00    -0.219 OA 
HETATM    7  C   UNL     4      -9.644  10.372  69.307  1.00  0.00    -0.209 C  
ENDROOT
BRANCH   7   8
HETATM    8  N   UNL     4     -10.234  10.758  67.995  1.00  0.00    -0.172 NA 
BRANCH   8   9
HETATM    9  C   UNL     4     -10.615  12.154  67.759  1.00  0.00    -0.204 C  
BRANCH   9  10
HETATM   10  C   UNL     4     -11.503  12.447  66.548  1.00  0.00    -0.371 C  
BRANCH  10  11
HETATM   11  N   UNL     4     -10.965  13.496  65.646  1.00  0.00    -0.287 NA 
BRANCH  11  12
HETATM   12  C   UNL     4      -9.661  14.076  66.100  1.00  0.00    -0.280 C  
HETATM   13  O   UNL     4      -9.077  16.392  65.723  1.00  0.00    -0.465 OA 
HETATM   14  O   UNL     4     -11.031  15.866  66.836  1.00  0.00    -0.283 OA 
HETATM   15  C   UNL     4      -9.897  15.619  66.274  1.00  0.00    -0.295 C  
ENDBRANCH  11  12
BRANCH  11  16
HETATM   16  C   UNL     4     -10.808  12.936  64.254  1.00  0.00    -0.397 C  
HETATM   17  C   UNL     4     -12.180  13.149  63.549  1.00  0.00    -0.476 C  
HETATM   18  O   UNL     4     -12.799  12.090  63.243  1.00  0.00    -0.732 OA 
HETATM   19  O   UNL     4     -12.593  14.365  63.659  1.00  0.00    -0.817 OA 
ENDBRANCH  11  16
ENDBRANCH  10  11
ENDBRANCH   9  10
ENDBRANCH   8   9
BRANCH   8  20
HETATM   20  C   UNL     4      -9.229  10.380  66.919  1.00  0.00    -0.150 C  
HETATM   21  C   UNL     4      -9.571   9.079  66.092  1.00  0.00    -0.272 C  
HETATM   22  O   UNL     4      -9.234   9.130  64.872  1.00  0.00    -0.192 OA 
HETATM   23  O   UNL     4     -10.141   8.112  66.703  1.00  0.00    -0.270 OA 
ENDBRANCH   8  20
ENDBRANCH   7   8
TORSDOF 7
ENDMDL
MODEL       65
REMARK 921   NORMALIZED FREE ENERGY PREDICTED BY IDOCK:   -5.04 KCAL/MOL
REMARK 922        TOTAL FREE ENERGY PREDICTED BY IDOCK:   -8.55 KCAL/MOL
REMARK 923 INTER-LIGAND FREE ENERGY PREDICTED BY IDOCK:   -7.43 KCAL/MOL
REMARK 924 INTRA-LIGAND FREE ENERGY PREDICTED BY IDOCK:   -1.12 KCAL/MOL
REMARK 927      BINDING AFFINITY PREDICTED BY RF-SCORE:    0.00 PKD
ROOT
HETATM    1 NA   UNL     1      -8.578  11.850  63.884  1.00  0.00    -0.381 Na 
HETATM    2 NA   UNL     2     -12.354  14.210  62.697  1.00  0.00    -0.926 Na 
HETATM    3 CA   UNL     3      -7.323  15.451  67.837  1.00  0.00    -0.101 Ca 
HETATM    4  O   UNL     4     -10.381  11.854  64.853  1.00  0.00    -0.265 OA 
HETATM    5  C   UNL     4     -11.129  12.814  65.198  1.00  0.00    -0.291 C  
HETATM    6  O   UNL     4     -11.499  13.719  64.374  1.00  0.00    -0.372 OA 
HETATM    7  C   UNL     4     -11.653  12.975  66.639  1.00  0.00    -0.359 C  
ENDROOT
BRANCH   7   8
HETATM    8  N   UNL     4     -10.957  12.260  67.745  1.00  0.00    -0.221 NA 
BRANCH   8   9
HETATM    9  C   UNL     4     -11.149  12.710  69.127  1.00  0.00    -0.195 C  
BRANCH   9  10
HETATM   10  C   UNL     4     -12.354  13.606  69.416  1.00  0.00    -0.153 C  
BRANCH  10  11
HETATM   11  N   UNL     4     -11.996  14.944  69.951  1.00  0.00    -0.311 NA 
BRANCH  11  12
HETATM   12  C   UNL     4     -11.760  15.977  68.893  1.00  0.00    -0.319 C  
HETATM   13  O   UNL     4     -10.265  17.848  69.226  1.00  0.00    -0.305 OA 
HETATM   14  O   UNL     4      -9.489  15.692  69.512  1.00  0.00    -0.265 OA 
HETATM   15  C   UNL     4     -10.347  16.597  69.184  1.00  0.00    -0.326 C  
ENDBRANCH  11  12
BRANCH  11  16
HETATM   16  C   UNL     4     -13.078  15.422  70.887  1.00  0.00    -0.468 C  
HETATM   17  C   UNL     4     -12.627  14.999  72.316  1.00  0.00    -0.340 C  
HETATM   18  O   UNL     4     -13.365  14.144  72.884  1.00  0.00    -0.573 OA 
HETATM   19  O   UNL     4     -11.416  15.366  72.566  1.00  0.00    -0.454 OA 
ENDBRANCH  11  16
ENDBRANCH  10  11
ENDBRANCH   9  10
ENDBRANCH   8   9
BRANCH   8  20
HETATM   20  C   UNL     4     -11.392  10.804  67.684  1.00  0.00    -0.252 C  
HETATM   21  C   UNL     4     -10.228   9.740  67.767  1.00  0.00    -0.208 C  
HETATM   22  O   UNL     4     -10.527   8.682  68.395  1.00  0.00    -0.213 OA 
HETATM   23  O   UNL     4      -9.113  10.026  67.208  1.00  0.00    -0.137 OA 
ENDBRANCH   8  20
ENDBRANCH   7   8
TORSDOF 7
ENDMDL
MODEL       66
REMARK 921   NORMALIZED FREE ENERGY PREDICTED BY IDOCK:   -5.02 KCAL/MOL
REMARK 922        TOTAL FREE ENERGY PREDICTED BY IDOCK:   -8.52 KCAL/MOL
REMARK 923 INTER-LIGAND FREE ENERGY PREDICTED BY IDOCK:   -7.48 KCAL/MOL
REMARK 924 INTRA-LIGAND FREE ENERGY PREDICTED BY IDOCK:   -1.04 KCAL/MOL
REMARK 927      BINDING AFFINITY PREDICTED BY RF-SCORE:    0.00 PKD
ROOT
HETATM    1 NA   UNL     1      -8.868   7.349  64.218  1.00  0.00    -0.339 Na 
HETATM    2 NA   UNL     2     -11.494   5.241  67.363  1.00  0.00    -0.301 Na 
HETATM    3 CA   UNL     3     -12.821  10.980  63.055  1.00  0.00    -0.700 Ca 
HETATM    4  O   UNL     4      -9.248   7.983  66.126  1.00  0.00    -0.186 OA 
HETATM    5  C   UNL     4     -10.337   8.070  66.764  1.00  0.00    -0.290 C  
HETATM    6  O   UNL     4     -11.150   7.088  66.862  1.00  0.00    -0.359 OA 
HETATM    7  C   UNL     4     -10.775   9.367  67.474  1.00  0.00    -0.222 C  
ENDROOT
BRANCH   7   8
HETATM    8  N   UNL     4     -10.147  10.657  67.073  1.00  0.00    -0.202 NA 
BRANCH   8   9
HETATM    9  C   UNL     4     -10.996  11.756  66.605  1.00  0.00    -0.294 C  
BRANCH   9  10
HETATM   10  C   UNL     4     -10.335  12.848  65.762  1.00  0.00    -0.284 C  
BRANCH  10  11
HETATM   11  N   UNL     4     -10.788  14.223  66.093  1.00  0.00    -0.305 NA 
BRANCH  11  12
HETATM   12  C   UNL     4      -9.764  15.041  66.817  1.00  0.00    -0.241 C  
HETATM   13  O   UNL     4     -10.177  17.326  67.492  1.00  0.00    -0.305 OA 
HETATM   14  O   UNL     4     -11.611  15.649  68.173  1.00  0.00    -0.353 OA 
HETATM   15  C   UNL     4     -10.554  16.136  67.618  1.00  0.00    -0.315 C  
ENDBRANCH  11  12
BRANCH  11  16
HETATM   16  C   UNL     4     -11.201  14.938  64.831  1.00  0.00    -0.410 C  
HETATM   17  C   UNL     4     -12.511  14.244  64.354  1.00  0.00    -0.300 C  
HETATM   18  O   UNL     4     -12.427  13.634  63.250  1.00  0.00    -0.801 OA 
HETATM   19  O   UNL     4     -13.381  14.156  65.301  1.00  0.00    -0.715 OA 
ENDBRANCH  11  16
ENDBRANCH  10  11
ENDBRANCH   9  10
ENDBRANCH   8   9
BRANCH   8  20
HETATM   20  C   UNL     4      -9.369  11.172  68.274  1.00  0.00    -0.176 C  
HETATM   21  C   UNL     4      -7.948  11.781  67.955  1.00  0.00    -0.141 C  
HETATM   22  O   UNL     4      -7.624  12.766  68.683  1.00  0.00    -0.127 OA 
HETATM   23  O   UNL     4      -7.261  11.244  67.019  1.00  0.00    -0.113 OA 
ENDBRANCH   8  20
ENDBRANCH   7   8
TORSDOF 7
ENDMDL
MODEL       67
REMARK 921   NORMALIZED FREE ENERGY PREDICTED BY IDOCK:   -5.02 KCAL/MOL
REMARK 922        TOTAL FREE ENERGY PREDICTED BY IDOCK:   -8.52 KCAL/MOL
REMARK 923 INTER-LIGAND FREE ENERGY PREDICTED BY IDOCK:   -7.38 KCAL/MOL
REMARK 924 INTRA-LIGAND FREE ENERGY PREDICTED BY IDOCK:   -1.14 KCAL/MOL
REMARK 927      BINDING AFFINITY PREDICTED BY RF-SCORE:    0.00 PKD
ROOT
HETATM    1 NA   UNL     1     -13.397  11.526  63.476  1.00  0.00    -0.478 Na 
HETATM    2 NA   UNL     2     -13.906  16.102  63.286  1.00  0.00     0.019 Na 
HETATM    3 CA   UNL     3      -7.945  11.907  62.935  1.00  0.00    -0.407 Ca 
HETATM    4  O   UNL     4     -13.050  12.865  64.984  1.00  0.00    -0.794 OA 
HETATM    5  C   UNL     4     -12.414  13.959  64.985  1.00  0.00    -0.419 C  
HETATM    6  O   UNL     4     -12.649  14.884  64.133  1.00  0.00    -0.785 OA 
HETATM    7  C   UNL     4     -11.304  14.267  66.009  1.00  0.00    -0.335 C  
ENDROOT
BRANCH   7   8
HETATM    8  N   UNL     4     -10.664  13.139  66.741  1.00  0.00    -0.266 NA 
BRANCH   8   9
HETATM    9  C   UNL     4      -9.297  13.293  67.247  1.00  0.00    -0.226 C  
BRANCH   9  10
HETATM   10  C   UNL     4      -9.085  14.240  68.430  1.00  0.00    -0.194 C  
BRANCH  10  11
HETATM   11  N   UNL     4      -8.592  15.586  68.045  1.00  0.00    -0.154 NA 
BRANCH  11  12
HETATM   12  C   UNL     4      -9.654  16.642  68.036  1.00  0.00    -0.225 C  
HETATM   13  O   UNL     4      -9.316  18.804  67.007  1.00  0.00    -0.284 OA 
HETATM   14  O   UNL     4      -9.008  16.881  65.767  1.00  0.00    -0.524 OA 
HETATM   15  C   UNL     4      -9.351  17.566  66.803  1.00  0.00    -0.265 C  
ENDBRANCH  11  12
BRANCH  11  16
HETATM   16  C   UNL     4      -7.478  16.003  68.972  1.00  0.00    -0.202 C  
HETATM   17  C   UNL     4      -6.155  15.553  68.283  1.00  0.00    -0.118 C  
HETATM   18  O   UNL     4      -5.505  14.659  68.896  1.00  0.00    -0.085 OA 
HETATM   19  O   UNL     4      -6.092  15.951  67.058  1.00  0.00    -0.328 OA 
ENDBRANCH  11  16
ENDBRANCH  10  11
ENDBRANCH   9  10
ENDBRANCH   8   9
BRANCH   8  20
HETATM   20  C   UNL     4     -11.549  12.814  67.934  1.00  0.00    -0.351 C  
HETATM   21  C   UNL     4     -11.567  11.299  68.377  1.00  0.00    -0.308 C  
HETATM   22  O   UNL     4     -11.661  11.119  69.628  1.00  0.00    -0.266 OA 
HETATM   23  O   UNL     4     -11.489  10.406  67.465  1.00  0.00    -0.386 OA 
ENDBRANCH   8  20
ENDBRANCH   7   8
TORSDOF 7
ENDMDL
MODEL       68
REMARK 921   NORMALIZED FREE ENERGY PREDICTED BY IDOCK:   -5.00 KCAL/MOL
REMARK 922        TOTAL FREE ENERGY PREDICTED BY IDOCK:   -8.49 KCAL/MOL
REMARK 923 INTER-LIGAND FREE ENERGY PREDICTED BY IDOCK:   -7.44 KCAL/MOL
REMARK 924 INTRA-LIGAND FREE ENERGY PREDICTED BY IDOCK:   -1.05 KCAL/MOL
REMARK 927      BINDING AFFINITY PREDICTED BY RF-SCORE:    0.00 PKD
ROOT
HETATM    1 NA   UNL     1      -9.021   9.898  63.507  1.00  0.00    -0.152 Na 
HETATM    2 NA   UNL     2      -9.872   6.418  66.405  1.00  0.00    -0.154 Na 
HETATM    3 CA   UNL     3     -14.002  12.064  64.325  1.00  0.00    -0.759 Ca 
HETATM    4  O   UNL     4      -8.976   9.963  65.551  1.00  0.00    -0.154 OA 
HETATM    5  C   UNL     4      -9.802   9.533  66.408  1.00  0.00    -0.253 C  
HETATM    6  O   UNL     4     -10.233   8.329  66.394  1.00  0.00    -0.253 OA 
HETATM    7  C   UNL     4     -10.357  10.422  67.538  1.00  0.00    -0.224 C  
ENDROOT
BRANCH   7   8
HETATM    8  N   UNL     4     -10.271  11.903  67.399  1.00  0.00    -0.195 NA 
BRANCH   8   9
HETATM    9  C   UNL     4     -11.486  12.711  67.540  1.00  0.00    -0.340 C  
BRANCH   9  10
HETATM   10  C   UNL     4     -12.286  13.010  66.271  1.00  0.00    -0.320 C  
BRANCH  10  11
HETATM   11  N   UNL     4     -11.768  14.162  65.490  1.00  0.00    -0.334 NA 
BRANCH  11  12
HETATM   12  C   UNL     4     -11.301  15.307  66.335  1.00  0.00    -0.161 C  
HETATM   13  O   UNL     4      -9.562  16.822  65.609  1.00  0.00    -0.527 OA 
HETATM   14  O   UNL     4     -11.433  16.506  64.294  1.00  0.00    -1.000 OA 
HETATM   15  C   UNL     4     -10.704  16.373  65.349  1.00  0.00    -0.296 C  
ENDBRANCH  11  12
BRANCH  11  16
HETATM   16  C   UNL     4     -10.642  13.705  64.597  1.00  0.00    -0.430 C  
HETATM   17  C   UNL     4     -11.300  12.822  63.496  1.00  0.00    -0.420 C  
HETATM   18  O   UNL     4     -10.965  11.603  63.510  1.00  0.00    -0.397 OA 
HETATM   19  O   UNL     4     -12.300  13.415  62.938  1.00  0.00    -0.510 OA 
ENDBRANCH  11  16
ENDBRANCH  10  11
ENDBRANCH   9  10
ENDBRANCH   8   9
BRANCH   8  20
HETATM   20  C   UNL     4      -9.281  12.398  68.442  1.00  0.00    -0.145 C  
HETATM   21  C   UNL     4      -8.526  13.737  68.084  1.00  0.00    -0.173 C  
HETATM   22  O   UNL     4      -8.298  14.492  69.075  1.00  0.00    -0.140 OA 
HETATM   23  O   UNL     4      -8.215  13.943  66.860  1.00  0.00    -0.102 OA 
ENDBRANCH   8  20
ENDBRANCH   7   8
TORSDOF 7
ENDMDL
MODEL       69
REMARK 921   NORMALIZED FREE ENERGY PREDICTED BY IDOCK:   -4.99 KCAL/MOL
REMARK 922        TOTAL FREE ENERGY PREDICTED BY IDOCK:   -8.48 KCAL/MOL
REMARK 923 INTER-LIGAND FREE ENERGY PREDICTED BY IDOCK:   -7.83 KCAL/MOL
REMARK 924 INTRA-LIGAND FREE ENERGY PREDICTED BY IDOCK:   -0.65 KCAL/MOL
REMARK 927      BINDING AFFINITY PREDICTED BY RF-SCORE:    0.00 PKD
ROOT
HETATM    1 NA   UNL     1     -12.247  13.172  71.619  1.00  0.00    -0.306 Na 
HETATM    2 NA   UNL     2     -11.011   8.733  71.623  1.00  0.00    -0.206 Na 
HETATM    3 CA   UNL     3      -7.604  14.672  69.097  1.00  0.00    -0.099 Ca 
HETATM    4  O   UNL     4     -12.340  11.869  70.044  1.00  0.00    -0.220 OA 
HETATM    5  C   UNL     4     -11.482  11.053  69.598  1.00  0.00    -0.303 C  
HETATM    6  O   UNL     4     -10.899  10.199  70.350  1.00  0.00    -0.292 OA 
HETATM    7  C   UNL     4     -11.069  11.020  68.114  1.00  0.00    -0.270 C  
ENDROOT
BRANCH   7   8
HETATM    8  N   UNL     4     -11.342  12.211  67.262  1.00  0.00    -0.311 NA 
BRANCH   8   9
HETATM    9  C   UNL     4     -10.705  13.491  67.587  1.00  0.00    -0.248 C  
BRANCH   9  10
HETATM   10  C   UNL     4     -11.575  14.748  67.523  1.00  0.00    -0.361 C  
BRANCH  10  11
HETATM   11  N   UNL     4     -10.970  15.934  68.178  1.00  0.00    -0.322 NA 
BRANCH  11  12
HETATM   12  C   UNL     4     -10.468  15.671  69.565  1.00  0.00    -0.270 C  
HETATM   13  O   UNL     4     -11.606  16.503  71.529  1.00  0.00    -0.384 OA 
HETATM   14  O   UNL     4     -12.750  15.201  70.003  1.00  0.00    -0.264 OA 
HETATM   15  C   UNL     4     -11.714  15.772  70.515  1.00  0.00    -0.377 C  
ENDBRANCH  11  12
BRANCH  11  16
HETATM   16  C   UNL     4      -9.842  16.463  67.328  1.00  0.00    -0.245 C  
HETATM   17  C   UNL     4     -10.361  17.792  66.704  1.00  0.00    -0.345 C  
HETATM   18  O   UNL     4     -10.488  17.784  65.446  1.00  0.00    -0.641 OA 
HETATM   19  O   UNL     4     -10.856  18.580  67.596  1.00  0.00    -0.412 OA 
ENDBRANCH  11  16
ENDBRANCH  10  11
ENDBRANCH   9  10
ENDBRANCH   8   9
BRANCH   8  20
HETATM   20  C   UNL     4     -10.930  11.855  65.842  1.00  0.00    -0.307 C  
HETATM   21  C   UNL     4     -11.867  12.410  64.700  1.00  0.00    -0.380 C  
HETATM   22  O   UNL     4     -11.260  12.749  63.641  1.00  0.00    -0.436 OA 
HETATM   23  O   UNL     4     -13.124  12.469  64.930  1.00  0.00    -0.833 OA 
ENDBRANCH   8  20
ENDBRANCH   7   8
TORSDOF 7
ENDMDL
MODEL       70
REMARK 921   NORMALIZED FREE ENERGY PREDICTED BY IDOCK:   -4.99 KCAL/MOL
REMARK 922        TOTAL FREE ENERGY PREDICTED BY IDOCK:   -8.47 KCAL/MOL
REMARK 923 INTER-LIGAND FREE ENERGY PREDICTED BY IDOCK:   -7.30 KCAL/MOL
REMARK 924 INTRA-LIGAND FREE ENERGY PREDICTED BY IDOCK:   -1.17 KCAL/MOL
REMARK 927      BINDING AFFINITY PREDICTED BY RF-SCORE:    0.00 PKD
ROOT
HETATM    1 NA   UNL     1     -11.362   8.276  67.417  1.00  0.00    -0.463 Na 
HETATM    2 NA   UNL     2      -6.832   8.773  66.733  1.00  0.00    -0.060 Na 
HETATM    3 CA   UNL     3     -11.532  12.606  70.793  1.00  0.00    -0.466 Ca 
HETATM    4  O   UNL     4     -10.446   9.634  66.191  1.00  0.00    -0.179 OA 
HETATM    5  C   UNL     4      -9.465  10.405  66.402  1.00  0.00    -0.169 C  
HETATM    6  O   UNL     4      -8.352   9.979  66.866  1.00  0.00    -0.124 OA 
HETATM    7  C   UNL     4      -9.529  11.919  66.121  1.00  0.00    -0.231 C  
ENDROOT
BRANCH   7   8
HETATM    8  N   UNL     4     -10.862  12.575  66.003  1.00  0.00    -0.270 NA 
BRANCH   8   9
HETATM    9  C   UNL     4     -11.287  13.532  67.029  1.00  0.00    -0.324 C  
BRANCH   9  10
HETATM   10  C   UNL     4     -10.263  13.923  68.096  1.00  0.00    -0.249 C  
BRANCH  10  11
HETATM   11  N   UNL     4      -9.826  15.340  68.021  1.00  0.00    -0.215 NA 
BRANCH  11  12
HETATM   12  C   UNL     4     -10.905  16.286  67.592  1.00  0.00    -0.293 C  
HETATM   13  O   UNL     4     -10.418  18.415  66.553  1.00  0.00    -0.384 OA 
HETATM   14  O   UNL     4      -9.583  16.469  65.632  1.00  0.00    -0.511 OA 
HETATM   15  C   UNL     4     -10.292  17.171  66.449  1.00  0.00    -0.307 C  
ENDBRANCH  11  12
BRANCH  11  16
HETATM   16  C   UNL     4      -9.280  15.774  69.358  1.00  0.00    -0.263 C  
HETATM   17  C   UNL     4      -7.729  15.740  69.219  1.00  0.00    -0.224 C  
HETATM   18  O   UNL     4      -7.141  14.888  69.945  1.00  0.00    -0.180 OA 
HETATM   19  O   UNL     4      -7.326  16.380  68.175  1.00  0.00    -0.141 OA 
ENDBRANCH  11  16
ENDBRANCH  10  11
ENDBRANCH   9  10
ENDBRANCH   8   9
BRANCH   8  20
HETATM   20  C   UNL     4     -10.888  13.308  64.670  1.00  0.00    -0.382 C  
HETATM   21  C   UNL     4     -12.247  13.224  63.872  1.00  0.00    -0.425 C  
HETATM   22  O   UNL     4     -12.545  14.275  63.230  1.00  0.00    -0.716 OA 
HETATM   23  O   UNL     4     -12.916  12.136  63.937  1.00  0.00    -0.726 OA 
ENDBRANCH   8  20
ENDBRANCH   7   8
TORSDOF 7
ENDMDL
MODEL       71
REMARK 921   NORMALIZED FREE ENERGY PREDICTED BY IDOCK:   -4.97 KCAL/MOL
REMARK 922        TOTAL FREE ENERGY PREDICTED BY IDOCK:   -8.44 KCAL/MOL
REMARK 923 INTER-LIGAND FREE ENERGY PREDICTED BY IDOCK:   -7.94 KCAL/MOL
REMARK 924 INTRA-LIGAND FREE ENERGY PREDICTED BY IDOCK:   -0.50 KCAL/MOL
REMARK 927      BINDING AFFINITY PREDICTED BY RF-SCORE:    0.00 PKD
ROOT
HETATM    1 NA   UNL     1      -8.300   9.076  65.004  1.00  0.00    -0.112 Na 
HETATM    2 NA   UNL     2     -10.686   7.189  68.466  1.00  0.00    -0.176 Na 
HETATM    3 CA   UNL     3     -12.884  10.780  62.505  1.00  0.00    -0.885 Ca 
HETATM    4  O   UNL     4      -9.146  10.054  66.590  1.00  0.00    -0.144 OA 
HETATM    5  C   UNL     4     -10.303   9.959  67.094  1.00  0.00    -0.243 C  
HETATM    6  O   UNL     4     -10.807   8.836  67.438  1.00  0.00    -0.213 OA 
HETATM    7  C   UNL     4     -11.202  11.189  67.333  1.00  0.00    -0.294 C  
ENDROOT
BRANCH   7   8
HETATM    8  N   UNL     4     -10.912  12.449  66.594  1.00  0.00    -0.257 NA 
BRANCH   8   9
HETATM    9  C   UNL     4      -9.649  13.153  66.838  1.00  0.00    -0.248 C  
BRANCH   9  10
HETATM   10  C   UNL     4      -9.655  14.272  67.882  1.00  0.00    -0.221 C  
BRANCH  10  11
HETATM   11  N   UNL     4     -10.275  15.535  67.407  1.00  0.00    -0.251 NA 
BRANCH  11  12
HETATM   12  C   UNL     4     -10.119  15.773  65.937  1.00  0.00    -0.356 C  
HETATM   13  O   UNL     4     -11.116  17.673  64.823  1.00  0.00    -0.915 OA 
HETATM   14  O   UNL     4      -9.707  18.005  66.622  1.00  0.00    -0.303 OA 
HETATM   15  C   UNL     4     -10.307  17.315  65.713  1.00  0.00    -0.234 C  
ENDBRANCH  11  12
BRANCH  11  16
HETATM   16  C   UNL     4     -11.740  15.547  67.765  1.00  0.00    -0.088 C  
HETATM   17  C   UNL     4     -11.802  15.555  69.321  1.00  0.00    -0.353 C  
HETATM   18  O   UNL     4     -12.311  14.523  69.846  1.00  0.00    -0.320 OA 
HETATM   19  O   UNL     4     -11.057  16.478  69.827  1.00  0.00    -0.337 OA 
ENDBRANCH  11  16
ENDBRANCH  10  11
ENDBRANCH   9  10
ENDBRANCH   8   9
BRANCH   8  20
HETATM   20  C   UNL     4     -10.964  12.125  65.110  1.00  0.00    -0.310 C  
HETATM   21  C   UNL     4     -12.181  12.743  64.318  1.00  0.00    -0.425 C  
HETATM   22  O   UNL     4     -11.911  13.096  63.131  1.00  0.00    -0.517 OA 
HETATM   23  O   UNL     4     -13.306  12.833  64.921  1.00  0.00    -0.736 OA 
ENDBRANCH   8  20
ENDBRANCH   7   8
TORSDOF 7
ENDMDL
MODEL       72
REMARK 921   NORMALIZED FREE ENERGY PREDICTED BY IDOCK:   -4.96 KCAL/MOL
REMARK 922        TOTAL FREE ENERGY PREDICTED BY IDOCK:   -8.44 KCAL/MOL
REMARK 923 INTER-LIGAND FREE ENERGY PREDICTED BY IDOCK:   -6.93 KCAL/MOL
REMARK 924 INTRA-LIGAND FREE ENERGY PREDICTED BY IDOCK:   -1.51 KCAL/MOL
REMARK 927      BINDING AFFINITY PREDICTED BY RF-SCORE:    0.00 PKD
ROOT
HETATM    1 NA   UNL     1      -8.167  10.785  64.804  1.00  0.00    -0.159 Na 
HETATM    2 NA   UNL     2     -12.101  11.044  62.417  1.00  0.00    -0.843 Na 
HETATM    3 CA   UNL     3      -8.272  16.155  65.949  1.00  0.00    -0.246 Ca 
HETATM    4  O   UNL     4     -10.063  10.880  65.567  1.00  0.00    -0.242 OA 
HETATM    5  C   UNL     4     -11.029  11.645  65.280  1.00  0.00    -0.268 C  
HETATM    6  O   UNL     4     -11.437  11.807  64.079  1.00  0.00    -0.366 OA 
HETATM    7  C   UNL     4     -11.793  12.447  66.353  1.00  0.00    -0.354 C  
ENDROOT
BRANCH   7   8
HETATM    8  N   UNL     4     -11.151  12.673  67.678  1.00  0.00    -0.250 NA 
BRANCH   8   9
HETATM    9  C   UNL     4     -11.082  14.033  68.222  1.00  0.00    -0.254 C  
BRANCH   9  10
HETATM   10  C   UNL     4     -10.893  15.181  67.229  1.00  0.00    -0.316 C  
BRANCH  10  11
HETATM   11  N   UNL     4     -10.054  16.292  67.745  1.00  0.00    -0.247 NA 
BRANCH  11  12
HETATM   12  C   UNL     4     -10.795  17.582  67.917  1.00  0.00    -0.252 C  
HETATM   13  O   UNL     4      -9.997  19.666  66.984  1.00  0.00    -0.342 OA 
HETATM   14  O   UNL     4     -10.326  17.841  65.608  1.00  0.00    -0.612 OA 
HETATM   15  C   UNL     4     -10.377  18.500  66.714  1.00  0.00    -0.401 C  
ENDBRANCH  11  12
BRANCH  11  16
HETATM   16  C   UNL     4      -9.432  15.891  69.059  1.00  0.00    -0.247 C  
HETATM   17  C   UNL     4      -7.923  15.647  68.763  1.00  0.00    -0.172 C  
HETATM   18  O   UNL     4      -7.529  14.455  68.913  1.00  0.00    -0.124 OA 
HETATM   19  O   UNL     4      -7.392  16.637  68.129  1.00  0.00    -0.161 OA 
ENDBRANCH  11  16
ENDBRANCH  10  11
ENDBRANCH   9  10
ENDBRANCH   8   9
BRANCH   8  20
HETATM   20  C   UNL     4     -11.898  11.823  68.693  1.00  0.00    -0.310 C  
HETATM   21  C   UNL     4     -11.020  10.777  69.485  1.00  0.00    -0.266 C  
HETATM   22  O   UNL     4     -11.370  10.604  70.690  1.00  0.00    -0.316 OA 
HETATM   23  O   UNL     4     -10.057  10.209  68.864  1.00  0.00    -0.181 OA 
ENDBRANCH   8  20
ENDBRANCH   7   8
TORSDOF 7
ENDMDL
MODEL       73
REMARK 921   NORMALIZED FREE ENERGY PREDICTED BY IDOCK:   -4.96 KCAL/MOL
REMARK 922        TOTAL FREE ENERGY PREDICTED BY IDOCK:   -8.43 KCAL/MOL
REMARK 923 INTER-LIGAND FREE ENERGY PREDICTED BY IDOCK:   -7.50 KCAL/MOL
REMARK 924 INTRA-LIGAND FREE ENERGY PREDICTED BY IDOCK:   -0.92 KCAL/MOL
REMARK 927      BINDING AFFINITY PREDICTED BY RF-SCORE:    0.00 PKD
ROOT
HETATM    1 NA   UNL     1      -9.693   8.475  70.811  1.00  0.00    -0.153 Na 
HETATM    2 NA   UNL     2     -13.900   7.425  72.372  1.00  0.00    -0.429 Na 
HETATM    3 CA   UNL     3     -11.726  10.644  66.193  1.00  0.00    -0.019 Ca 
HETATM    4  O   UNL     4     -11.043   9.755  71.664  1.00  0.00    -0.294 OA 
HETATM    5  C   UNL     4     -12.278   9.917  71.443  1.00  0.00    -0.408 C  
HETATM    6  O   UNL     4     -13.105   8.942  71.450  1.00  0.00    -0.321 OA 
HETATM    7  C   UNL     4     -12.889  11.301  71.145  1.00  0.00    -0.352 C  
ENDROOT
BRANCH   7   8
HETATM    8  N   UNL     4     -11.994  12.402  70.691  1.00  0.00    -0.233 NA 
BRANCH   8   9
HETATM    9  C   UNL     4     -11.328  12.299  69.389  1.00  0.00    -0.228 C  
BRANCH   9  10
HETATM   10  C   UNL     4     -10.981  13.603  68.669  1.00  0.00    -0.267 C  
BRANCH  10  11
HETATM   11  N   UNL     4     -11.089  13.522  67.190  1.00  0.00    -0.287 NA 
BRANCH  11  12
HETATM   12  C   UNL     4     -12.153  14.402  66.611  1.00  0.00    -0.367 C  
HETATM   13  O   UNL     4     -12.597  14.500  64.236  1.00  0.00    -0.681 OA 
HETATM   14  O   UNL     4     -12.668  12.470  65.336  1.00  0.00    -0.624 OA 
HETATM   15  C   UNL     4     -12.572  13.753  65.244  1.00  0.00    -0.473 C  
ENDBRANCH  11  12
BRANCH  11  16
HETATM   16  C   UNL     4      -9.759  13.864  66.565  1.00  0.00    -0.294 C  
HETATM   17  C   UNL     4      -8.912  12.559  66.619  1.00  0.00    -0.174 C  
HETATM   18  O   UNL     4      -7.886  12.612  67.355  1.00  0.00    -0.161 OA 
HETATM   19  O   UNL     4      -9.554  11.549  66.139  1.00  0.00    -0.211 OA 
ENDBRANCH  11  16
ENDBRANCH  10  11
ENDBRANCH   9  10
ENDBRANCH   8   9
BRANCH   8  20
HETATM   20  C   UNL     4     -12.822  13.677  70.670  1.00  0.00    -0.154 C  
HETATM   21  C   UNL     4     -13.356  14.168  72.072  1.00  0.00    -0.415 C  
HETATM   22  O   UNL     4     -13.393  15.426  72.209  1.00  0.00    -0.377 OA 
HETATM   23  O   UNL     4     -13.699  13.280  72.928  1.00  0.00    -0.580 OA 
ENDBRANCH   8  20
ENDBRANCH   7   8
TORSDOF 7
ENDMDL
MODEL       74
REMARK 921   NORMALIZED FREE ENERGY PREDICTED BY IDOCK:   -4.95 KCAL/MOL
REMARK 922        TOTAL FREE ENERGY PREDICTED BY IDOCK:   -8.42 KCAL/MOL
REMARK 923 INTER-LIGAND FREE ENERGY PREDICTED BY IDOCK:   -7.26 KCAL/MOL
REMARK 924 INTRA-LIGAND FREE ENERGY PREDICTED BY IDOCK:   -1.16 KCAL/MOL
REMARK 927      BINDING AFFINITY PREDICTED BY RF-SCORE:    0.00 PKD
ROOT
HETATM    1 NA   UNL     1      -7.761  16.960  65.656  1.00  0.00    -0.278 Na 
HETATM    2 NA   UNL     2     -10.697  20.013  67.471  1.00  0.00    -0.358 Na 
HETATM    3 CA   UNL     3      -7.315  14.254  70.414  1.00  0.00    -0.342 Ca 
HETATM    4  O   UNL     4      -9.756  16.682  66.017  1.00  0.00    -0.334 OA 
HETATM    5  C   UNL     4     -10.451  16.937  67.044  1.00  0.00    -0.281 C  
HETATM    6  O   UNL     4     -10.447  18.088  67.600  1.00  0.00    -0.379 OA 
HETATM    7  C   UNL     4     -11.358  15.883  67.709  1.00  0.00    -0.199 C  
ENDROOT
BRANCH   7   8
HETATM    8  N   UNL     4     -11.115  14.441  67.427  1.00  0.00    -0.298 NA 
BRANCH   8   9
HETATM    9  C   UNL     4     -10.737  13.545  68.524  1.00  0.00    -0.255 C  
BRANCH   9  10
HETATM   10  C   UNL     4      -9.933  12.294  68.168  1.00  0.00    -0.210 C  
BRANCH  10  11
HETATM   11  N   UNL     4     -10.528  11.031  68.674  1.00  0.00    -0.183 NA 
BRANCH  11  12
HETATM   12  C   UNL     4     -11.546  11.230  69.754  1.00  0.00    -0.333 C  
HETATM   13  O   UNL     4     -12.452   9.387  71.030  1.00  0.00    -0.297 OA 
HETATM   14  O   UNL     4     -10.168   9.715  70.950  1.00  0.00    -0.295 OA 
HETATM   15  C   UNL     4     -11.404  10.008  70.730  1.00  0.00    -0.360 C  
ENDBRANCH  11  12
BRANCH  11  16
HETATM   16  C   UNL     4     -11.151  10.270  67.531  1.00  0.00    -0.232 C  
HETATM   17  C   UNL     4     -10.014   9.394  66.927  1.00  0.00    -0.229 C  
HETATM   18  O   UNL     4      -9.679   9.687  65.744  1.00  0.00    -0.244 OA 
HETATM   19  O   UNL     4      -9.400   8.713  67.833  1.00  0.00    -0.141 OA 
ENDBRANCH  11  16
ENDBRANCH  10  11
ENDBRANCH   9  10
ENDBRANCH   8   9
BRANCH   8  20
HETATM   20  C   UNL     4     -12.388  13.881  66.811  1.00  0.00    -0.330 C  
HETATM   21  C   UNL     4     -12.327  13.591  65.261  1.00  0.00    -0.467 C  
HETATM   22  O   UNL     4     -12.982  12.572  64.890  1.00  0.00    -0.821 OA 
HETATM   23  O   UNL     4     -11.642  14.385  64.528  1.00  0.00    -0.393 OA 
ENDBRANCH   8  20
ENDBRANCH   7   8
TORSDOF 7
ENDMDL
MODEL       75
REMARK 921   NORMALIZED FREE ENERGY PREDICTED BY IDOCK:   -4.93 KCAL/MOL
REMARK 922        TOTAL FREE ENERGY PREDICTED BY IDOCK:   -8.40 KCAL/MOL
REMARK 923 INTER-LIGAND FREE ENERGY PREDICTED BY IDOCK:   -7.14 KCAL/MOL
REMARK 924 INTRA-LIGAND FREE ENERGY PREDICTED BY IDOCK:   -1.25 KCAL/MOL
REMARK 927      BINDING AFFINITY PREDICTED BY RF-SCORE:    0.00 PKD
ROOT
HETATM    1 NA   UNL     1     -13.047  14.024  68.201  1.00  0.00    -0.441 Na 
HETATM    2 NA   UNL     2     -12.565  10.822  71.481  1.00  0.00    -0.276 Na 
HETATM    3 CA   UNL     3      -7.829  15.651  68.738  1.00  0.00    -0.122 Ca 
HETATM    4  O   UNL     4     -12.153  12.193  68.009  1.00  0.00    -0.478 OA 
HETATM    5  C   UNL     4     -11.303  11.610  68.743  1.00  0.00    -0.264 C  
HETATM    6  O   UNL     4     -11.476  11.464  70.002  1.00  0.00    -0.288 OA 
HETATM    7  C   UNL     4      -9.989  11.031  68.183  1.00  0.00    -0.177 C  
ENDROOT
BRANCH   7   8
HETATM    8  N   UNL     4      -9.492  11.513  66.864  1.00  0.00    -0.179 NA 
BRANCH   8   9
HETATM    9  C   UNL     4      -9.256  12.945  66.663  1.00  0.00    -0.221 C  
BRANCH   9  10
HETATM   10  C   UNL     4      -9.954  13.616  65.478  1.00  0.00    -0.224 C  
BRANCH  10  11
HETATM   11  N   UNL     4     -10.661  14.874  65.828  1.00  0.00    -0.314 NA 
BRANCH  11  12
HETATM   12  C   UNL     4      -9.768  15.934  66.395  1.00  0.00    -0.287 C  
HETATM   13  O   UNL     4     -10.638  17.935  67.437  1.00  0.00    -0.386 OA 
HETATM   14  O   UNL     4     -11.292  15.859  68.209  1.00  0.00    -0.350 OA 
HETATM   15  C   UNL     4     -10.605  16.682  67.492  1.00  0.00    -0.311 C  
ENDBRANCH  11  12
BRANCH  11  16
HETATM   16  C   UNL     4     -11.371  15.413  64.611  1.00  0.00    -0.355 C  
HETATM   17  C   UNL     4     -12.528  14.414  64.312  1.00  0.00    -0.272 C  
HETATM   18  O   UNL     4     -12.429  13.786  63.220  1.00  0.00    -0.819 OA 
HETATM   19  O   UNL     4     -13.239  14.175  65.361  1.00  0.00    -0.741 OA 
ENDBRANCH  11  16
ENDBRANCH  10  11
ENDBRANCH   9  10
ENDBRANCH   8   9
BRANCH   8  20
HETATM   20  C   UNL     4      -8.178  10.799  66.588  1.00  0.00    -0.140 C  
HETATM   21  C   UNL     4      -8.154   9.886  65.301  1.00  0.00    -0.139 C  
HETATM   22  O   UNL     4      -7.047   9.874  64.686  1.00  0.00    -0.125 OA 
HETATM   23  O   UNL     4      -9.221   9.251  64.996  1.00  0.00    -0.235 OA 
ENDBRANCH   8  20
ENDBRANCH   7   8
TORSDOF 7
ENDMDL
MODEL       76
REMARK 921   NORMALIZED FREE ENERGY PREDICTED BY IDOCK:   -4.93 KCAL/MOL
REMARK 922        TOTAL FREE ENERGY PREDICTED BY IDOCK:   -8.39 KCAL/MOL
REMARK 923 INTER-LIGAND FREE ENERGY PREDICTED BY IDOCK:   -7.16 KCAL/MOL
REMARK 924 INTRA-LIGAND FREE ENERGY PREDICTED BY IDOCK:   -1.23 KCAL/MOL
REMARK 927      BINDING AFFINITY PREDICTED BY RF-SCORE:    0.00 PKD
ROOT
HETATM    1 NA   UNL     1      -7.329  17.598  67.216  1.00  0.00    -0.160 Na 
HETATM    2 NA   UNL     2     -10.574  19.362  69.971  1.00  0.00    -0.580 Na 
HETATM    3 CA   UNL     3      -7.823  12.620  69.482  1.00  0.00    -0.315 Ca 
HETATM    4  O   UNL     4      -9.355  17.391  67.018  1.00  0.00    -0.248 OA 
HETATM    5  C   UNL     4     -10.240  17.086  67.870  1.00  0.00    -0.317 C  
HETATM    6  O   UNL     4     -10.349  17.699  68.986  1.00  0.00    -0.360 OA 
HETATM    7  C   UNL     4     -11.256  15.952  67.634  1.00  0.00    -0.219 C  
ENDROOT
BRANCH   7   8
HETATM    8  N   UNL     4     -10.958  14.918  66.604  1.00  0.00    -0.321 NA 
BRANCH   8   9
HETATM    9  C   UNL     4      -9.821  14.014  66.799  1.00  0.00    -0.273 C  
BRANCH   9  10
HETATM   10  C   UNL     4      -9.906  13.012  67.952  1.00  0.00    -0.224 C  
BRANCH  10  11
HETATM   11  N   UNL     4      -9.551  11.622  67.571  1.00  0.00    -0.170 NA 
BRANCH  11  12
HETATM   12  C   UNL     4     -10.728  10.779  67.188  1.00  0.00    -0.272 C  
HETATM   13  O   UNL     4     -10.653   8.362  67.229  1.00  0.00    -0.302 OA 
HETATM   14  O   UNL     4     -10.137   9.560  69.135  1.00  0.00    -0.180 OA 
HETATM   15  C   UNL     4     -10.547   9.403  67.923  1.00  0.00    -0.237 C  
ENDBRANCH  11  12
BRANCH  11  16
HETATM   16  C   UNL     4      -8.559  11.645  66.434  1.00  0.00    -0.143 C  
HETATM   17  C   UNL     4      -7.153  11.515  67.090  1.00  0.00    -0.140 C  
HETATM   18  O   UNL     4      -6.400  12.522  66.956  1.00  0.00    -0.190 OA 
HETATM   19  O   UNL     4      -7.095  10.523  67.911  1.00  0.00    -0.081 OA 
ENDBRANCH  11  16
ENDBRANCH  10  11
ENDBRANCH   9  10
ENDBRANCH   8   9
BRANCH   8  20
HETATM   20  C   UNL     4     -12.200  14.051  66.462  1.00  0.00    -0.451 C  
HETATM   21  C   UNL     4     -12.653  13.746  64.981  1.00  0.00    -0.389 C  
HETATM   22  O   UNL     4     -13.142  12.590  64.810  1.00  0.00    -0.853 OA 
HETATM   23  O   UNL     4     -12.496  14.664  64.104  1.00  0.00    -0.736 OA 
ENDBRANCH   8  20
ENDBRANCH   7   8
TORSDOF 7
ENDMDL
MODEL       77
REMARK 921   NORMALIZED FREE ENERGY PREDICTED BY IDOCK:   -4.93 KCAL/MOL
REMARK 922        TOTAL FREE ENERGY PREDICTED BY IDOCK:   -8.38 KCAL/MOL
REMARK 923 INTER-LIGAND FREE ENERGY PREDICTED BY IDOCK:   -7.03 KCAL/MOL
REMARK 924 INTRA-LIGAND FREE ENERGY PREDICTED BY IDOCK:   -1.35 KCAL/MOL
REMARK 927      BINDING AFFINITY PREDICTED BY RF-SCORE:    0.00 PKD
ROOT
HETATM    1 NA   UNL     1      -9.441  17.227  69.101  1.00  0.00    -0.236 Na 
HETATM    2 NA   UNL     2     -13.501  16.282  71.066  1.00  0.00    -0.546 Na 
HETATM    3 CA   UNL     3      -7.755  12.024  69.609  1.00  0.00    -0.311 Ca 
HETATM    4  O   UNL     4     -11.049  16.315  68.223  1.00  0.00    -0.341 OA 
HETATM    5  C   UNL     4     -11.785  15.370  68.631  1.00  0.00    -0.354 C  
HETATM    6  O   UNL     4     -12.345  15.391  69.780  1.00  0.00    -0.324 OA 
HETATM    7  C   UNL     4     -12.066  14.116  67.779  1.00  0.00    -0.286 C  
ENDROOT
BRANCH   7   8
HETATM    8  N   UNL     4     -11.150  13.790  66.650  1.00  0.00    -0.307 NA 
BRANCH   8   9
HETATM    9  C   UNL     4      -9.955  12.979  66.904  1.00  0.00    -0.243 C  
BRANCH   9  10
HETATM   10  C   UNL     4      -9.901  11.587  66.271  1.00  0.00    -0.217 C  
BRANCH  10  11
HETATM   11  N   UNL     4      -9.937  10.476  67.255  1.00  0.00    -0.179 NA 
BRANCH  11  12
HETATM   12  C   UNL     4     -10.987  10.636  68.312  1.00  0.00    -0.263 C  
HETATM   13  O   UNL     4     -11.134   9.157  70.219  1.00  0.00    -0.240 OA 
HETATM   14  O   UNL     4      -9.164  10.280  69.786  1.00  0.00    -0.180 OA 
HETATM   15  C   UNL     4     -10.407   9.983  69.617  1.00  0.00    -0.247 C  
ENDBRANCH  11  12
BRANCH  11  16
HETATM   16  C   UNL     4     -10.145   9.167  66.535  1.00  0.00    -0.287 C  
HETATM   17  C   UNL     4      -8.733   8.708  66.065  1.00  0.00    -0.170 C  
HETATM   18  O   UNL     4      -8.568   8.667  64.812  1.00  0.00    -0.172 OA 
HETATM   19  O   UNL     4      -7.875   8.730  67.028  1.00  0.00    -0.094 OA 
ENDBRANCH  11  16
ENDBRANCH  10  11
ENDBRANCH   9  10
ENDBRANCH   8   9
BRANCH   8  20
HETATM   20  C   UNL     4     -11.971  13.061  65.598  1.00  0.00    -0.429 C  
HETATM   21  C   UNL     4     -12.159  13.825  64.230  1.00  0.00    -0.440 C  
HETATM   22  O   UNL     4     -12.174  13.076  63.208  1.00  0.00    -0.631 OA 
HETATM   23  O   UNL     4     -12.279  15.098  64.264  1.00  0.00    -0.536 OA 
ENDBRANCH   8  20
ENDBRANCH   7   8
TORSDOF 7
ENDMDL
MODEL       78
REMARK 921   NORMALIZED FREE ENERGY PREDICTED BY IDOCK:   -4.90 KCAL/MOL
REMARK 922        TOTAL FREE ENERGY PREDICTED BY IDOCK:   -8.35 KCAL/MOL
REMARK 923 INTER-LIGAND FREE ENERGY PREDICTED BY IDOCK:   -7.02 KCAL/MOL
REMARK 924 INTRA-LIGAND FREE ENERGY PREDICTED BY IDOCK:   -1.34 KCAL/MOL
REMARK 927      BINDING AFFINITY PREDICTED BY RF-SCORE:    0.00 PKD
ROOT
HETATM    1 NA   UNL     1      -9.436  18.233  68.465  1.00  0.00    -0.253 Na 
HETATM    2 NA   UNL     2     -12.564  16.651  71.456  1.00  0.00    -0.574 Na 
HETATM    3 CA   UNL     3      -6.858  13.386  68.287  1.00  0.00    -0.071 Ca 
HETATM    4  O   UNL     4     -11.058  17.059  68.041  1.00  0.00    -0.324 OA 
HETATM    5  C   UNL     4     -11.485  16.009  68.605  1.00  0.00    -0.377 C  
HETATM    6  O   UNL     4     -11.692  15.949  69.865  1.00  0.00    -0.333 OA 
HETATM    7  C   UNL     4     -11.790  14.717  67.821  1.00  0.00    -0.294 C  
ENDROOT
BRANCH   7   8
HETATM    8  N   UNL     4     -11.191  14.535  66.469  1.00  0.00    -0.337 NA 
BRANCH   8   9
HETATM    9  C   UNL     4     -10.044  13.637  66.305  1.00  0.00    -0.299 C  
BRANCH   9  10
HETATM   10  C   UNL     4     -10.023  12.360  67.146  1.00  0.00    -0.207 C  
BRANCH  10  11
HETATM   11  N   UNL     4      -9.214  11.263  66.557  1.00  0.00    -0.182 NA 
BRANCH  11  12
HETATM   12  C   UNL     4      -8.465  10.450  67.568  1.00  0.00    -0.115 C  
HETATM   13  O   UNL     4      -6.319   9.446  67.084  1.00  0.00    -0.064 OA 
HETATM   14  O   UNL     4      -6.613  11.720  66.807  1.00  0.00    -0.132 OA 
HETATM   15  C   UNL     4      -6.949  10.528  67.166  1.00  0.00    -0.089 C  
ENDBRANCH  11  12
BRANCH  11  16
HETATM   16  C   UNL     4     -10.105  10.356  65.744  1.00  0.00    -0.262 C  
HETATM   17  C   UNL     4      -9.834  10.714  64.253  1.00  0.00    -0.330 C  
HETATM   18  O   UNL     4     -10.815  11.217  63.633  1.00  0.00    -0.367 OA 
HETATM   19  O   UNL     4      -8.574  10.714  63.979  1.00  0.00    -0.168 OA 
ENDBRANCH  11  16
ENDBRANCH  10  11
ENDBRANCH   9  10
ENDBRANCH   8   9
BRANCH   8  20
HETATM   20  C   UNL     4     -12.293  14.028  65.552  1.00  0.00    -0.483 C  
HETATM   21  C   UNL     4     -12.376  14.722  64.137  1.00  0.00    -0.231 C  
HETATM   22  O   UNL     4     -12.716  13.949  63.192  1.00  0.00    -0.718 OA 
HETATM   23  O   UNL     4     -12.103  15.969  64.063  1.00  0.00    -0.810 OA 
ENDBRANCH   8  20
ENDBRANCH   7   8
TORSDOF 7
ENDMDL
MODEL       79
REMARK 921   NORMALIZED FREE ENERGY PREDICTED BY IDOCK:   -4.90 KCAL/MOL
REMARK 922        TOTAL FREE ENERGY PREDICTED BY IDOCK:   -8.35 KCAL/MOL
REMARK 923 INTER-LIGAND FREE ENERGY PREDICTED BY IDOCK:   -7.29 KCAL/MOL
REMARK 924 INTRA-LIGAND FREE ENERGY PREDICTED BY IDOCK:   -1.06 KCAL/MOL
REMARK 927      BINDING AFFINITY PREDICTED BY RF-SCORE:    0.00 PKD
ROOT
HETATM    1 NA   UNL     1     -13.428  11.310  63.969  1.00  0.00    -0.216 Na 
HETATM    2 NA   UNL     2      -8.981  12.380  63.404  1.00  0.00    -0.499 Na 
HETATM    3 CA   UNL     3     -12.188   6.827  66.890  1.00  0.00    -0.683 Ca 
HETATM    4  O   UNL     4     -12.192  12.193  65.341  1.00  0.00    -0.515 OA 
HETATM    5  C   UNL     4     -11.020  11.890  65.709  1.00  0.00    -0.311 C  
HETATM    6  O   UNL     4     -10.068  11.713  64.873  1.00  0.00    -0.241 OA 
HETATM    7  C   UNL     4     -10.641  11.709  67.192  1.00  0.00    -0.232 C  
ENDROOT
BRANCH   7   8
HETATM    8  N   UNL     4     -11.721  11.464  68.188  1.00  0.00    -0.538 NA 
BRANCH   8   9
HETATM    9  C   UNL     4     -11.850  10.138  68.800  1.00  0.00     0.301 C  
BRANCH   9  10
HETATM   10  C   UNL     4     -10.698   9.654  69.682  1.00  0.00    -0.240 C  
BRANCH  10  11
HETATM   11  N   UNL     4     -10.979   8.384  70.398  1.00  0.00    -0.240 NA 
BRANCH  11  12
HETATM   12  C   UNL     4      -9.858   7.393  70.337  1.00  0.00    -0.183 C  
HETATM   13  O   UNL     4     -10.220   5.016  70.602  1.00  0.00    -0.238 OA 
HETATM   14  O   UNL     4     -11.374   6.180  68.975  1.00  0.00    -0.390 OA 
HETATM   15  C   UNL     4     -10.498   6.024  69.908  1.00  0.00    -0.249 C  
ENDBRANCH  11  12
BRANCH  11  16
HETATM   16  C   UNL     4     -11.311   8.677  71.840  1.00  0.00    -0.347 C  
HETATM   17  C   UNL     4     -12.865   8.648  71.936  1.00  0.00    -0.369 C  
HETATM   18  O   UNL     4     -13.409   9.752  72.225  1.00  0.00    -0.443 OA 
HETATM   19  O   UNL     4     -13.359   7.576  71.416  1.00  0.00    -0.351 OA 
ENDBRANCH  11  16
ENDBRANCH  10  11
ENDBRANCH   9  10
ENDBRANCH   8   9
BRANCH   8  20
HETATM   20  C   UNL     4     -11.528  12.462  69.318  1.00  0.00    -0.288 C  
HETATM   21  C   UNL     4     -12.161  13.889  69.084  1.00  0.00    -0.338 C  
HETATM   22  O   UNL     4     -12.629  14.434  70.128  1.00  0.00    -0.345 OA 
HETATM   23  O   UNL     4     -12.148  14.364  67.897  1.00  0.00    -0.334 OA 
ENDBRANCH   8  20
ENDBRANCH   7   8
TORSDOF 7
ENDMDL
MODEL       80
REMARK 921   NORMALIZED FREE ENERGY PREDICTED BY IDOCK:   -4.87 KCAL/MOL
REMARK 922        TOTAL FREE ENERGY PREDICTED BY IDOCK:   -8.30 KCAL/MOL
REMARK 923 INTER-LIGAND FREE ENERGY PREDICTED BY IDOCK:   -7.45 KCAL/MOL
REMARK 924 INTRA-LIGAND FREE ENERGY PREDICTED BY IDOCK:   -0.85 KCAL/MOL
REMARK 927      BINDING AFFINITY PREDICTED BY RF-SCORE:    0.00 PKD
ROOT
HETATM    1 NA   UNL     1     -14.115  14.416  65.314  1.00  0.00    -0.751 Na 
HETATM    2 NA   UNL     2     -12.173  11.086  62.789  1.00  0.00    -0.780 Na 
HETATM    3 CA   UNL     3     -12.726  11.940  70.016  1.00  0.00    -0.248 Ca 
HETATM    4  O   UNL     4     -12.120  14.168  64.931  1.00  0.00    -0.387 OA 
HETATM    5  C   UNL     4     -11.390  13.137  64.999  1.00  0.00    -0.299 C  
HETATM    6  O   UNL     4     -11.701  12.043  64.415  1.00  0.00    -0.345 OA 
HETATM    7  C   UNL     4     -10.067  13.113  65.790  1.00  0.00    -0.285 C  
ENDROOT
BRANCH   7   8
HETATM    8  N   UNL     4      -9.831  14.149  66.833  1.00  0.00    -0.258 NA 
BRANCH   8   9
HETATM    9  C   UNL     4     -10.369  13.949  68.182  1.00  0.00    -0.247 C  
BRANCH   9  10
HETATM   10  C   UNL     4     -10.014  14.991  69.245  1.00  0.00    -0.215 C  
BRANCH  10  11
HETATM   11  N   UNL     4     -10.904  16.179  69.244  1.00  0.00    -0.286 NA 
BRANCH  11  12
HETATM   12  C   UNL     4     -11.006  16.860  67.914  1.00  0.00    -0.251 C  
HETATM   13  O   UNL     4     -11.122  19.266  67.701  1.00  0.00    -0.377 OA 
HETATM   14  O   UNL     4      -9.359  18.297  68.834  1.00  0.00    -0.278 OA 
HETATM   15  C   UNL     4     -10.425  18.306  68.109  1.00  0.00    -0.338 C  
ENDBRANCH  11  12
BRANCH  11  16
HETATM   16  C   UNL     4     -12.281  15.782  69.712  1.00  0.00    -0.216 C  
HETATM   17  C   UNL     4     -12.121  15.347  71.199  1.00  0.00    -0.363 C  
HETATM   18  O   UNL     4     -12.358  14.127  71.432  1.00  0.00    -0.342 OA 
HETATM   19  O   UNL     4     -11.488  16.230  71.892  1.00  0.00    -0.387 OA 
ENDBRANCH  11  16
ENDBRANCH  10  11
ENDBRANCH   9  10
ENDBRANCH   8   9
BRANCH   8  20
HETATM   20  C   UNL     4      -8.325  14.316  66.972  1.00  0.00    -0.131 C  
HETATM   21  C   UNL     4      -7.774  15.773  66.717  1.00  0.00    -0.181 C  
HETATM   22  O   UNL     4      -6.793  16.099  67.448  1.00  0.00    -0.148 OA 
HETATM   23  O   UNL     4      -8.345  16.483  65.819  1.00  0.00    -0.337 OA 
ENDBRANCH   8  20
ENDBRANCH   7   8
TORSDOF 7
ENDMDL
MODEL       81
REMARK 921   NORMALIZED FREE ENERGY PREDICTED BY IDOCK:   -4.87 KCAL/MOL
REMARK 922        TOTAL FREE ENERGY PREDICTED BY IDOCK:   -8.30 KCAL/MOL
REMARK 923 INTER-LIGAND FREE ENERGY PREDICTED BY IDOCK:   -7.25 KCAL/MOL
REMARK 924 INTRA-LIGAND FREE ENERGY PREDICTED BY IDOCK:   -1.05 KCAL/MOL
REMARK 927      BINDING AFFINITY PREDICTED BY RF-SCORE:    0.00 PKD
ROOT
HETATM    1 NA   UNL     1     -11.502  19.409  67.329  1.00  0.00    -0.455 Na 
HETATM    2 NA   UNL     2      -7.683  21.153  65.428  1.00  0.00    -0.460 Na 
HETATM    3 CA   UNL     3     -11.969  15.607  63.393  1.00  0.00    -0.839 Ca 
HETATM    4  O   UNL     4      -9.609  18.640  67.445  1.00  0.00    -0.290 OA 
HETATM    5  C   UNL     4      -8.742  18.444  66.545  1.00  0.00    -0.278 C  
HETATM    6  O   UNL     4      -8.385  19.364  65.732  1.00  0.00    -0.430 OA 
HETATM    7  C   UNL     4      -8.046  17.082  66.351  1.00  0.00    -0.300 C  
ENDROOT
BRANCH   7   8
HETATM    8  N   UNL     4      -8.676  15.862  66.927  1.00  0.00    -0.219 NA 
BRANCH   8   9
HETATM    9  C   UNL     4      -9.463  14.979  66.060  1.00  0.00    -0.302 C  
BRANCH   9  10
HETATM   10  C   UNL     4     -10.964  14.876  66.336  1.00  0.00    -0.336 C  
BRANCH  10  11
HETATM   11  N   UNL     4     -11.302  14.681  67.768  1.00  0.00    -0.308 NA 
BRANCH  11  12
HETATM   12  C   UNL     4     -11.908  15.888  68.417  1.00  0.00    -0.121 C  
HETATM   13  O   UNL     4     -12.822  15.828  70.655  1.00  0.00    -0.438 OA 
HETATM   14  O   UNL     4     -10.638  15.176  70.289  1.00  0.00    -0.247 OA 
HETATM   15  C   UNL     4     -11.785  15.667  69.967  1.00  0.00    -0.357 C  
ENDBRANCH  11  12
BRANCH  11  16
HETATM   16  C   UNL     4     -12.240  13.509  67.914  1.00  0.00    -0.133 C  
HETATM   17  C   UNL     4     -11.349  12.234  67.827  1.00  0.00    -0.301 C  
HETATM   18  O   UNL     4     -11.563  11.495  66.825  1.00  0.00    -0.492 OA 
HETATM   19  O   UNL     4     -10.342  12.296  68.630  1.00  0.00    -0.225 OA 
ENDBRANCH  11  16
ENDBRANCH  10  11
ENDBRANCH   9  10
ENDBRANCH   8   9
BRANCH   8  20
HETATM   20  C   UNL     4      -7.562  15.020  67.529  1.00  0.00    -0.192 C  
HETATM   21  C   UNL     4      -7.165  15.374  69.015  1.00  0.00    -0.153 C  
HETATM   22  O   UNL     4      -6.836  14.377  69.723  1.00  0.00    -0.144 OA 
HETATM   23  O   UNL     4      -7.207  16.602  69.371  1.00  0.00    -0.231 OA 
ENDBRANCH   8  20
ENDBRANCH   7   8
TORSDOF 7
ENDMDL
MODEL       82
REMARK 921   NORMALIZED FREE ENERGY PREDICTED BY IDOCK:   -4.84 KCAL/MOL
REMARK 922        TOTAL FREE ENERGY PREDICTED BY IDOCK:   -8.26 KCAL/MOL
REMARK 923 INTER-LIGAND FREE ENERGY PREDICTED BY IDOCK:   -7.91 KCAL/MOL
REMARK 924 INTRA-LIGAND FREE ENERGY PREDICTED BY IDOCK:   -0.35 KCAL/MOL
REMARK 927      BINDING AFFINITY PREDICTED BY RF-SCORE:    0.00 PKD
ROOT
HETATM    1 NA   UNL     1     -11.522  20.112  66.781  1.00  0.00    -0.404 Na 
HETATM    2 NA   UNL     2      -7.327  21.264  65.262  1.00  0.00    -0.469 Na 
HETATM    3 CA   UNL     3     -11.800  15.817  63.368  1.00  0.00    -0.842 Ca 
HETATM    4  O   UNL     4      -9.746  19.227  67.285  1.00  0.00    -0.312 OA 
HETATM    5  C   UNL     4      -8.785  18.837  66.560  1.00  0.00    -0.312 C  
HETATM    6  O   UNL     4      -8.232  19.598  65.694  1.00  0.00    -0.398 OA 
HETATM    7  C   UNL     4      -8.203  17.413  66.659  1.00  0.00    -0.256 C  
ENDROOT
BRANCH   7   8
HETATM    8  N   UNL     4      -9.021  16.341  67.293  1.00  0.00    -0.193 NA 
BRANCH   8   9
HETATM    9  C   UNL     4      -9.302  15.112  66.544  1.00  0.00    -0.280 C  
BRANCH   9  10
HETATM   10  C   UNL     4     -10.759  14.654  66.463  1.00  0.00    -0.312 C  
BRANCH  10  11
HETATM   11  N   UNL     4     -10.921  13.210  66.157  1.00  0.00    -0.281 NA 
BRANCH  11  12
HETATM   12  C   UNL     4     -10.627  12.856  64.732  1.00  0.00    -0.342 C  
HETATM   13  O   UNL     4     -12.258  11.786  63.303  1.00  0.00    -0.489 OA 
HETATM   14  O   UNL     4     -12.776  13.780  64.347  1.00  0.00    -0.649 OA 
HETATM   15  C   UNL     4     -12.010  12.806  63.991  1.00  0.00    -0.447 C  
ENDBRANCH  11  12
BRANCH  11  16
HETATM   16  C   UNL     4     -10.039  12.396  67.070  1.00  0.00    -0.214 C  
HETATM   17  C   UNL     4     -10.991  11.735  68.109  1.00  0.00    -0.228 C  
HETATM   18  O   UNL     4     -10.833  12.115  69.304  1.00  0.00    -0.169 OA 
HETATM   19  O   UNL     4     -11.979  11.131  67.540  1.00  0.00    -0.580 OA 
ENDBRANCH  11  16
ENDBRANCH  10  11
ENDBRANCH   9  10
ENDBRANCH   8   9
BRANCH   8  20
HETATM   20  C   UNL     4      -8.313  15.932  68.575  1.00  0.00    -0.182 C  
HETATM   21  C   UNL     4      -6.739  15.855  68.492  1.00  0.00    -0.123 C  
HETATM   22  O   UNL     4      -6.139  16.213  69.548  1.00  0.00    -0.148 OA 
HETATM   23  O   UNL     4      -6.215  15.448  67.398  1.00  0.00    -0.281 OA 
ENDBRANCH   8  20
ENDBRANCH   7   8
TORSDOF 7
ENDMDL
MODEL       83
REMARK 921   NORMALIZED FREE ENERGY PREDICTED BY IDOCK:   -4.84 KCAL/MOL
REMARK 922        TOTAL FREE ENERGY PREDICTED BY IDOCK:   -8.26 KCAL/MOL
REMARK 923 INTER-LIGAND FREE ENERGY PREDICTED BY IDOCK:   -7.28 KCAL/MOL
REMARK 924 INTRA-LIGAND FREE ENERGY PREDICTED BY IDOCK:   -0.98 KCAL/MOL
REMARK 927      BINDING AFFINITY PREDICTED BY RF-SCORE:    0.00 PKD
ROOT
HETATM    1 NA   UNL     1      -8.934  12.710  63.010  1.00  0.00    -0.352 Na 
HETATM    2 NA   UNL     2     -13.122  10.910  62.332  1.00  0.00    -0.858 Na 
HETATM    3 CA   UNL     3     -11.036  17.581  64.433  1.00  0.00    -0.321 Ca 
HETATM    4  O   UNL     4     -10.237  12.054  64.445  1.00  0.00    -0.278 OA 
HETATM    5  C   UNL     4     -11.474  12.273  64.597  1.00  0.00    -0.336 C  
HETATM    6  O   UNL     4     -12.319  12.088  63.656  1.00  0.00    -0.519 OA 
HETATM    7  C   UNL     4     -12.064  12.783  65.927  1.00  0.00    -0.426 C  
ENDROOT
BRANCH   7   8
HETATM    8  N   UNL     4     -11.159  13.432  66.916  1.00  0.00    -0.287 NA 
BRANCH   8   9
HETATM    9  C   UNL     4     -10.584  14.747  66.613  1.00  0.00    -0.299 C  
BRANCH   9  10
HETATM   10  C   UNL     4      -9.092  14.804  66.283  1.00  0.00    -0.196 C  
BRANCH  10  11
HETATM   11  N   UNL     4      -8.332  15.786  67.097  1.00  0.00    -0.183 NA 
BRANCH  11  12
HETATM   12  C   UNL     4      -6.985  15.298  67.534  1.00  0.00    -0.196 C  
HETATM   13  O   UNL     4      -6.139  15.671  69.768  1.00  0.00    -0.144 OA 
HETATM   14  O   UNL     4      -8.169  14.611  69.470  1.00  0.00    -0.019 OA 
HETATM   15  C   UNL     4      -7.054  15.139  69.095  1.00  0.00    -0.154 C  
ENDBRANCH  11  12
BRANCH  11  16
HETATM   16  C   UNL     4      -8.173  17.072  66.325  1.00  0.00    -0.287 C  
HETATM   17  C   UNL     4      -9.100  18.109  67.024  1.00  0.00    -0.263 C  
HETATM   18  O   UNL     4     -10.068  18.526  66.326  1.00  0.00    -0.372 OA 
HETATM   19  O   UNL     4      -8.900  18.150  68.298  1.00  0.00    -0.269 OA 
ENDBRANCH  11  16
ENDBRANCH  10  11
ENDBRANCH   9  10
ENDBRANCH   8   9
BRANCH   8  20
HETATM   20  C   UNL     4     -11.936  13.573  68.216  1.00  0.00    -0.342 C  
HETATM   21  C   UNL     4     -12.014  12.273  69.109  1.00  0.00    -0.249 C  
HETATM   22  O   UNL     4     -11.990  12.491  70.356  1.00  0.00    -0.340 OA 
HETATM   23  O   UNL     4     -12.093  11.142  68.517  1.00  0.00    -0.586 OA 
ENDBRANCH   8  20
ENDBRANCH   7   8
TORSDOF 7
ENDMDL
MODEL       84
REMARK 921   NORMALIZED FREE ENERGY PREDICTED BY IDOCK:   -4.82 KCAL/MOL
REMARK 922        TOTAL FREE ENERGY PREDICTED BY IDOCK:   -8.24 KCAL/MOL
REMARK 923 INTER-LIGAND FREE ENERGY PREDICTED BY IDOCK:   -6.98 KCAL/MOL
REMARK 924 INTRA-LIGAND FREE ENERGY PREDICTED BY IDOCK:   -1.26 KCAL/MOL
REMARK 927      BINDING AFFINITY PREDICTED BY RF-SCORE:    0.00 PKD
ROOT
HETATM    1 NA   UNL     1     -12.917   8.282  70.535  1.00  0.00    -0.503 Na 
HETATM    2 NA   UNL     2      -8.763   7.898  72.493  1.00  0.00    -0.099 Na 
HETATM    3 CA   UNL     3     -12.893  13.747  71.081  1.00  0.00    -0.276 Ca 
HETATM    4  O   UNL     4     -11.105   8.652  69.657  1.00  0.00    -0.154 OA 
HETATM    5  C   UNL     4     -10.111   9.317  70.069  1.00  0.00    -0.212 C  
HETATM    6  O   UNL     4      -9.584   9.115  71.216  1.00  0.00    -0.275 OA 
HETATM    7  C   UNL     4      -9.453  10.426  69.224  1.00  0.00    -0.198 C  
ENDROOT
BRANCH   7   8
HETATM    8  N   UNL     4     -10.223  11.030  68.101  1.00  0.00    -0.176 NA 
BRANCH   8   9
HETATM    9  C   UNL     4     -10.663  12.425  68.197  1.00  0.00    -0.221 C  
BRANCH   9  10
HETATM   10  C   UNL     4      -9.824  13.481  67.474  1.00  0.00    -0.227 C  
BRANCH  10  11
HETATM   11  N   UNL     4     -10.587  14.692  67.082  1.00  0.00    -0.279 NA 
BRANCH  11  12
HETATM   12  C   UNL     4     -11.054  14.680  65.659  1.00  0.00    -0.338 C  
HETATM   13  O   UNL     4     -11.377  16.713  64.389  1.00  0.00    -1.023 OA 
HETATM   14  O   UNL     4      -9.332  16.285  65.371  1.00  0.00    -0.361 OA 
HETATM   15  C   UNL     4     -10.540  16.015  65.011  1.00  0.00    -0.316 C  
ENDBRANCH  11  12
BRANCH  11  16
HETATM   16  C   UNL     4     -11.773  14.864  67.997  1.00  0.00    -0.320 C  
HETATM   17  C   UNL     4     -11.382  15.989  69.000  1.00  0.00    -0.363 C  
HETATM   18  O   UNL     4     -11.279  15.625  70.207  1.00  0.00    -0.281 OA 
HETATM   19  O   UNL     4     -10.938  17.038  68.396  1.00  0.00    -0.352 OA 
ENDBRANCH  11  16
ENDBRANCH  10  11
ENDBRANCH   9  10
ENDBRANCH   8   9
BRANCH   8  20
HETATM   20  C   UNL     4      -9.362  10.917  66.852  1.00  0.00    -0.168 C  
HETATM   21  C   UNL     4      -9.746   9.749  65.862  1.00  0.00    -0.266 C  
HETATM   22  O   UNL     4      -9.591  10.027  64.636  1.00  0.00    -0.289 OA 
HETATM   23  O   UNL     4     -10.167   8.650  66.364  1.00  0.00    -0.282 OA 
ENDBRANCH   8  20
ENDBRANCH   7   8
TORSDOF 7
ENDMDL
MODEL       85
REMARK 921   NORMALIZED FREE ENERGY PREDICTED BY IDOCK:   -4.82 KCAL/MOL
REMARK 922        TOTAL FREE ENERGY PREDICTED BY IDOCK:   -8.24 KCAL/MOL
REMARK 923 INTER-LIGAND FREE ENERGY PREDICTED BY IDOCK:   -7.69 KCAL/MOL
REMARK 924 INTRA-LIGAND FREE ENERGY PREDICTED BY IDOCK:   -0.55 KCAL/MOL
REMARK 927      BINDING AFFINITY PREDICTED BY RF-SCORE:    0.00 PKD
ROOT
HETATM    1 NA   UNL     1      -7.808  17.602  67.442  1.00  0.00    -0.182 Na 
HETATM    2 NA   UNL     2     -10.564  20.188  64.805  1.00  0.00    -0.331 Na 
HETATM    3 CA   UNL     3     -12.053  15.681  70.349  1.00  0.00    -0.258 Ca 
HETATM    4  O   UNL     4      -8.964  16.965  65.878  1.00  0.00    -0.509 OA 
HETATM    5  C   UNL     4     -10.175  17.200  65.600  1.00  0.00    -0.144 C  
HETATM    6  O   UNL     4     -10.643  18.389  65.542  1.00  0.00    -0.627 OA 
HETATM    7  C   UNL     4     -11.189  16.076  65.309  1.00  0.00    -0.112 C  
ENDROOT
BRANCH   7   8
HETATM    8  N   UNL     4     -10.880  14.691  65.762  1.00  0.00    -0.311 NA 
BRANCH   8   9
HETATM    9  C   UNL     4     -10.198  14.488  67.045  1.00  0.00    -0.262 C  
BRANCH   9  10
HETATM   10  C   UNL     4      -9.126  13.399  67.109  1.00  0.00    -0.235 C  
BRANCH  10  11
HETATM   11  N   UNL     4      -9.671  12.021  67.208  1.00  0.00    -0.184 NA 
BRANCH  11  12
HETATM   12  C   UNL     4      -8.783  10.973  66.613  1.00  0.00    -0.160 C  
HETATM   13  O   UNL     4      -9.644   8.875  65.773  1.00  0.00    -0.243 OA 
HETATM   14  O   UNL     4     -10.480  10.868  64.960  1.00  0.00    -0.295 OA 
HETATM   15  C   UNL     4      -9.684  10.123  65.647  1.00  0.00    -0.259 C  
ENDBRANCH  11  12
BRANCH  11  16
HETATM   16  C   UNL     4      -9.944  11.686  68.653  1.00  0.00    -0.184 C  
HETATM   17  C   UNL     4     -11.489  11.767  68.828  1.00  0.00    -0.291 C  
HETATM   18  O   UNL     4     -11.898  12.680  69.601  1.00  0.00    -0.307 OA 
HETATM   19  O   UNL     4     -12.111  11.082  67.930  1.00  0.00    -0.600 OA 
ENDBRANCH  11  16
ENDBRANCH  10  11
ENDBRANCH   9  10
ENDBRANCH   8   9
BRANCH   8  20
HETATM   20  C   UNL     4     -12.197  13.933  65.830  1.00  0.00    -0.467 C  
HETATM   21  C   UNL     4     -12.732  13.370  64.457  1.00  0.00    -0.127 C  
HETATM   22  O   UNL     4     -13.326  12.254  64.542  1.00  0.00    -0.769 OA 
HETATM   23  O   UNL     4     -12.529  14.065  63.402  1.00  0.00    -0.826 OA 
ENDBRANCH   8  20
ENDBRANCH   7   8
TORSDOF 7
ENDMDL
MODEL       86
REMARK 921   NORMALIZED FREE ENERGY PREDICTED BY IDOCK:   -4.81 KCAL/MOL
REMARK 922        TOTAL FREE ENERGY PREDICTED BY IDOCK:   -8.21 KCAL/MOL
REMARK 923 INTER-LIGAND FREE ENERGY PREDICTED BY IDOCK:   -7.24 KCAL/MOL
REMARK 924 INTRA-LIGAND FREE ENERGY PREDICTED BY IDOCK:   -0.97 KCAL/MOL
REMARK 927      BINDING AFFINITY PREDICTED BY RF-SCORE:    0.00 PKD
ROOT
HETATM    1 NA   UNL     1      -8.384  11.904  63.290  1.00  0.00    -0.397 Na 
HETATM    2 NA   UNL     2     -12.814  11.016  62.385  1.00  0.00    -1.003 Na 
HETATM    3 CA   UNL     3      -9.583  16.858  65.335  1.00  0.00    -0.227 Ca 
HETATM    4  O   UNL     4      -9.819  11.323  64.628  1.00  0.00    -0.241 OA 
HETATM    5  C   UNL     4     -10.998  11.747  64.808  1.00  0.00    -0.303 C  
HETATM    6  O   UNL     4     -11.840  11.844  63.851  1.00  0.00    -0.412 OA 
HETATM    7  C   UNL     4     -11.515  12.184  66.193  1.00  0.00    -0.371 C  
ENDROOT
BRANCH   7   8
HETATM    8  N   UNL     4     -10.530  12.521  67.258  1.00  0.00    -0.219 NA 
BRANCH   8   9
HETATM    9  C   UNL     4     -10.348  13.921  67.654  1.00  0.00    -0.242 C  
BRANCH   9  10
HETATM   10  C   UNL     4     -10.596  14.276  69.121  1.00  0.00    -0.186 C  
BRANCH  10  11
HETATM   11  N   UNL     4     -11.214  15.611  69.321  1.00  0.00    -0.295 NA 
BRANCH  11  12
HETATM   12  C   UNL     4     -11.264  16.449  68.081  1.00  0.00    -0.273 C  
HETATM   13  O   UNL     4     -10.731  18.808  68.094  1.00  0.00    -0.291 OA 
HETATM   14  O   UNL     4      -9.196  17.279  68.892  1.00  0.00    -0.256 OA 
HETATM   15  C   UNL     4     -10.288  17.656  68.320  1.00  0.00    -0.384 C  
ENDBRANCH  11  12
BRANCH  11  16
HETATM   16  C   UNL     4     -12.609  15.447  69.872  1.00  0.00    -0.168 C  
HETATM   17  C   UNL     4     -12.465  15.487  71.422  1.00  0.00    -0.417 C  
HETATM   18  O   UNL     4     -12.764  14.413  72.019  1.00  0.00    -0.318 OA 
HETATM   19  O   UNL     4     -11.785  16.509  71.816  1.00  0.00    -0.435 OA 
ENDBRANCH  11  16
ENDBRANCH  10  11
ENDBRANCH   9  10
ENDBRANCH   8   9
BRANCH   8  20
HETATM   20  C   UNL     4     -10.933  11.751  68.506  1.00  0.00    -0.227 C  
HETATM   21  C   UNL     4     -10.156  10.400  68.756  1.00  0.00    -0.187 C  
HETATM   22  O   UNL     4      -9.933  10.140  69.975  1.00  0.00    -0.240 OA 
HETATM   23  O   UNL     4      -9.825   9.701  67.737  1.00  0.00    -0.149 OA 
ENDBRANCH   8  20
ENDBRANCH   7   8
TORSDOF 7
ENDMDL
MODEL       87
REMARK 921   NORMALIZED FREE ENERGY PREDICTED BY IDOCK:   -4.79 KCAL/MOL
REMARK 922        TOTAL FREE ENERGY PREDICTED BY IDOCK:   -8.20 KCAL/MOL
REMARK 923 INTER-LIGAND FREE ENERGY PREDICTED BY IDOCK:   -7.77 KCAL/MOL
REMARK 924 INTRA-LIGAND FREE ENERGY PREDICTED BY IDOCK:   -0.43 KCAL/MOL
REMARK 927      BINDING AFFINITY PREDICTED BY RF-SCORE:    0.00 PKD
ROOT
HETATM    1 NA   UNL     1     -12.363  16.039  63.876  1.00  0.00    -0.600 Na 
HETATM    2 NA   UNL     2     -14.157  11.813  63.480  1.00  0.00    -0.492 Na 
HETATM    3 CA   UNL     3     -13.510  16.242  69.244  1.00  0.00    -0.553 Ca 
HETATM    4  O   UNL     4     -11.485  14.274  64.426  1.00  0.00    -0.366 OA 
HETATM    5  C   UNL     4     -11.941  13.298  65.089  1.00  0.00    -0.381 C  
HETATM    6  O   UNL     4     -13.045  12.727  64.788  1.00  0.00    -0.813 OA 
HETATM    7  C   UNL     4     -11.207  12.717  66.314  1.00  0.00    -0.300 C  
ENDROOT
BRANCH   7   8
HETATM    8  N   UNL     4     -10.178  13.548  66.999  1.00  0.00    -0.247 NA 
BRANCH   8   9
HETATM    9  C   UNL     4     -10.318  15.007  67.007  1.00  0.00    -0.269 C  
BRANCH   9  10
HETATM   10  C   UNL     4      -9.185  15.828  66.390  1.00  0.00    -0.312 C  
BRANCH  10  11
HETATM   11  N   UNL     4      -8.528  16.760  67.341  1.00  0.00    -0.186 NA 
BRANCH  11  12
HETATM   12  C   UNL     4      -7.090  16.439  67.609  1.00  0.00    -0.135 C  
HETATM   13  O   UNL     4      -6.023  16.953  69.718  1.00  0.00    -0.215 OA 
HETATM   14  O   UNL     4      -7.937  15.660  69.682  1.00  0.00    -0.206 OA 
HETATM   15  C   UNL     4      -6.947  16.306  69.167  1.00  0.00    -0.206 C  
ENDBRANCH  11  12
BRANCH  11  16
HETATM   16  C   UNL     4      -8.640  18.173  66.826  1.00  0.00    -0.259 C  
HETATM   17  C   UNL     4      -9.954  18.748  67.434  1.00  0.00    -0.335 C  
HETATM   18  O   UNL     4     -10.860  19.024  66.596  1.00  0.00    -0.369 OA 
HETATM   19  O   UNL     4     -10.010  18.572  68.710  1.00  0.00    -0.374 OA 
ENDBRANCH  11  16
ENDBRANCH  10  11
ENDBRANCH   9  10
ENDBRANCH   8   9
BRANCH   8  20
HETATM   20  C   UNL     4     -10.125  13.096  68.450  1.00  0.00    -0.231 C  
HETATM   21  C   UNL     4     -11.490  13.174  69.240  1.00  0.00    -0.291 C  
HETATM   22  O   UNL     4     -11.664  12.243  70.081  1.00  0.00    -0.293 OA 
HETATM   23  O   UNL     4     -12.283  14.141  68.973  1.00  0.00    -0.332 OA 
ENDBRANCH   8  20
ENDBRANCH   7   8
TORSDOF 7
ENDMDL
MODEL       88
REMARK 921   NORMALIZED FREE ENERGY PREDICTED BY IDOCK:   -4.77 KCAL/MOL
REMARK 922        TOTAL FREE ENERGY PREDICTED BY IDOCK:   -8.17 KCAL/MOL
REMARK 923 INTER-LIGAND FREE ENERGY PREDICTED BY IDOCK:   -7.41 KCAL/MOL
REMARK 924 INTRA-LIGAND FREE ENERGY PREDICTED BY IDOCK:   -0.76 KCAL/MOL
REMARK 927      BINDING AFFINITY PREDICTED BY RF-SCORE:    0.00 PKD
ROOT
HETATM    1 NA   UNL     1     -12.005   6.787  67.568  1.00  0.00    -0.565 Na 
HETATM    2 NA   UNL     2      -7.401   6.615  67.633  1.00  0.00    -0.073 Na 
HETATM    3 CA   UNL     3     -12.255   7.586  72.996  1.00  0.00    -0.470 Ca 
HETATM    4  O   UNL     4     -10.717   8.373  67.685  1.00  0.00    -0.218 OA 
HETATM    5  C   UNL     4      -9.704   8.559  68.420  1.00  0.00    -0.155 C  
HETATM    6  O   UNL     4      -8.757   7.704  68.503  1.00  0.00    -0.128 OA 
HETATM    7  C   UNL     4      -9.527   9.829  69.275  1.00  0.00    -0.194 C  
ENDROOT
BRANCH   7   8
HETATM    8  N   UNL     4     -10.723  10.660  69.589  1.00  0.00    -0.252 NA 
BRANCH   8   9
HETATM    9  C   UNL     4     -11.546  11.182  68.493  1.00  0.00    -0.314 C  
BRANCH   9  10
HETATM   10  C   UNL     4     -11.336  12.642  68.088  1.00  0.00    -0.290 C  
BRANCH  10  11
HETATM   11  N   UNL     4     -11.349  12.868  66.621  1.00  0.00    -0.301 NA 
BRANCH  11  12
HETATM   12  C   UNL     4     -12.209  14.016  66.191  1.00  0.00    -0.465 C  
HETATM   13  O   UNL     4     -12.659  14.494  63.864  1.00  0.00    -0.827 OA 
HETATM   14  O   UNL     4     -13.145  12.407  64.723  1.00  0.00    -0.806 OA 
HETATM   15  C   UNL     4     -12.778  13.642  64.777  1.00  0.00    -0.219 C  
ENDBRANCH  11  12
BRANCH  11  16
HETATM   16  C   UNL     4      -9.940  13.085  66.128  1.00  0.00    -0.278 C  
HETATM   17  C   UNL     4      -9.423  11.686  65.677  1.00  0.00    -0.209 C  
HETATM   18  O   UNL     4      -8.462  11.223  66.354  1.00  0.00    -0.167 OA 
HETATM   19  O   UNL     4     -10.251  11.103  64.879  1.00  0.00    -0.265 OA 
ENDBRANCH  11  16
ENDBRANCH  10  11
ENDBRANCH   9  10
ENDBRANCH   8   9
BRANCH   8  20
HETATM   20  C   UNL     4     -11.635   9.824  70.474  1.00  0.00    -0.292 C  
HETATM   21  C   UNL     4     -12.827  10.603  71.155  1.00  0.00    -0.420 C  
HETATM   22  O   UNL     4     -13.896   9.933  71.266  1.00  0.00    -0.199 OA 
HETATM   23  O   UNL     4     -12.620  11.809  71.528  1.00  0.00    -0.304 OA 
ENDBRANCH   8  20
ENDBRANCH   7   8
TORSDOF 7
ENDMDL
MODEL       89
REMARK 921   NORMALIZED FREE ENERGY PREDICTED BY IDOCK:   -4.77 KCAL/MOL
REMARK 922        TOTAL FREE ENERGY PREDICTED BY IDOCK:   -8.16 KCAL/MOL
REMARK 923 INTER-LIGAND FREE ENERGY PREDICTED BY IDOCK:   -7.01 KCAL/MOL
REMARK 924 INTRA-LIGAND FREE ENERGY PREDICTED BY IDOCK:   -1.14 KCAL/MOL
REMARK 927      BINDING AFFINITY PREDICTED BY RF-SCORE:    0.00 PKD
ROOT
HETATM    1 NA   UNL     1     -13.855   8.248  70.849  1.00  0.00    -0.470 Na 
HETATM    2 NA   UNL     2     -10.165   7.875  73.584  1.00  0.00    -0.271 Na 
HETATM    3 CA   UNL     3     -13.497  13.728  70.775  1.00  0.00    -0.311 Ca 
HETATM    4  O   UNL     4     -11.892   8.401  70.292  1.00  0.00    -0.018 OA 
HETATM    5  C   UNL     4     -10.938   9.055  70.807  1.00  0.00    -0.258 C  
HETATM    6  O   UNL     4     -10.644   8.967  72.048  1.00  0.00    -0.345 OA 
HETATM    7  C   UNL     4     -10.053  10.010  69.982  1.00  0.00    -0.239 C  
ENDROOT
BRANCH   7   8
HETATM    8  N   UNL     4     -10.558  10.512  68.673  1.00  0.00    -0.187 NA 
BRANCH   8   9
HETATM    9  C   UNL     4     -10.845  11.941  68.512  1.00  0.00    -0.221 C  
BRANCH   9  10
HETATM   10  C   UNL     4     -10.046  12.706  67.456  1.00  0.00    -0.212 C  
BRANCH  10  11
HETATM   11  N   UNL     4     -10.877  13.268  66.361  1.00  0.00    -0.286 NA 
BRANCH  11  12
HETATM   12  C   UNL     4     -11.894  12.312  65.819  1.00  0.00    -0.352 C  
HETATM   13  O   UNL     4     -12.830  12.541  63.601  1.00  0.00    -0.731 OA 
HETATM   14  O   UNL     4     -10.541  12.407  63.874  1.00  0.00    -0.370 OA 
HETATM   15  C   UNL     4     -11.772  12.372  64.255  1.00  0.00    -0.380 C  
ENDBRANCH  11  12
BRANCH  11  16
HETATM   16  C   UNL     4     -11.570  14.519  66.841  1.00  0.00    -0.385 C  
HETATM   17  C   UNL     4     -10.818  15.709  66.175  1.00  0.00    -0.264 C  
HETATM   18  O   UNL     4     -10.208  16.477  66.973  1.00  0.00    -0.277 OA 
HETATM   19  O   UNL     4     -10.694  15.546  64.901  1.00  0.00    -0.428 OA 
ENDBRANCH  11  16
ENDBRANCH  10  11
ENDBRANCH   9  10
ENDBRANCH   8   9
BRANCH   8  20
HETATM   20  C   UNL     4      -9.526  10.142  67.619  1.00  0.00    -0.148 C  
HETATM   21  C   UNL     4      -9.979   9.045  66.577  1.00  0.00    -0.285 C  
HETATM   22  O   UNL     4      -9.531   9.219  65.405  1.00  0.00    -0.254 OA 
HETATM   23  O   UNL     4     -10.736   8.101  66.991  1.00  0.00    -0.321 OA 
ENDBRANCH   8  20
ENDBRANCH   7   8
TORSDOF 7
ENDMDL
MODEL       90
REMARK 921   NORMALIZED FREE ENERGY PREDICTED BY IDOCK:   -4.76 KCAL/MOL
REMARK 922        TOTAL FREE ENERGY PREDICTED BY IDOCK:   -8.15 KCAL/MOL
REMARK 923 INTER-LIGAND FREE ENERGY PREDICTED BY IDOCK:   -7.28 KCAL/MOL
REMARK 924 INTRA-LIGAND FREE ENERGY PREDICTED BY IDOCK:   -0.87 KCAL/MOL
REMARK 927      BINDING AFFINITY PREDICTED BY RF-SCORE:    0.00 PKD
ROOT
HETATM    1 NA   UNL     1     -11.680  13.897  71.204  1.00  0.00    -0.307 Na 
HETATM    2 NA   UNL     2     -11.063   9.536  69.848  1.00  0.00    -0.205 Na 
HETATM    3 CA   UNL     3      -7.241  15.595  68.452  1.00  0.00    -0.104 Ca 
HETATM    4  O   UNL     4     -12.150  13.099  69.379  1.00  0.00    -0.292 OA 
HETATM    5  C   UNL     4     -11.474  12.362  68.603  1.00  0.00    -0.303 C  
HETATM    6  O   UNL     4     -10.918  11.282  69.002  1.00  0.00    -0.209 OA 
HETATM    7  C   UNL     4     -11.263  12.705  67.115  1.00  0.00    -0.300 C  
ENDROOT
BRANCH   7   8
HETATM    8  N   UNL     4     -11.480  14.106  66.660  1.00  0.00    -0.350 NA 
BRANCH   8   9
HETATM    9  C   UNL     4     -10.322  14.955  66.363  1.00  0.00    -0.286 C  
BRANCH   9  10
HETATM   10  C   UNL     4     -10.490  16.465  66.542  1.00  0.00    -0.282 C  
BRANCH  10  11
HETATM   11  N   UNL     4      -9.545  17.065  67.517  1.00  0.00    -0.246 NA 
BRANCH  11  12
HETATM   12  C   UNL     4      -8.707  18.169  66.949  1.00  0.00    -0.259 C  
HETATM   13  O   UNL     4      -7.808  19.945  68.322  1.00  0.00    -0.317 OA 
HETATM   14  O   UNL     4      -7.352  17.743  68.848  1.00  0.00    -0.269 OA 
HETATM   15  C   UNL     4      -7.820  18.705  68.128  1.00  0.00    -0.287 C  
ENDBRANCH  11  12
BRANCH  11  16
HETATM   16  C   UNL     4     -10.308  17.578  68.713  1.00  0.00    -0.358 C  
HETATM   17  C   UNL     4     -10.596  16.334  69.604  1.00  0.00    -0.320 C  
HETATM   18  O   UNL     4     -11.817  16.030  69.727  1.00  0.00    -0.312 OA 
HETATM   19  O   UNL     4      -9.529  15.645  69.828  1.00  0.00    -0.277 OA 
ENDBRANCH  11  16
ENDBRANCH  10  11
ENDBRANCH   9  10
ENDBRANCH   8   9
BRANCH   8  20
HETATM   20  C   UNL     4     -12.325  14.045  65.397  1.00  0.00    -0.478 C  
HETATM   21  C   UNL     4     -11.789  13.086  64.263  1.00  0.00    -0.396 C  
HETATM   22  O   UNL     4     -12.695  12.493  63.605  1.00  0.00    -0.712 OA 
HETATM   23  O   UNL     4     -10.523  12.990  64.107  1.00  0.00    -0.413 OA 
ENDBRANCH   8  20
ENDBRANCH   7   8
TORSDOF 7
ENDMDL
MODEL       91
REMARK 921   NORMALIZED FREE ENERGY PREDICTED BY IDOCK:   -4.75 KCAL/MOL
REMARK 922        TOTAL FREE ENERGY PREDICTED BY IDOCK:   -8.13 KCAL/MOL
REMARK 923 INTER-LIGAND FREE ENERGY PREDICTED BY IDOCK:   -7.29 KCAL/MOL
REMARK 924 INTRA-LIGAND FREE ENERGY PREDICTED BY IDOCK:   -0.84 KCAL/MOL
REMARK 927      BINDING AFFINITY PREDICTED BY RF-SCORE:    0.00 PKD
ROOT
HETATM    1 NA   UNL     1     -13.541  16.107  69.488  1.00  0.00    -0.646 Na 
HETATM    2 NA   UNL     2      -9.518  18.353  69.372  1.00  0.00    -0.270 Na 
HETATM    3 CA   UNL     3     -13.444  15.242  64.065  1.00  0.00    -0.433 Ca 
HETATM    4  O   UNL     4     -11.674  15.279  69.361  1.00  0.00    -0.301 OA 
HETATM    5  C   UNL     4     -10.692  15.568  68.616  1.00  0.00    -0.252 C  
HETATM    6  O   UNL     4     -10.238  16.759  68.520  1.00  0.00    -0.262 OA 
HETATM    7  C   UNL     4      -9.965  14.511  67.762  1.00  0.00    -0.225 C  
ENDROOT
BRANCH   7   8
HETATM    8  N   UNL     4     -10.655  13.225  67.464  1.00  0.00    -0.244 NA 
BRANCH   8   9
HETATM    9  C   UNL     4     -11.011  12.326  68.565  1.00  0.00    -0.240 C  
BRANCH   9  10
HETATM   10  C   UNL     4     -11.614  10.968  68.201  1.00  0.00    -0.272 C  
BRANCH  10  11
HETATM   11  N   UNL     4     -10.748   9.812  68.543  1.00  0.00    -0.223 NA 
BRANCH  11  12
HETATM   12  C   UNL     4      -9.584   9.632  67.619  1.00  0.00    -0.142 C  
HETATM   13  O   UNL     4      -8.488   7.496  67.323  1.00  0.00    -0.117 OA 
HETATM   14  O   UNL     4     -10.762   7.681  66.962  1.00  0.00    -0.348 OA 
HETATM   15  C   UNL     4      -9.573   8.116  67.207  1.00  0.00    -0.163 C  
ENDBRANCH  11  12
BRANCH  11  16
HETATM   16  C   UNL     4     -10.248   9.954  69.959  1.00  0.00    -0.271 C  
HETATM   17  C   UNL     4     -11.156   9.036  70.829  1.00  0.00    -0.272 C  
HETATM   18  O   UNL     4     -11.878   9.637  71.675  1.00  0.00    -0.379 OA 
HETATM   19  O   UNL     4     -11.240   7.845  70.344  1.00  0.00    -0.269 OA 
ENDBRANCH  11  16
ENDBRANCH  10  11
ENDBRANCH   9  10
ENDBRANCH   8   9
BRANCH   8  20
HETATM   20  C   UNL     4     -11.942  13.563  66.728  1.00  0.00    -0.404 C  
HETATM   21  C   UNL     4     -12.008  13.100  65.220  1.00  0.00    -0.398 C  
HETATM   22  O   UNL     4     -13.155  12.725  64.836  1.00  0.00    -0.833 OA 
HETATM   23  O   UNL     4     -10.931  13.141  64.532  1.00  0.00    -0.333 OA 
ENDBRANCH   8  20
ENDBRANCH   7   8
TORSDOF 7
ENDMDL
MODEL       92
REMARK 921   NORMALIZED FREE ENERGY PREDICTED BY IDOCK:   -4.70 KCAL/MOL
REMARK 922        TOTAL FREE ENERGY PREDICTED BY IDOCK:   -8.07 KCAL/MOL
REMARK 923 INTER-LIGAND FREE ENERGY PREDICTED BY IDOCK:   -7.51 KCAL/MOL
REMARK 924 INTRA-LIGAND FREE ENERGY PREDICTED BY IDOCK:   -0.56 KCAL/MOL
REMARK 927      BINDING AFFINITY PREDICTED BY RF-SCORE:    0.00 PKD
ROOT
HETATM    1 NA   UNL     1      -7.778  12.148  66.957  1.00  0.00    -0.121 Na 
HETATM    2 NA   UNL     2     -10.575  10.628  70.289  1.00  0.00    -0.237 Na 
HETATM    3 CA   UNL     3     -11.824  12.060  63.243  1.00  0.00    -0.353 Ca 
HETATM    4  O   UNL     4      -9.153  13.245  68.002  1.00  0.00    -0.188 OA 
HETATM    5  C   UNL     4     -10.363  13.000  68.280  1.00  0.00    -0.252 C  
HETATM    6  O   UNL     4     -10.728  11.904  68.829  1.00  0.00    -0.219 OA 
HETATM    7  C   UNL     4     -11.497  14.000  67.980  1.00  0.00    -0.311 C  
ENDROOT
BRANCH   7   8
HETATM    8  N   UNL     4     -11.263  15.079  66.980  1.00  0.00    -0.336 NA 
BRANCH   8   9
HETATM    9  C   UNL     4     -10.071  15.925  67.100  1.00  0.00    -0.264 C  
BRANCH   9  10
HETATM   10  C   UNL     4     -10.224  17.258  67.834  1.00  0.00    -0.332 C  
BRANCH  10  11
HETATM   11  N   UNL     4      -9.029  18.135  67.746  1.00  0.00    -0.260 NA 
BRANCH  11  12
HETATM   12  C   UNL     4      -7.744  17.446  68.090  1.00  0.00    -0.221 C  
HETATM   13  O   UNL     4      -5.619  18.600  68.091  1.00  0.00    -0.181 OA 
HETATM   14  O   UNL     4      -7.362  19.399  69.378  1.00  0.00    -0.314 OA 
HETATM   15  C   UNL     4      -6.765  18.561  68.603  1.00  0.00    -0.259 C  
ENDBRANCH  11  12
BRANCH  11  16
HETATM   16  C   UNL     4      -8.929  18.720  66.360  1.00  0.00    -0.292 C  
HETATM   17  C   UNL     4      -9.919  19.922  66.329  1.00  0.00    -0.486 C  
HETATM   18  O   UNL     4     -10.898  19.795  65.541  1.00  0.00    -0.445 OA 
HETATM   19  O   UNL     4      -9.738  20.719  67.327  1.00  0.00    -0.479 OA 
ENDBRANCH  11  16
ENDBRANCH  10  11
ENDBRANCH   9  10
ENDBRANCH   8   9
BRANCH   8  20
HETATM   20  C   UNL     4     -11.208  14.421  65.610  1.00  0.00    -0.323 C  
HETATM   21  C   UNL     4     -12.602  14.208  64.900  1.00  0.00    -0.342 C  
HETATM   22  O   UNL     4     -12.577  14.349  63.642  1.00  0.00    -0.817 OA 
HETATM   23  O   UNL     4     -13.610  13.917  65.632  1.00  0.00    -0.478 OA 
ENDBRANCH   8  20
ENDBRANCH   7   8
TORSDOF 7
ENDMDL
MODEL       93
REMARK 921   NORMALIZED FREE ENERGY PREDICTED BY IDOCK:   -4.70 KCAL/MOL
REMARK 922        TOTAL FREE ENERGY PREDICTED BY IDOCK:   -8.07 KCAL/MOL
REMARK 923 INTER-LIGAND FREE ENERGY PREDICTED BY IDOCK:   -7.67 KCAL/MOL
REMARK 924 INTRA-LIGAND FREE ENERGY PREDICTED BY IDOCK:   -0.40 KCAL/MOL
REMARK 927      BINDING AFFINITY PREDICTED BY RF-SCORE:    0.00 PKD
ROOT
HETATM    1 NA   UNL     1     -11.985  11.878  69.639  1.00  0.00    -0.222 Na 
HETATM    2 NA   UNL     2     -13.120  16.148  70.947  1.00  0.00    -0.463 Na 
HETATM    3 CA   UNL     3     -13.884  12.713  64.553  1.00  0.00    -0.672 Ca 
HETATM    4  O   UNL     4     -10.962  13.602  69.228  1.00  0.00    -0.228 OA 
HETATM    5  C   UNL     4     -11.370  14.721  68.801  1.00  0.00    -0.282 C  
HETATM    6  O   UNL     4     -12.334  15.351  69.356  1.00  0.00    -0.246 OA 
HETATM    7  C   UNL     4     -10.742  15.415  67.577  1.00  0.00    -0.295 C  
ENDROOT
BRANCH   7   8
HETATM    8  N   UNL     4      -9.940  14.604  66.619  1.00  0.00    -0.265 NA 
BRANCH   8   9
HETATM    9  C   UNL     4     -10.317  13.211  66.362  1.00  0.00    -0.287 C  
BRANCH   9  10
HETATM   10  C   UNL     4      -9.226  12.147  66.500  1.00  0.00    -0.216 C  
BRANCH  10  11
HETATM   11  N   UNL     4      -9.649  10.791  66.070  1.00  0.00    -0.192 NA 
BRANCH  11  12
HETATM   12  C   UNL     4     -10.314   9.992  67.149  1.00  0.00    -0.241 C  
HETATM   13  O   UNL     4     -10.801   7.637  66.898  1.00  0.00    -0.328 OA 
HETATM   14  O   UNL     4      -8.640   8.399  66.619  1.00  0.00    -0.114 OA 
HETATM   15  C   UNL     4      -9.889   8.498  66.923  1.00  0.00    -0.242 C  
ENDBRANCH  11  12
BRANCH  11  16
HETATM   16  C   UNL     4     -10.574  10.899  64.884  1.00  0.00    -0.234 C  
HETATM   17  C   UNL     4      -9.663  10.828  63.622  1.00  0.00    -0.327 C  
HETATM   18  O   UNL     4      -9.633  11.878  62.919  1.00  0.00    -0.367 OA 
HETATM   19  O   UNL     4      -8.863   9.818  63.664  1.00  0.00    -0.206 OA 
ENDBRANCH  11  16
ENDBRANCH  10  11
ENDBRANCH   9  10
ENDBRANCH   8   9
BRANCH   8  20
HETATM   20  C   UNL     4      -9.964  15.328  65.282  1.00  0.00    -0.287 C  
HETATM   21  C   UNL     4     -11.376  15.422  64.583  1.00  0.00    -0.355 C  
HETATM   22  O   UNL     4     -11.577  16.500  63.949  1.00  0.00    -1.175 OA 
HETATM   23  O   UNL     4     -12.175  14.431  64.709  1.00  0.00    -0.423 OA 
ENDBRANCH   8  20
ENDBRANCH   7   8
TORSDOF 7
ENDMDL
MODEL       94
REMARK 921   NORMALIZED FREE ENERGY PREDICTED BY IDOCK:   -4.70 KCAL/MOL
REMARK 922        TOTAL FREE ENERGY PREDICTED BY IDOCK:   -8.06 KCAL/MOL
REMARK 923 INTER-LIGAND FREE ENERGY PREDICTED BY IDOCK:   -7.80 KCAL/MOL
REMARK 924 INTRA-LIGAND FREE ENERGY PREDICTED BY IDOCK:   -0.27 KCAL/MOL
REMARK 927      BINDING AFFINITY PREDICTED BY RF-SCORE:    0.00 PKD
ROOT
HETATM    1 NA   UNL     1      -8.518   8.294  70.661  1.00  0.00    -0.103 Na 
HETATM    2 NA   UNL     2     -11.444   7.343  74.091  1.00  0.00    -0.485 Na 
HETATM    3 CA   UNL     3     -12.216   6.901  66.847  1.00  0.00    -0.630 Ca 
HETATM    4  O   UNL     4     -10.064   9.464  71.317  1.00  0.00    -0.302 OA 
HETATM    5  C   UNL     4     -11.267   9.170  71.574  1.00  0.00    -0.360 C  
HETATM    6  O   UNL     4     -11.582   8.207  72.353  1.00  0.00    -0.350 OA 
HETATM    7  C   UNL     4     -12.453   9.946  70.967  1.00  0.00    -0.346 C  
ENDROOT
BRANCH   7   8
HETATM    8  N   UNL     4     -12.228  10.771  69.748  1.00  0.00    -0.320 NA 
BRANCH   8   9
HETATM    9  C   UNL     4     -11.704  12.134  69.887  1.00  0.00    -0.287 C  
BRANCH   9  10
HETATM   10  C   UNL     4     -12.440  13.079  70.838  1.00  0.00    -0.310 C  
BRANCH  10  11
HETATM   11  N   UNL     4     -12.236  14.518  70.536  1.00  0.00    -0.309 NA 
BRANCH  11  12
HETATM   12  C   UNL     4     -11.944  14.800  69.094  1.00  0.00    -0.282 C  
HETATM   13  O   UNL     4     -10.857  16.835  68.369  1.00  0.00    -0.343 OA 
HETATM   14  O   UNL     4      -9.837  15.483  69.940  1.00  0.00    -0.286 OA 
HETATM   15  C   UNL     4     -10.736  15.802  69.072  1.00  0.00    -0.235 C  
ENDBRANCH  11  12
BRANCH  11  16
HETATM   16  C   UNL     4     -13.449  15.304  70.965  1.00  0.00    -0.452 C  
HETATM   17  C   UNL     4     -13.154  15.790  72.415  1.00  0.00    -0.465 C  
HETATM   18  O   UNL     4     -13.908  15.309  73.309  1.00  0.00    -0.364 OA 
HETATM   19  O   UNL     4     -12.006  16.370  72.504  1.00  0.00    -0.534 OA 
ENDBRANCH  11  16
ENDBRANCH  10  11
ENDBRANCH   9  10
ENDBRANCH   8   9
BRANCH   8  20
HETATM   20  C   UNL     4     -11.258  10.008  68.859  1.00  0.00    -0.131 C  
HETATM   21  C   UNL     4     -10.944  10.674  67.463  1.00  0.00    -0.310 C  
HETATM   22  O   UNL     4      -9.753  10.514  67.061  1.00  0.00    -0.170 OA 
HETATM   23  O   UNL     4     -11.889  11.300  66.870  1.00  0.00    -0.423 OA 
ENDBRANCH   8  20
ENDBRANCH   7   8
TORSDOF 7
ENDMDL
MODEL       95
REMARK 921   NORMALIZED FREE ENERGY PREDICTED BY IDOCK:   -4.68 KCAL/MOL
REMARK 922        TOTAL FREE ENERGY PREDICTED BY IDOCK:   -8.04 KCAL/MOL
REMARK 923 INTER-LIGAND FREE ENERGY PREDICTED BY IDOCK:   -6.93 KCAL/MOL
REMARK 924 INTRA-LIGAND FREE ENERGY PREDICTED BY IDOCK:   -1.11 KCAL/MOL
REMARK 927      BINDING AFFINITY PREDICTED BY RF-SCORE:    0.00 PKD
ROOT
HETATM    1 NA   UNL     1      -8.531  14.812  70.459  1.00  0.00    -0.407 Na 
HETATM    2 NA   UNL     2     -10.303  18.982  69.621  1.00  0.00    -0.428 Na 
HETATM    3 CA   UNL     3     -13.510  12.633  71.254  1.00  0.00    -0.337 Ca 
HETATM    4  O   UNL     4      -9.406  15.449  68.722  1.00  0.00    -0.188 OA 
HETATM    5  C   UNL     4     -10.490  16.072  68.526  1.00  0.00    -0.258 C  
HETATM    6  O   UNL     4     -10.773  17.157  69.140  1.00  0.00    -0.301 OA 
HETATM    7  C   UNL     4     -11.558  15.574  67.533  1.00  0.00    -0.106 C  
ENDROOT
BRANCH   7   8
HETATM    8  N   UNL     4     -11.538  14.148  67.105  1.00  0.00    -0.356 NA 
BRANCH   8   9
HETATM    9  C   UNL     4     -11.743  13.093  68.103  1.00  0.00    -0.355 C  
BRANCH   9  10
HETATM   10  C   UNL     4     -10.502  12.366  68.625  1.00  0.00    -0.204 C  
BRANCH  10  11
HETATM   11  N   UNL     4     -10.709  10.914  68.859  1.00  0.00    -0.201 NA 
BRANCH  11  12
HETATM   12  C   UNL     4     -11.819  10.606  69.816  1.00  0.00    -0.304 C  
HETATM   13  O   UNL     4     -12.019   8.461  70.915  1.00  0.00    -0.270 OA 
HETATM   14  O   UNL     4     -10.067   9.678  71.117  1.00  0.00    -0.246 OA 
HETATM   15  C   UNL     4     -11.288   9.470  70.761  1.00  0.00    -0.321 C  
ENDBRANCH  11  12
BRANCH  11  16
HETATM   16  C   UNL     4     -10.973  10.221  67.546  1.00  0.00    -0.280 C  
HETATM   17  C   UNL     4      -9.602   9.646  67.081  1.00  0.00    -0.166 C  
HETATM   18  O   UNL     4      -9.137  10.152  66.020  1.00  0.00    -0.146 OA 
HETATM   19  O   UNL     4      -9.027   8.963  68.011  1.00  0.00    -0.139 OA 
ENDBRANCH  11  16
ENDBRANCH  10  11
ENDBRANCH   9  10
ENDBRANCH   8   9
BRANCH   8  20
HETATM   20  C   UNL     4     -12.617  13.978  66.047  1.00  0.00    -0.414 C  
HETATM   21  C   UNL     4     -12.360  12.836  64.987  1.00  0.00    -0.499 C  
HETATM   22  O   UNL     4     -13.404  12.228  64.607  1.00  0.00    -0.717 OA 
HETATM   23  O   UNL     4     -11.155  12.626  64.611  1.00  0.00    -0.291 OA 
ENDBRANCH   8  20
ENDBRANCH   7   8
TORSDOF 7
ENDMDL
MODEL       96
REMARK 921   NORMALIZED FREE ENERGY PREDICTED BY IDOCK:   -4.67 KCAL/MOL
REMARK 922        TOTAL FREE ENERGY PREDICTED BY IDOCK:   -8.03 KCAL/MOL
REMARK 923 INTER-LIGAND FREE ENERGY PREDICTED BY IDOCK:   -7.52 KCAL/MOL
REMARK 924 INTRA-LIGAND FREE ENERGY PREDICTED BY IDOCK:   -0.51 KCAL/MOL
REMARK 927      BINDING AFFINITY PREDICTED BY RF-SCORE:    0.00 PKD
ROOT
HETATM    1 NA   UNL     1     -12.196   6.621  67.165  1.00  0.00    -0.683 Na 
HETATM    2 NA   UNL     2      -7.625   6.054  67.305  1.00  0.00    -0.078 Na 
HETATM    3 CA   UNL     3     -12.472   7.387  72.596  1.00  0.00    -0.393 Ca 
HETATM    4  O   UNL     4     -10.780   8.090  67.321  1.00  0.00    -0.300 OA 
HETATM    5  C   UNL     4      -9.767   8.181  68.075  1.00  0.00    -0.161 C  
HETATM    6  O   UNL     4      -8.899   7.247  68.164  1.00  0.00    -0.127 OA 
HETATM    7  C   UNL     4      -9.498   9.423  68.947  1.00  0.00    -0.154 C  
ENDROOT
BRANCH   7   8
HETATM    8  N   UNL     4     -10.623  10.350  69.250  1.00  0.00    -0.216 NA 
BRANCH   8   9
HETATM    9  C   UNL     4     -11.479  10.826  68.158  1.00  0.00    -0.271 C  
BRANCH   9  10
HETATM   10  C   UNL     4     -10.787  11.397  66.919  1.00  0.00    -0.285 C  
BRANCH  10  11
HETATM   11  N   UNL     4     -11.101  12.825  66.658  1.00  0.00    -0.267 NA 
BRANCH  11  12
HETATM   12  C   UNL     4     -10.257  13.784  67.439  1.00  0.00    -0.252 C  
HETATM   13  O   UNL     4     -11.070  15.954  68.129  1.00  0.00    -0.317 OA 
HETATM   14  O   UNL     4     -12.234  14.050  68.720  1.00  0.00    -0.337 OA 
HETATM   15  C   UNL     4     -11.250  14.716  68.221  1.00  0.00    -0.285 C  
ENDBRANCH  11  12
BRANCH  11  16
HETATM   16  C   UNL     4     -10.957  13.115  65.184  1.00  0.00    -0.298 C  
HETATM   17  C   UNL     4     -12.406  13.218  64.624  1.00  0.00    -0.391 C  
HETATM   18  O   UNL     4     -12.727  12.324  63.791  1.00  0.00    -0.693 OA 
HETATM   19  O   UNL     4     -13.134  14.022  65.322  1.00  0.00    -0.782 OA 
ENDBRANCH  11  16
ENDBRANCH  10  11
ENDBRANCH   9  10
ENDBRANCH   8   9
BRANCH   8  20
HETATM   20  C   UNL     4     -11.527   9.651  70.254  1.00  0.00    -0.233 C  
HETATM   21  C   UNL     4     -12.648  10.551  70.905  1.00  0.00    -0.398 C  
HETATM   22  O   UNL     4     -13.740   9.949  71.130  1.00  0.00    -0.276 OA 
HETATM   23  O   UNL     4     -12.370  11.777  71.146  1.00  0.00    -0.324 OA 
ENDBRANCH   8  20
ENDBRANCH   7   8
TORSDOF 7
ENDMDL
MODEL       97
REMARK 921   NORMALIZED FREE ENERGY PREDICTED BY IDOCK:   -4.67 KCAL/MOL
REMARK 922        TOTAL FREE ENERGY PREDICTED BY IDOCK:   -8.02 KCAL/MOL
REMARK 923 INTER-LIGAND FREE ENERGY PREDICTED BY IDOCK:   -7.33 KCAL/MOL
REMARK 924 INTRA-LIGAND FREE ENERGY PREDICTED BY IDOCK:   -0.69 KCAL/MOL
REMARK 927      BINDING AFFINITY PREDICTED BY RF-SCORE:    0.00 PKD
ROOT
HETATM    1 NA   UNL     1      -9.200  12.055  65.657  1.00  0.00    -0.212 Na 
HETATM    2 NA   UNL     2     -10.968   8.111  67.254  1.00  0.00    -0.246 Na 
HETATM    3 CA   UNL     3     -14.149  14.427  65.450  1.00  0.00    -0.800 Ca 
HETATM    4  O   UNL     4      -9.789  11.661  67.576  1.00  0.00    -0.185 OA 
HETATM    5  C   UNL     4     -10.847  11.128  68.021  1.00  0.00    -0.225 C  
HETATM    6  O   UNL     4     -11.274  10.002  67.592  1.00  0.00    -0.248 OA 
HETATM    7  C   UNL     4     -11.709  11.792  69.113  1.00  0.00    -0.325 C  
ENDROOT
BRANCH   7   8
HETATM    8  N   UNL     4     -11.558  13.253  69.363  1.00  0.00    -0.297 NA 
BRANCH   8   9
HETATM    9  C   UNL     4     -11.499  14.176  68.225  1.00  0.00    -0.304 C  
BRANCH   9  10
HETATM   10  C   UNL     4     -10.256  15.058  68.097  1.00  0.00    -0.221 C  
BRANCH  10  11
HETATM   11  N   UNL     4     -10.394  16.152  67.103  1.00  0.00    -0.287 NA 
BRANCH  11  12
HETATM   12  C   UNL     4     -11.535  15.967  66.151  1.00  0.00     0.458 C  
HETATM   13  O   UNL     4     -11.429  16.699  63.849  1.00  0.00    -1.186 OA 
HETATM   14  O   UNL     4      -9.824  15.256  64.672  1.00  0.00    -0.053 OA 
HETATM   15  C   UNL     4     -10.913  15.945  64.710  1.00  0.00    -0.375 C  
ENDBRANCH  11  12
BRANCH  11  16
HETATM   16  C   UNL     4     -10.545  17.472  67.818  1.00  0.00    -0.375 C  
HETATM   17  C   UNL     4      -9.350  18.353  67.350  1.00  0.00    -0.272 C  
HETATM   18  O   UNL     4      -8.518  18.658  68.252  1.00  0.00    -0.304 OA 
HETATM   19  O   UNL     4      -9.247  18.380  66.065  1.00  0.00    -0.505 OA 
ENDBRANCH  11  16
ENDBRANCH  10  11
ENDBRANCH   9  10
ENDBRANCH   8   9
BRANCH   8  20
HETATM   20  C   UNL     4     -12.730  13.686  70.230  1.00  0.00    -0.098 C  
HETATM   21  C   UNL     4     -12.557  15.069  70.971  1.00  0.00    -0.350 C  
HETATM   22  O   UNL     4     -13.622  15.746  71.076  1.00  0.00    -0.568 OA 
HETATM   23  O   UNL     4     -11.390  15.382  71.391  1.00  0.00    -0.356 OA 
ENDBRANCH   8  20
ENDBRANCH   7   8
TORSDOF 7
ENDMDL
MODEL       98
REMARK 921   NORMALIZED FREE ENERGY PREDICTED BY IDOCK:   -4.67 KCAL/MOL
REMARK 922        TOTAL FREE ENERGY PREDICTED BY IDOCK:   -8.02 KCAL/MOL
REMARK 923 INTER-LIGAND FREE ENERGY PREDICTED BY IDOCK:   -7.00 KCAL/MOL
REMARK 924 INTRA-LIGAND FREE ENERGY PREDICTED BY IDOCK:   -1.02 KCAL/MOL
REMARK 927      BINDING AFFINITY PREDICTED BY RF-SCORE:    0.00 PKD
ROOT
HETATM    1 NA   UNL     1      -9.589  15.775  65.363  1.00  0.00    -0.265 Na 
HETATM    2 NA   UNL     2      -9.094  19.449  68.100  1.00  0.00    -0.273 Na 
HETATM    3 CA   UNL     3      -7.968  12.345  69.335  1.00  0.00    -0.301 Ca 
HETATM    4  O   UNL     4     -10.876  16.399  66.827  1.00  0.00    -0.237 OA 
HETATM    5  C   UNL     4     -10.656  16.754  68.021  1.00  0.00    -0.347 C  
HETATM    6  O   UNL     4      -9.787  17.645  68.318  1.00  0.00    -0.290 OA 
HETATM    7  C   UNL     4     -11.413  16.143  69.216  1.00  0.00    -0.304 C  
ENDROOT
BRANCH   7   8
HETATM    8  N   UNL     4     -12.104  14.836  69.041  1.00  0.00    -0.260 NA 
BRANCH   8   9
HETATM    9  C   UNL     4     -11.307  13.616  68.879  1.00  0.00    -0.290 C  
BRANCH   9  10
HETATM   10  C   UNL     4     -11.874  12.518  67.977  1.00  0.00    -0.325 C  
BRANCH  10  11
HETATM   11  N   UNL     4     -11.078  12.278  66.747  1.00  0.00    -0.279 NA 
BRANCH  11  12
HETATM   12  C   UNL     4     -10.271  11.016  66.782  1.00  0.00    -0.229 C  
HETATM   13  O   UNL     4      -8.267  10.727  65.460  1.00  0.00    -0.159 OA 
HETATM   14  O   UNL     4      -8.441  12.518  66.908  1.00  0.00    -0.186 OA 
HETATM   15  C   UNL     4      -8.811  11.411  66.362  1.00  0.00    -0.192 C  
ENDBRANCH  11  12
BRANCH  11  16
HETATM   16  C   UNL     4     -11.992  12.255  65.548  1.00  0.00    -0.321 C  
HETATM   17  C   UNL     4     -11.789  13.621  64.827  1.00  0.00    -0.387 C  
HETATM   18  O   UNL     4     -12.800  14.380  64.815  1.00  0.00    -0.647 OA 
HETATM   19  O   UNL     4     -10.542  13.874  64.622  1.00  0.00    -0.412 OA 
ENDBRANCH  11  16
ENDBRANCH  10  11
ENDBRANCH   9  10
ENDBRANCH   8   9
BRANCH   8  20
HETATM   20  C   UNL     4     -12.997  14.630  70.255  1.00  0.00    -0.120 C  
HETATM   21  C   UNL     4     -12.459  15.238  71.608  1.00  0.00    -0.363 C  
HETATM   22  O   UNL     4     -13.359  15.701  72.370  1.00  0.00    -0.426 OA 
HETATM   23  O   UNL     4     -11.197  15.214  71.818  1.00  0.00    -0.389 OA 
ENDBRANCH   8  20
ENDBRANCH   7   8
TORSDOF 7
ENDMDL
MODEL       99
REMARK 921   NORMALIZED FREE ENERGY PREDICTED BY IDOCK:   -4.67 KCAL/MOL
REMARK 922        TOTAL FREE ENERGY PREDICTED BY IDOCK:   -8.02 KCAL/MOL
REMARK 923 INTER-LIGAND FREE ENERGY PREDICTED BY IDOCK:   -7.62 KCAL/MOL
REMARK 924 INTRA-LIGAND FREE ENERGY PREDICTED BY IDOCK:   -0.40 KCAL/MOL
REMARK 927      BINDING AFFINITY PREDICTED BY RF-SCORE:    0.00 PKD
ROOT
HETATM    1 NA   UNL     1     -12.913  16.112  69.017  1.00  0.00    -0.545 Na 
HETATM    2 NA   UNL     2     -10.979  20.294  68.912  1.00  0.00    -0.468 Na 
HETATM    3 CA   UNL     3     -13.775  16.153  63.593  1.00  0.00    -0.308 Ca 
HETATM    4  O   UNL     4     -11.008  16.571  68.426  1.00  0.00    -0.331 OA 
HETATM    5  C   UNL     4     -10.582  17.474  67.649  1.00  0.00    -0.355 C  
HETATM    6  O   UNL     4     -10.899  18.704  67.794  1.00  0.00    -0.390 OA 
HETATM    7  C   UNL     4      -9.646  17.167  66.462  1.00  0.00    -0.279 C  
ENDROOT
BRANCH   7   8
HETATM    8  N   UNL     4      -9.567  15.772  65.948  1.00  0.00    -0.340 NA 
BRANCH   8   9
HETATM    9  C   UNL     4      -8.713  14.798  66.635  1.00  0.00    -0.194 C  
BRANCH   9  10
HETATM   10  C   UNL     4      -9.306  14.068  67.842  1.00  0.00    -0.206 C  
BRANCH  10  11
HETATM   11  N   UNL     4      -9.160  12.592  67.785  1.00  0.00    -0.183 NA 
BRANCH  11  12
HETATM   12  C   UNL     4      -8.003  12.066  68.578  1.00  0.00    -0.132 C  
HETATM   13  O   UNL     4      -6.961   9.940  68.087  1.00  0.00    -0.074 OA 
HETATM   14  O   UNL     4      -7.129  11.545  66.436  1.00  0.00    -0.065 OA 
HETATM   15  C   UNL     4      -7.229  11.079  67.634  1.00  0.00    -0.093 C  
ENDBRANCH  11  12
BRANCH  11  16
HETATM   16  C   UNL     4     -10.433  11.937  68.261  1.00  0.00    -0.205 C  
HETATM   17  C   UNL     4     -11.178  11.466  66.977  1.00  0.00    -0.283 C  
HETATM   18  O   UNL     4     -12.281  12.041  66.752  1.00  0.00    -0.545 OA 
HETATM   19  O   UNL     4     -10.410  10.782  66.199  1.00  0.00    -0.243 OA 
ENDBRANCH  11  16
ENDBRANCH  10  11
ENDBRANCH   9  10
ENDBRANCH   8   9
BRANCH   8  20
HETATM   20  C   UNL     4     -10.980  15.208  65.950  1.00  0.00    -0.339 C  
HETATM   21  C   UNL     4     -11.759  15.316  64.581  1.00  0.00    -0.308 C  
HETATM   22  O   UNL     4     -12.525  14.337  64.336  1.00  0.00    -0.630 OA 
HETATM   23  O   UNL     4     -11.559  16.350  63.856  1.00  0.00    -1.100 OA 
ENDBRANCH   8  20
ENDBRANCH   7   8
TORSDOF 7
ENDMDL
MODEL      100
REMARK 921   NORMALIZED FREE ENERGY PREDICTED BY IDOCK:   -4.65 KCAL/MOL
REMARK 922        TOTAL FREE ENERGY PREDICTED BY IDOCK:   -8.00 KCAL/MOL
REMARK 923 INTER-LIGAND FREE ENERGY PREDICTED BY IDOCK:   -6.65 KCAL/MOL
REMARK 924 INTRA-LIGAND FREE ENERGY PREDICTED BY IDOCK:   -1.35 KCAL/MOL
REMARK 927      BINDING AFFINITY PREDICTED BY RF-SCORE:    0.00 PKD
ROOT
HETATM    1 NA   UNL     1      -8.217  14.639  70.222  1.00  0.00    -0.390 Na 
HETATM    2 NA   UNL     2     -11.734  17.257  71.639  1.00  0.00    -0.639 Na 
HETATM    3 CA   UNL     3     -11.188  10.042  70.685  1.00  0.00    -0.210 Ca 
HETATM    4  O   UNL     4      -9.835  15.228  69.115  1.00  0.00    -0.215 OA 
HETATM    5  C   UNL     4     -11.070  15.209  69.388  1.00  0.00    -0.276 C  
HETATM    6  O   UNL     4     -11.539  15.722  70.461  1.00  0.00    -0.314 OA 
HETATM    7  C   UNL     4     -12.112  14.566  68.451  1.00  0.00    -0.214 C  
ENDROOT
BRANCH   7   8
HETATM    8  N   UNL     4     -11.654  13.587  67.426  1.00  0.00    -0.335 NA 
BRANCH   8   9
HETATM    9  C   UNL     4     -11.479  12.180  67.802  1.00  0.00    -0.332 C  
BRANCH   9  10
HETATM   10  C   UNL     4     -10.177  11.796  68.509  1.00  0.00    -0.210 C  
BRANCH  10  11
HETATM   11  N   UNL     4      -9.855  10.349  68.433  1.00  0.00    -0.157 NA 
BRANCH  11  12
HETATM   12  C   UNL     4     -10.648   9.604  67.404  1.00  0.00    -0.268 C  
HETATM   13  O   UNL     4     -10.295   7.254  66.953  1.00  0.00    -0.265 OA 
HETATM   14  O   UNL     4     -10.778   7.952  69.100  1.00  0.00    -0.204 OA 
HETATM   15  C   UNL     4     -10.620   8.092  67.829  1.00  0.00    -0.165 C  
ENDBRANCH  11  12
BRANCH  11  16
HETATM   16  C   UNL     4      -8.383  10.170  68.159  1.00  0.00    -0.117 C  
HETATM   17  C   UNL     4      -7.656  10.478  69.501  1.00  0.00    -0.145 C  
HETATM   18  O   UNL     4      -6.909  11.498  69.489  1.00  0.00    -0.118 OA 
HETATM   19  O   UNL     4      -8.164   9.817  70.485  1.00  0.00    -0.209 OA 
ENDBRANCH  11  16
ENDBRANCH  10  11
ENDBRANCH   9  10
ENDBRANCH   8   9
BRANCH   8  20
HETATM   20  C   UNL     4     -12.659  13.623  66.286  1.00  0.00    -0.291 C  
HETATM   21  C   UNL     4     -12.235  12.848  64.977  1.00  0.00    -0.464 C  
HETATM   22  O   UNL     4     -13.190  12.281  64.370  1.00  0.00    -0.806 OA 
HETATM   23  O   UNL     4     -10.998  12.857  64.648  1.00  0.00    -0.301 OA 
ENDBRANCH   8  20
ENDBRANCH   7   8
TORSDOF 7
ENDMDL
MODEL      101
REMARK 921   NORMALIZED FREE ENERGY PREDICTED BY IDOCK:   -4.65 KCAL/MOL
REMARK 922        TOTAL FREE ENERGY PREDICTED BY IDOCK:   -8.00 KCAL/MOL
REMARK 923 INTER-LIGAND FREE ENERGY PREDICTED BY IDOCK:   -6.89 KCAL/MOL
REMARK 924 INTRA-LIGAND FREE ENERGY PREDICTED BY IDOCK:   -1.11 KCAL/MOL
REMARK 927      BINDING AFFINITY PREDICTED BY RF-SCORE:    0.00 PKD
ROOT
HETATM    1 NA   UNL     1      -7.947   9.344  70.024  1.00  0.00    -0.062 Na 
HETATM    2 NA   UNL     2     -11.323   6.413  71.142  1.00  0.00    -0.233 Na 
HETATM    3 CA   UNL     3     -10.442  10.747  65.337  1.00  0.00    -0.227 Ca 
HETATM    4  O   UNL     4      -9.779   9.818  70.803  1.00  0.00    -0.192 OA 
HETATM    5  C   UNL     4     -10.939   9.432  70.476  1.00  0.00    -0.274 C  
HETATM    6  O   UNL     4     -11.238   8.194  70.364  1.00  0.00    -0.264 OA 
HETATM    7  C   UNL     4     -12.086  10.419  70.184  1.00  0.00    -0.256 C  
ENDROOT
BRANCH   7   8
HETATM    8  N   UNL     4     -11.755  11.836  69.863  1.00  0.00    -0.326 NA 
BRANCH   8   9
HETATM    9  C   UNL     4     -11.953  12.330  68.497  1.00  0.00    -0.219 C  
BRANCH   9  10
HETATM   10  C   UNL     4     -10.706  12.715  67.699  1.00  0.00    -0.218 C  
BRANCH  10  11
HETATM   11  N   UNL     4     -10.991  13.534  66.494  1.00  0.00    -0.289 NA 
BRANCH  11  12
HETATM   12  C   UNL     4     -12.123  13.016  65.662  1.00  0.00    -0.454 C  
HETATM   13  O   UNL     4     -12.436  13.671  63.355  1.00  0.00    -0.784 OA 
HETATM   14  O   UNL     4     -10.430  12.743  64.024  1.00  0.00    -0.406 OA 
HETATM   15  C   UNL     4     -11.657  13.114  64.166  1.00  0.00    -0.410 C  
ENDBRANCH  11  12
BRANCH  11  16
HETATM   16  C   UNL     4     -11.279  14.957  66.904  1.00  0.00    -0.343 C  
HETATM   17  C   UNL     4      -9.933  15.727  66.758  1.00  0.00    -0.252 C  
HETATM   18  O   UNL     4      -9.441  16.163  67.837  1.00  0.00    -0.212 OA 
HETATM   19  O   UNL     4      -9.394  15.536  65.602  1.00  0.00    -0.302 OA 
ENDBRANCH  11  16
ENDBRANCH  10  11
ENDBRANCH   9  10
ENDBRANCH   8   9
BRANCH   8  20
HETATM   20  C   UNL     4     -12.589  12.714  70.782  1.00  0.00    -0.217 C  
HETATM   21  C   UNL     4     -12.366  14.269  70.628  1.00  0.00    -0.361 C  
HETATM   22  O   UNL     4     -13.410  14.968  70.788  1.00  0.00    -0.372 OA 
HETATM   23  O   UNL     4     -11.184  14.682  70.363  1.00  0.00    -0.218 OA 
ENDBRANCH   8  20
ENDBRANCH   7   8
TORSDOF 7
ENDMDL
MODEL      102
REMARK 921   NORMALIZED FREE ENERGY PREDICTED BY IDOCK:   -4.65 KCAL/MOL
REMARK 922        TOTAL FREE ENERGY PREDICTED BY IDOCK:   -7.99 KCAL/MOL
REMARK 923 INTER-LIGAND FREE ENERGY PREDICTED BY IDOCK:   -7.19 KCAL/MOL
REMARK 924 INTRA-LIGAND FREE ENERGY PREDICTED BY IDOCK:   -0.80 KCAL/MOL
REMARK 927      BINDING AFFINITY PREDICTED BY RF-SCORE:    0.00 PKD
ROOT
HETATM    1 NA   UNL     1      -9.316  13.402  63.793  1.00  0.00    -0.488 Na 
HETATM    2 NA   UNL     2     -13.662  11.903  63.484  1.00  0.00    -0.665 Na 
HETATM    3 CA   UNL     3     -10.948  18.535  64.867  1.00  0.00    -0.508 Ca 
HETATM    4  O   UNL     4     -10.584  12.983  65.343  1.00  0.00    -0.281 OA 
HETATM    5  C   UNL     4     -11.790  13.316  65.534  1.00  0.00    -0.370 C  
HETATM    6  O   UNL     4     -12.698  13.120  64.656  1.00  0.00    -0.653 OA 
HETATM    7  C   UNL     4     -12.264  13.986  66.839  1.00  0.00    -0.380 C  
ENDROOT
BRANCH   7   8
HETATM    8  N   UNL     4     -11.258  14.641  67.721  1.00  0.00    -0.294 NA 
BRANCH   8   9
HETATM    9  C   UNL     4     -10.517  15.807  67.227  1.00  0.00    -0.308 C  
BRANCH   9  10
HETATM   10  C   UNL     4      -9.002  15.665  67.072  1.00  0.00    -0.222 C  
BRANCH  10  11
HETATM   11  N   UNL     4      -8.219  16.570  67.952  1.00  0.00    -0.166 NA 
BRANCH  11  12
HETATM   12  C   UNL     4      -8.837  17.923  68.134  1.00  0.00    -0.265 C  
HETATM   13  O   UNL     4      -7.781  19.658  69.447  1.00  0.00    -0.264 OA 
HETATM   14  O   UNL     4      -6.633  18.681  67.697  1.00  0.00    -0.199 OA 
HETATM   15  C   UNL     4      -7.657  18.911  68.446  1.00  0.00    -0.308 C  
ENDBRANCH  11  12
BRANCH  11  16
HETATM   16  C   UNL     4      -8.023  15.923  69.300  1.00  0.00    -0.229 C  
HETATM   17  C   UNL     4      -6.593  15.306  69.276  1.00  0.00    -0.141 C  
HETATM   18  O   UNL     4      -6.548  14.045  69.347  1.00  0.00    -0.112 OA 
HETATM   19  O   UNL     4      -5.708  16.161  68.890  1.00  0.00    -0.114 OA 
ENDBRANCH  11  16
ENDBRANCH  10  11
ENDBRANCH   9  10
ENDBRANCH   8   9
BRANCH   8  20
HETATM   20  C   UNL     4     -11.980  15.074  68.987  1.00  0.00    -0.264 C  
HETATM   21  C   UNL     4     -11.870  14.081  70.209  1.00  0.00    -0.303 C  
HETATM   22  O   UNL     4     -11.808  14.646  71.341  1.00  0.00    -0.332 OA 
HETATM   23  O   UNL     4     -11.855  12.826  69.962  1.00  0.00    -0.325 OA 
ENDBRANCH   8  20
ENDBRANCH   7   8
TORSDOF 7
ENDMDL
MODEL      103
REMARK 921   NORMALIZED FREE ENERGY PREDICTED BY IDOCK:   -4.65 KCAL/MOL
REMARK 922        TOTAL FREE ENERGY PREDICTED BY IDOCK:   -7.99 KCAL/MOL
REMARK 923 INTER-LIGAND FREE ENERGY PREDICTED BY IDOCK:   -7.31 KCAL/MOL
REMARK 924 INTRA-LIGAND FREE ENERGY PREDICTED BY IDOCK:   -0.68 KCAL/MOL
REMARK 927      BINDING AFFINITY PREDICTED BY RF-SCORE:    0.00 PKD
ROOT
HETATM    1 NA   UNL     1     -11.095  13.803  71.046  1.00  0.00    -0.503 Na 
HETATM    2 NA   UNL     2     -12.998   9.982  69.308  1.00  0.00    -0.519 Na 
HETATM    3 CA   UNL     3      -6.858  13.521  67.562  1.00  0.00    -0.090 Ca 
HETATM    4  O   UNL     4     -12.162  13.642  69.306  1.00  0.00    -0.320 OA 
HETATM    5  C   UNL     4     -12.078  12.804  68.362  1.00  0.00    -0.101 C  
HETATM    6  O   UNL     4     -12.103  11.542  68.567  1.00  0.00    -0.522 OA 
HETATM    7  C   UNL     4     -11.935  13.233  66.889  1.00  0.00    -0.375 C  
ENDROOT
BRANCH   7   8
HETATM    8  N   UNL     4     -11.467  14.614  66.581  1.00  0.00    -0.358 NA 
BRANCH   8   9
HETATM    9  C   UNL     4     -10.065  14.969  66.820  1.00  0.00    -0.254 C  
BRANCH   9  10
HETATM   10  C   UNL     4      -9.452  16.057  65.937  1.00  0.00    -0.316 C  
BRANCH  10  11
HETATM   11  N   UNL     4      -8.643  17.054  66.682  1.00  0.00    -0.233 NA 
BRANCH  11  12
HETATM   12  C   UNL     4      -7.166  16.912  66.477  1.00  0.00    -0.262 C  
HETATM   13  O   UNL     4      -5.566  17.413  68.219  1.00  0.00    -0.140 OA 
HETATM   14  O   UNL     4      -7.249  15.881  68.610  1.00  0.00    -0.127 OA 
HETATM   15  C   UNL     4      -6.539  16.689  67.899  1.00  0.00    -0.142 C  
ENDBRANCH  11  12
BRANCH  11  16
HETATM   16  C   UNL     4      -9.072  18.447  66.295  1.00  0.00    -0.201 C  
HETATM   17  C   UNL     4      -9.818  19.026  67.533  1.00  0.00    -0.324 C  
HETATM   18  O   UNL     4     -11.048  19.261  67.360  1.00  0.00    -0.444 OA 
HETATM   19  O   UNL     4      -9.129  18.893  68.614  1.00  0.00    -0.340 OA 
ENDBRANCH  11  16
ENDBRANCH  10  11
ENDBRANCH   9  10
ENDBRANCH   8   9
BRANCH   8  20
HETATM   20  C   UNL     4     -11.748  14.868  65.108  1.00  0.00    -0.295 C  
HETATM   21  C   UNL     4     -11.634  13.607  64.164  1.00  0.00    -0.352 C  
HETATM   22  O   UNL     4     -12.468  13.588  63.211  1.00  0.00    -0.763 OA 
HETATM   23  O   UNL     4     -10.736  12.737  64.431  1.00  0.00    -0.329 OA 
ENDBRANCH   8  20
ENDBRANCH   7   8
TORSDOF 7
ENDMDL
MODEL      104
REMARK 921   NORMALIZED FREE ENERGY PREDICTED BY IDOCK:   -4.64 KCAL/MOL
REMARK 922        TOTAL FREE ENERGY PREDICTED BY IDOCK:   -7.98 KCAL/MOL
REMARK 923 INTER-LIGAND FREE ENERGY PREDICTED BY IDOCK:   -7.06 KCAL/MOL
REMARK 924 INTRA-LIGAND FREE ENERGY PREDICTED BY IDOCK:   -0.92 KCAL/MOL
REMARK 927      BINDING AFFINITY PREDICTED BY RF-SCORE:    0.00 PKD
ROOT
HETATM    1 NA   UNL     1     -11.576  18.330  67.230  1.00  0.00    -0.255 Na 
HETATM    2 NA   UNL     2     -12.934  16.432  71.204  1.00  0.00    -0.524 Na 
HETATM    3 CA   UNL     3      -6.791  19.934  69.397  1.00  0.00    -0.267 Ca 
HETATM    4  O   UNL     4     -10.987  16.526  67.995  1.00  0.00    -0.352 OA 
HETATM    5  C   UNL     4     -10.596  16.211  69.157  1.00  0.00    -0.276 C  
HETATM    6  O   UNL     4     -11.267  16.507  70.204  1.00  0.00    -0.323 OA 
HETATM    7  C   UNL     4      -9.280  15.449  69.406  1.00  0.00    -0.268 C  
ENDROOT
BRANCH   7   8
HETATM    8  N   UNL     4      -8.238  15.440  68.341  1.00  0.00    -0.137 NA 
BRANCH   8   9
HETATM    9  C   UNL     4      -8.552  14.862  67.031  1.00  0.00    -0.238 C  
BRANCH   9  10
HETATM   10  C   UNL     4      -9.011  13.404  66.995  1.00  0.00    -0.224 C  
BRANCH  10  11
HETATM   11  N   UNL     4     -10.255  13.183  66.216  1.00  0.00    -0.287 NA 
BRANCH  11  12
HETATM   12  C   UNL     4     -10.546  14.262  65.219  1.00  0.00    -0.381 C  
HETATM   13  O   UNL     4     -12.549  14.262  63.863  1.00  0.00    -0.787 OA 
HETATM   14  O   UNL     4     -12.719  14.166  66.164  1.00  0.00    -0.442 OA 
HETATM   15  C   UNL     4     -12.106  14.291  65.037  1.00  0.00    -0.425 C  
ENDBRANCH  11  12
BRANCH  11  16
HETATM   16  C   UNL     4     -10.181  11.853  65.508  1.00  0.00    -0.254 C  
HETATM   17  C   UNL     4     -10.558  10.780  66.571  1.00  0.00    -0.218 C  
HETATM   18  O   UNL     4      -9.632   9.975  66.878  1.00  0.00    -0.164 OA 
HETATM   19  O   UNL     4     -11.657  11.071  67.180  1.00  0.00    -0.469 OA 
ENDBRANCH  11  16
ENDBRANCH  10  11
ENDBRANCH   9  10
ENDBRANCH   8   9
BRANCH   8  20
HETATM   20  C   UNL     4      -7.821  16.884  68.106  1.00  0.00    -0.189 C  
HETATM   21  C   UNL     4      -6.430  17.302  68.725  1.00  0.00    -0.194 C  
HETATM   22  O   UNL     4      -5.772  18.129  68.027  1.00  0.00    -0.158 OA 
HETATM   23  O   UNL     4      -6.093  16.787  69.846  1.00  0.00    -0.222 OA 
ENDBRANCH   8  20
ENDBRANCH   7   8
TORSDOF 7
ENDMDL
MODEL      105
REMARK 921   NORMALIZED FREE ENERGY PREDICTED BY IDOCK:   -4.63 KCAL/MOL
REMARK 922        TOTAL FREE ENERGY PREDICTED BY IDOCK:   -7.97 KCAL/MOL
REMARK 923 INTER-LIGAND FREE ENERGY PREDICTED BY IDOCK:   -7.24 KCAL/MOL
REMARK 924 INTRA-LIGAND FREE ENERGY PREDICTED BY IDOCK:   -0.72 KCAL/MOL
REMARK 927      BINDING AFFINITY PREDICTED BY RF-SCORE:    0.00 PKD
ROOT
HETATM    1 NA   UNL     1     -13.320  14.366  64.759  1.00  0.00    -0.641 Na 
HETATM    2 NA   UNL     2     -11.698  10.606  62.647  1.00  0.00    -0.651 Na 
HETATM    3 CA   UNL     3     -12.799  12.055  69.715  1.00  0.00    -0.156 Ca 
HETATM    4  O   UNL     4     -11.362  13.792  64.605  1.00  0.00    -0.345 OA 
HETATM    5  C   UNL     4     -10.815  12.669  64.807  1.00  0.00    -0.302 C  
HETATM    6  O   UNL     4     -11.238  11.595  64.257  1.00  0.00    -0.341 OA 
HETATM    7  C   UNL     4      -9.594  12.502  65.734  1.00  0.00    -0.129 C  
ENDROOT
BRANCH   7   8
HETATM    8  N   UNL     4      -9.298  13.563  66.736  1.00  0.00    -0.255 NA 
BRANCH   8   9
HETATM    9  C   UNL     4     -10.302  13.896  67.752  1.00  0.00    -0.240 C  
BRANCH   9  10
HETATM   10  C   UNL     4     -11.043  15.225  67.602  1.00  0.00    -0.323 C  
BRANCH  10  11
HETATM   11  N   UNL     4     -10.702  16.227  68.643  1.00  0.00    -0.290 NA 
BRANCH  11  12
HETATM   12  C   UNL     4     -10.410  15.630  69.986  1.00  0.00    -0.298 C  
HETATM   13  O   UNL     4     -11.636  16.261  71.972  1.00  0.00    -0.457 OA 
HETATM   14  O   UNL     4     -12.773  15.476  70.122  1.00  0.00    -0.347 OA 
HETATM   15  C   UNL     4     -11.731  15.760  70.826  1.00  0.00    -0.399 C  
ENDBRANCH  11  12
BRANCH  11  16
HETATM   16  C   UNL     4      -9.520  17.046  68.190  1.00  0.00    -0.262 C  
HETATM   17  C   UNL     4     -10.078  18.072  67.160  1.00  0.00    -0.346 C  
HETATM   18  O   UNL     4      -9.655  17.933  65.977  1.00  0.00    -0.502 OA 
HETATM   19  O   UNL     4     -11.102  18.706  67.620  1.00  0.00    -0.277 OA 
ENDBRANCH  11  16
ENDBRANCH  10  11
ENDBRANCH   9  10
ENDBRANCH   8   9
BRANCH   8  20
HETATM   20  C   UNL     4      -8.035  13.148  67.475  1.00  0.00    -0.179 C  
HETATM   21  C   UNL     4      -7.026  14.314  67.811  1.00  0.00    -0.177 C  
HETATM   22  O   UNL     4      -6.423  14.183  68.917  1.00  0.00    -0.085 OA 
HETATM   23  O   UNL     4      -6.904  15.265  66.964  1.00  0.00    -0.242 OA 
ENDBRANCH   8  20
ENDBRANCH   7   8
TORSDOF 7
ENDMDL
MODEL      106
REMARK 921   NORMALIZED FREE ENERGY PREDICTED BY IDOCK:   -4.61 KCAL/MOL
REMARK 922        TOTAL FREE ENERGY PREDICTED BY IDOCK:   -7.95 KCAL/MOL
REMARK 923 INTER-LIGAND FREE ENERGY PREDICTED BY IDOCK:   -6.95 KCAL/MOL
REMARK 924 INTRA-LIGAND FREE ENERGY PREDICTED BY IDOCK:   -1.00 KCAL/MOL
REMARK 927      BINDING AFFINITY PREDICTED BY RF-SCORE:    0.00 PKD
ROOT
HETATM    1 NA   UNL     1     -10.902  20.274  66.684  1.00  0.00    -0.414 Na 
HETATM    2 NA   UNL     2      -6.501  20.623  65.365  1.00  0.00    -0.198 Na 
HETATM    3 CA   UNL     3     -11.880  16.257  63.068  1.00  0.00    -0.716 Ca 
HETATM    4  O   UNL     4      -9.361  19.034  67.207  1.00  0.00    -0.297 OA 
HETATM    5  C   UNL     4      -8.466  18.488  66.498  1.00  0.00    -0.277 C  
HETATM    6  O   UNL     4      -7.737  19.156  65.688  1.00  0.00    -0.460 OA 
HETATM    7  C   UNL     4      -8.183  16.973  66.551  1.00  0.00    -0.279 C  
ENDROOT
BRANCH   7   8
HETATM    8  N   UNL     4      -9.223  16.063  67.106  1.00  0.00    -0.204 NA 
BRANCH   8   9
HETATM    9  C   UNL     4      -9.425  14.745  66.497  1.00  0.00    -0.293 C  
BRANCH   9  10
HETATM   10  C   UNL     4     -10.725  14.008  66.825  1.00  0.00    -0.285 C  
BRANCH  10  11
HETATM   11  N   UNL     4     -10.569  12.538  66.955  1.00  0.00    -0.231 NA 
BRANCH  11  12
HETATM   12  C   UNL     4      -9.526  11.956  66.051  1.00  0.00    -0.229 C  
HETATM   13  O   UNL     4      -9.865   9.882  64.855  1.00  0.00    -0.315 OA 
HETATM   14  O   UNL     4     -11.370  11.614  64.601  1.00  0.00    -0.291 OA 
HETATM   15  C   UNL     4     -10.288  11.052  65.017  1.00  0.00    -0.295 C  
ENDBRANCH  11  12
BRANCH  11  16
HETATM   16  C   UNL     4     -10.244  12.186  68.386  1.00  0.00    -0.210 C  
HETATM   17  C   UNL     4     -11.606  11.861  69.067  1.00  0.00    -0.317 C  
HETATM   18  O   UNL     4     -11.954  12.657  69.985  1.00  0.00    -0.339 OA 
HETATM   19  O   UNL     4     -12.293  11.009  68.385  1.00  0.00    -0.528 OA 
ENDBRANCH  11  16
ENDBRANCH  10  11
ENDBRANCH   9  10
ENDBRANCH   8   9
BRANCH   8  20
HETATM   20  C   UNL     4      -8.886  15.832  68.571  1.00  0.00    -0.193 C  
HETATM   21  C   UNL     4     -10.080  16.028  69.584  1.00  0.00    -0.244 C  
HETATM   22  O   UNL     4     -10.068  15.234  70.571  1.00  0.00    -0.078 OA 
HETATM   23  O   UNL     4     -10.936  16.946  69.334  1.00  0.00    -0.256 OA 
ENDBRANCH   8  20
ENDBRANCH   7   8
TORSDOF 7
ENDMDL
MODEL      107
REMARK 921   NORMALIZED FREE ENERGY PREDICTED BY IDOCK:   -4.61 KCAL/MOL
REMARK 922        TOTAL FREE ENERGY PREDICTED BY IDOCK:   -7.93 KCAL/MOL
REMARK 923 INTER-LIGAND FREE ENERGY PREDICTED BY IDOCK:   -6.68 KCAL/MOL
REMARK 924 INTRA-LIGAND FREE ENERGY PREDICTED BY IDOCK:   -1.26 KCAL/MOL
REMARK 927      BINDING AFFINITY PREDICTED BY RF-SCORE:    0.00 PKD
ROOT
HETATM    1 NA   UNL     1     -12.817  13.524  68.932  1.00  0.00    -0.271 Na 
HETATM    2 NA   UNL     2     -13.534  10.928  72.671  1.00  0.00    -0.562 Na 
HETATM    3 CA   UNL     3      -7.370  13.374  69.624  1.00  0.00    -0.234 Ca 
HETATM    4  O   UNL     4     -12.601  11.494  69.078  1.00  0.00    -0.203 OA 
HETATM    5  C   UNL     4     -12.018  10.789  69.953  1.00  0.00    -0.342 C  
HETATM    6  O   UNL     4     -12.259  10.916  71.202  1.00  0.00    -0.352 OA 
HETATM    7  C   UNL     4     -10.970   9.720  69.586  1.00  0.00    -0.241 C  
ENDROOT
BRANCH   7   8
HETATM    8  N   UNL     4     -10.309   9.785  68.252  1.00  0.00    -0.188 NA 
BRANCH   8   9
HETATM    9  C   UNL     4      -9.652  11.027  67.834  1.00  0.00    -0.172 C  
BRANCH   9  10
HETATM   10  C   UNL     4      -9.728  11.400  66.352  1.00  0.00    -0.204 C  
BRANCH  10  11
HETATM   11  N   UNL     4     -10.321  12.737  66.097  1.00  0.00    -0.264 NA 
BRANCH  11  12
HETATM   12  C   UNL     4     -11.759  12.693  65.681  1.00  0.00    -0.412 C  
HETATM   13  O   UNL     4     -12.640  14.105  63.926  1.00  0.00    -0.752 OA 
HETATM   14  O   UNL     4     -10.840  12.723  63.495  1.00  0.00    -0.396 OA 
HETATM   15  C   UNL     4     -11.808  13.204  64.197  1.00  0.00    -0.429 C  
ENDBRANCH  11  12
BRANCH  11  16
HETATM   16  C   UNL     4     -10.182  13.597  67.328  1.00  0.00    -0.246 C  
HETATM   17  C   UNL     4      -9.137  14.695  66.968  1.00  0.00    -0.238 C  
HETATM   18  O   UNL     4      -8.058  14.649  67.626  1.00  0.00    -0.146 OA 
HETATM   19  O   UNL     4      -9.423  15.284  65.858  1.00  0.00    -0.319 OA 
ENDBRANCH  11  16
ENDBRANCH  10  11
ENDBRANCH   9  10
ENDBRANCH   8   9
BRANCH   8  20
HETATM   20  C   UNL     4      -9.257   8.687  68.216  1.00  0.00    -0.137 C  
HETATM   21  C   UNL     4      -9.432   7.612  67.073  1.00  0.00    -0.163 C  
HETATM   22  O   UNL     4      -8.344   7.183  66.586  1.00  0.00    -0.108 OA 
HETATM   23  O   UNL     4     -10.620   7.272  66.745  1.00  0.00    -0.298 OA 
ENDBRANCH   8  20
ENDBRANCH   7   8
TORSDOF 7
ENDMDL
MODEL      108
REMARK 921   NORMALIZED FREE ENERGY PREDICTED BY IDOCK:   -4.60 KCAL/MOL
REMARK 922        TOTAL FREE ENERGY PREDICTED BY IDOCK:   -7.93 KCAL/MOL
REMARK 923 INTER-LIGAND FREE ENERGY PREDICTED BY IDOCK:   -7.13 KCAL/MOL
REMARK 924 INTRA-LIGAND FREE ENERGY PREDICTED BY IDOCK:   -0.79 KCAL/MOL
REMARK 927      BINDING AFFINITY PREDICTED BY RF-SCORE:    0.00 PKD
ROOT
HETATM    1 NA   UNL     1      -6.792   8.101  68.829  1.00  0.00    -0.051 Na 
HETATM    2 NA   UNL     2      -9.988   5.344  66.981  1.00  0.00    -0.122 Na 
HETATM    3 CA   UNL     3      -6.616  11.249  64.331  1.00  0.00    -0.352 Ca 
HETATM    4  O   UNL     4      -8.796   8.481  68.664  1.00  0.00    -0.135 OA 
HETATM    5  C   UNL     4      -9.581   8.352  67.680  1.00  0.00    -0.153 C  
HETATM    6  O   UNL     4      -9.669   7.262  67.017  1.00  0.00    -0.158 OA 
HETATM    7  C   UNL     4     -10.493   9.497  67.197  1.00  0.00    -0.253 C  
ENDROOT
BRANCH   7   8
HETATM    8  N   UNL     4     -10.169  10.895  67.595  1.00  0.00    -0.178 NA 
BRANCH   8   9
HETATM    9  C   UNL     4      -9.725  11.850  66.575  1.00  0.00    -0.210 C  
BRANCH   9  10
HETATM   10  C   UNL     4      -9.787  13.338  66.928  1.00  0.00    -0.247 C  
BRANCH  10  11
HETATM   11  N   UNL     4     -10.482  14.169  65.913  1.00  0.00    -0.296 NA 
BRANCH  11  12
HETATM   12  C   UNL     4      -9.692  15.357  65.458  1.00  0.00    -0.283 C  
HETATM   13  O   UNL     4     -10.670  17.559  65.256  1.00  0.00    -0.656 OA 
HETATM   14  O   UNL     4     -10.785  16.430  67.267  1.00  0.00    -0.317 OA 
HETATM   15  C   UNL     4     -10.410  16.622  66.049  1.00  0.00    -0.340 C  
ENDBRANCH  11  12
BRANCH  11  16
HETATM   16  C   UNL     4     -10.842  13.319  64.720  1.00  0.00    -0.360 C  
HETATM   17  C   UNL     4     -12.385  13.446  64.553  1.00  0.00    -0.360 C  
HETATM   18  O   UNL     4     -13.037  12.379  64.738  1.00  0.00    -0.806 OA 
HETATM   19  O   UNL     4     -12.768  14.677  64.545  1.00  0.00    -0.619 OA 
ENDBRANCH  11  16
ENDBRANCH  10  11
ENDBRANCH   9  10
ENDBRANCH   8   9
BRANCH   8  20
HETATM   20  C   UNL     4     -11.413  11.480  68.245  1.00  0.00    -0.299 C  
HETATM   21  C   UNL     4     -11.480  11.365  69.818  1.00  0.00    -0.300 C  
HETATM   22  O   UNL     4     -12.029  12.351  70.393  1.00  0.00    -0.344 OA 
HETATM   23  O   UNL     4     -10.992  10.317  70.365  1.00  0.00    -0.296 OA 
ENDBRANCH   8  20
ENDBRANCH   7   8
TORSDOF 7
ENDMDL
MODEL      109
REMARK 921   NORMALIZED FREE ENERGY PREDICTED BY IDOCK:   -4.58 KCAL/MOL
REMARK 922        TOTAL FREE ENERGY PREDICTED BY IDOCK:   -7.90 KCAL/MOL
REMARK 923 INTER-LIGAND FREE ENERGY PREDICTED BY IDOCK:   -7.61 KCAL/MOL
REMARK 924 INTRA-LIGAND FREE ENERGY PREDICTED BY IDOCK:   -0.29 KCAL/MOL
REMARK 927      BINDING AFFINITY PREDICTED BY RF-SCORE:    0.00 PKD
ROOT
HETATM    1 NA   UNL     1      -7.187  16.765  69.920  1.00  0.00    -0.229 Na 
HETATM    2 NA   UNL     2      -8.442  20.014  66.902  1.00  0.00    -0.261 Na 
HETATM    3 CA   UNL     3     -11.300  18.053  73.325  1.00  0.00    -0.384 Ca 
HETATM    4  O   UNL     4      -8.722  16.662  68.570  1.00  0.00    -0.222 OA 
HETATM    5  C   UNL     4      -9.634  17.495  68.294  1.00  0.00    -0.299 C  
HETATM    6  O   UNL     4      -9.379  18.713  68.005  1.00  0.00    -0.296 OA 
HETATM    7  C   UNL     4     -11.127  17.110  68.286  1.00  0.00    -0.118 C  
ENDROOT
BRANCH   7   8
HETATM    8  N   UNL     4     -11.560  15.883  69.010  1.00  0.00    -0.390 NA 
BRANCH   8   9
HETATM    9  C   UNL     4     -10.955  14.593  68.667  1.00  0.00    -0.256 C  
BRANCH   9  10
HETATM   10  C   UNL     4     -11.817  13.591  67.895  1.00  0.00    -0.362 C  
BRANCH  10  11
HETATM   11  N   UNL     4     -11.241  13.180  66.590  1.00  0.00    -0.296 NA 
BRANCH  11  12
HETATM   12  C   UNL     4     -11.105  14.301  65.607  1.00  0.00    -0.316 C  
HETATM   13  O   UNL     4     -12.350  14.359  63.535  1.00  0.00    -0.689 OA 
HETATM   14  O   UNL     4     -13.471  14.164  65.544  1.00  0.00    -0.643 OA 
HETATM   15  C   UNL     4     -12.443  14.337  64.786  1.00  0.00    -0.374 C  
ENDBRANCH  11  12
BRANCH  11  16
HETATM   16  C   UNL     4      -9.893  12.539  66.810  1.00  0.00    -0.229 C  
HETATM   17  C   UNL     4     -10.183  11.109  67.355  1.00  0.00    -0.190 C  
HETATM   18  O   UNL     4      -9.794  10.895  68.539  1.00  0.00    -0.170 OA 
HETATM   19  O   UNL     4     -11.031  10.476  66.619  1.00  0.00    -0.160 OA 
ENDBRANCH  11  16
ENDBRANCH  10  11
ENDBRANCH   9  10
ENDBRANCH   8   9
BRANCH   8  20
HETATM   20  C   UNL     4     -11.305  16.118  70.490  1.00  0.00    -0.373 C  
HETATM   21  C   UNL     4     -12.408  15.557  71.470  1.00  0.00    -0.401 C  
HETATM   22  O   UNL     4     -11.958  15.109  72.566  1.00  0.00    -0.376 OA 
HETATM   23  O   UNL     4     -13.628  15.600  71.089  1.00  0.00    -0.582 OA 
ENDBRANCH   8  20
ENDBRANCH   7   8
TORSDOF 7
ENDMDL
MODEL      110
REMARK 921   NORMALIZED FREE ENERGY PREDICTED BY IDOCK:   -4.58 KCAL/MOL
REMARK 922        TOTAL FREE ENERGY PREDICTED BY IDOCK:   -7.89 KCAL/MOL
REMARK 923 INTER-LIGAND FREE ENERGY PREDICTED BY IDOCK:   -7.18 KCAL/MOL
REMARK 924 INTRA-LIGAND FREE ENERGY PREDICTED BY IDOCK:   -0.71 KCAL/MOL
REMARK 927      BINDING AFFINITY PREDICTED BY RF-SCORE:    0.00 PKD
ROOT
HETATM    1 NA   UNL     1     -13.456  16.060  69.941  1.00  0.00    -0.682 Na 
HETATM    2 NA   UNL     2     -13.384  15.530  74.518  1.00  0.00    -0.660 Na 
HETATM    3 CA   UNL     3      -8.632  13.499  69.364  1.00  0.00    -0.338 Ca 
HETATM    4  O   UNL     4     -13.905  14.361  70.989  1.00  0.00    -0.278 OA 
HETATM    5  C   UNL     4     -13.290  13.790  71.936  1.00  0.00    -0.414 C  
HETATM    6  O   UNL     4     -12.928  14.418  72.989  1.00  0.00    -0.500 OA 
HETATM    7  C   UNL     4     -12.926  12.292  71.899  1.00  0.00    -0.305 C  
ENDROOT
BRANCH   7   8
HETATM    8  N   UNL     4     -12.904  11.587  70.587  1.00  0.00    -0.136 NA 
BRANCH   8   9
HETATM    9  C   UNL     4     -11.693  11.636  69.762  1.00  0.00    -0.352 C  
BRANCH   9  10
HETATM   10  C   UNL     4     -11.873  11.830  68.256  1.00  0.00    -0.271 C  
BRANCH  10  11
HETATM   11  N   UNL     4     -10.641  11.586  67.465  1.00  0.00    -0.198 NA 
BRANCH  11  12
HETATM   12  C   UNL     4     -10.102  10.195  67.595  1.00  0.00    -0.190 C  
HETATM   13  O   UNL     4      -7.991   9.530  66.621  1.00  0.00    -0.107 OA 
HETATM   14  O   UNL     4      -8.072  11.323  68.074  1.00  0.00    -0.117 OA 
HETATM   15  C   UNL     4      -8.543  10.305  67.439  1.00  0.00    -0.125 C  
ENDBRANCH  11  12
BRANCH  11  16
HETATM   16  C   UNL     4     -10.902  11.888  66.010  1.00  0.00    -0.299 C  
HETATM   17  C   UNL     4     -10.628  13.411  65.833  1.00  0.00    -0.283 C  
HETATM   18  O   UNL     4     -11.636  14.109  65.526  1.00  0.00    -0.322 OA 
HETATM   19  O   UNL     4      -9.482  13.752  66.316  1.00  0.00    -0.266 OA 
ENDBRANCH  11  16
ENDBRANCH  10  11
ENDBRANCH   9  10
ENDBRANCH   8   9
BRANCH   8  20
HETATM   20  C   UNL     4     -13.202  10.120  70.858  1.00  0.00    -0.289 C  
HETATM   21  C   UNL     4     -12.140   9.361  71.746  1.00  0.00    -0.382 C  
HETATM   22  O   UNL     4     -12.632   8.491  72.524  1.00  0.00    -0.376 OA 
HETATM   23  O   UNL     4     -10.908   9.677  71.610  1.00  0.00    -0.290 OA 
ENDBRANCH   8  20
ENDBRANCH   7   8
TORSDOF 7
ENDMDL
MODEL      111
REMARK 921   NORMALIZED FREE ENERGY PREDICTED BY IDOCK:   -4.57 KCAL/MOL
REMARK 922        TOTAL FREE ENERGY PREDICTED BY IDOCK:   -7.88 KCAL/MOL
REMARK 923 INTER-LIGAND FREE ENERGY PREDICTED BY IDOCK:   -7.03 KCAL/MOL
REMARK 924 INTRA-LIGAND FREE ENERGY PREDICTED BY IDOCK:   -0.85 KCAL/MOL
REMARK 927      BINDING AFFINITY PREDICTED BY RF-SCORE:    0.00 PKD
ROOT
HETATM    1 NA   UNL     1     -11.437   7.908  67.525  1.00  0.00    -0.483 Na 
HETATM    2 NA   UNL     2      -6.908   8.257  66.749  1.00  0.00    -0.057 Na 
HETATM    3 CA   UNL     3     -11.495  12.544  70.470  1.00  0.00    -0.403 Ca 
HETATM    4  O   UNL     4     -10.513   9.126  66.164  1.00  0.00    -0.141 OA 
HETATM    5  C   UNL     4      -9.517   9.896  66.291  1.00  0.00    -0.193 C  
HETATM    6  O   UNL     4      -8.406   9.497  66.782  1.00  0.00    -0.115 OA 
HETATM    7  C   UNL     4      -9.560  11.377  65.865  1.00  0.00    -0.227 C  
ENDROOT
BRANCH   7   8
HETATM    8  N   UNL     4     -10.883  12.042  65.698  1.00  0.00    -0.273 NA 
BRANCH   8   9
HETATM    9  C   UNL     4     -11.189  13.244  66.481  1.00  0.00    -0.304 C  
BRANCH   9  10
HETATM   10  C   UNL     4     -10.134  13.722  67.480  1.00  0.00    -0.241 C  
BRANCH  10  11
HETATM   11  N   UNL     4      -9.736  15.141  67.304  1.00  0.00    -0.209 NA 
BRANCH  11  12
HETATM   12  C   UNL     4      -8.590  15.562  68.172  1.00  0.00    -0.152 C  
HETATM   13  O   UNL     4      -8.306  17.844  68.918  1.00  0.00    -0.243 OA 
HETATM   14  O   UNL     4     -10.279  16.729  69.359  1.00  0.00    -0.272 OA 
HETATM   15  C   UNL     4      -9.065  16.845  68.943  1.00  0.00    -0.223 C  
ENDBRANCH  11  12
BRANCH  11  16
HETATM   16  C   UNL     4      -9.390  15.395  65.858  1.00  0.00    -0.294 C  
HETATM   17  C   UNL     4     -10.427  16.439  65.347  1.00  0.00    -0.311 C  
HETATM   18  O   UNL     4     -11.213  16.022  64.448  1.00  0.00    -0.531 OA 
HETATM   19  O   UNL     4     -10.507  17.460  66.129  1.00  0.00    -0.347 OA 
ENDBRANCH  11  16
ENDBRANCH  10  11
ENDBRANCH   9  10
ENDBRANCH   8   9
BRANCH   8  20
HETATM   20  C   UNL     4     -11.018  12.417  64.231  1.00  0.00    -0.351 C  
HETATM   21  C   UNL     4     -12.483  12.743  63.742  1.00  0.00    -0.383 C  
HETATM   22  O   UNL     4     -12.553  13.659  62.870  1.00  0.00    -0.621 OA 
HETATM   23  O   UNL     4     -13.448  12.076  64.250  1.00  0.00    -0.654 OA 
ENDBRANCH   8  20
ENDBRANCH   7   8
TORSDOF 7
ENDMDL
MODEL      112
REMARK 921   NORMALIZED FREE ENERGY PREDICTED BY IDOCK:   -4.56 KCAL/MOL
REMARK 922        TOTAL FREE ENERGY PREDICTED BY IDOCK:   -7.87 KCAL/MOL
REMARK 923 INTER-LIGAND FREE ENERGY PREDICTED BY IDOCK:   -6.90 KCAL/MOL
REMARK 924 INTRA-LIGAND FREE ENERGY PREDICTED BY IDOCK:   -0.97 KCAL/MOL
REMARK 927      BINDING AFFINITY PREDICTED BY RF-SCORE:    0.00 PKD
ROOT
HETATM    1 NA   UNL     1     -11.038  16.538  71.488  1.00  0.00    -0.324 Na 
HETATM    2 NA   UNL     2     -14.171  13.189  71.940  1.00  0.00    -0.385 Na 
HETATM    3 CA   UNL     3      -7.002  12.921  70.596  1.00  0.00    -0.361 Ca 
HETATM    4  O   UNL     4     -11.929  15.478  69.982  1.00  0.00    -0.322 OA 
HETATM    5  C   UNL     4     -12.112  14.233  69.847  1.00  0.00    -0.347 C  
HETATM    6  O   UNL     4     -12.663  13.523  70.757  1.00  0.00    -0.304 OA 
HETATM    7  C   UNL     4     -11.686  13.469  68.578  1.00  0.00    -0.357 C  
ENDROOT
BRANCH   7   8
HETATM    8  N   UNL     4     -10.676  14.082  67.671  1.00  0.00    -0.255 NA 
BRANCH   8   9
HETATM    9  C   UNL     4      -9.550  13.273  67.195  1.00  0.00    -0.240 C  
BRANCH   9  10
HETATM   10  C   UNL     4      -8.644  12.634  68.250  1.00  0.00    -0.167 C  
BRANCH  10  11
HETATM   11  N   UNL     4      -8.690  11.151  68.265  1.00  0.00    -0.144 NA 
BRANCH  11  12
HETATM   12  C   UNL     4      -9.197  10.546  66.992  1.00  0.00    -0.150 C  
HETATM   13  O   UNL     4     -10.237   8.364  66.922  1.00  0.00    -0.265 OA 
HETATM   14  O   UNL     4     -11.077   9.993  68.326  1.00  0.00    -0.247 OA 
HETATM   15  C   UNL     4     -10.315   9.522  67.400  1.00  0.00    -0.258 C  
ENDBRANCH  11  12
BRANCH  11  16
HETATM   16  C   UNL     4      -7.318  10.604  68.569  1.00  0.00    -0.090 C  
HETATM   17  C   UNL     4      -7.399  10.019  70.010  1.00  0.00    -0.167 C  
HETATM   18  O   UNL     4      -6.684  10.607  70.872  1.00  0.00    -0.283 OA 
HETATM   19  O   UNL     4      -8.403   9.222  70.150  1.00  0.00    -0.138 OA 
ENDBRANCH  11  16
ENDBRANCH  10  11
ENDBRANCH   9  10
ENDBRANCH   8   9
BRANCH   8  20
HETATM   20  C   UNL     4     -11.418  14.584  66.442  1.00  0.00    -0.360 C  
HETATM   21  C   UNL     4     -12.513  13.607  65.860  1.00  0.00    -0.452 C  
HETATM   22  O   UNL     4     -13.534  14.187  65.384  1.00  0.00    -0.648 OA 
HETATM   23  O   UNL     4     -12.285  12.350  65.914  1.00  0.00    -0.629 OA 
ENDBRANCH   8  20
ENDBRANCH   7   8
TORSDOF 7
ENDMDL
MODEL      113
REMARK 921   NORMALIZED FREE ENERGY PREDICTED BY IDOCK:   -4.55 KCAL/MOL
REMARK 922        TOTAL FREE ENERGY PREDICTED BY IDOCK:   -7.85 KCAL/MOL
REMARK 923 INTER-LIGAND FREE ENERGY PREDICTED BY IDOCK:   -6.07 KCAL/MOL
REMARK 924 INTRA-LIGAND FREE ENERGY PREDICTED BY IDOCK:   -1.79 KCAL/MOL
REMARK 927      BINDING AFFINITY PREDICTED BY RF-SCORE:    0.00 PKD
ROOT
HETATM    1 NA   UNL     1     -11.971   7.209  67.242  1.00  0.00    -0.535 Na 
HETATM    2 NA   UNL     2     -11.771   7.340  71.844  1.00  0.00    -0.248 Na 
HETATM    3 CA   UNL     3     -12.843  12.622  66.923  1.00  0.00    -0.162 Ca 
HETATM    4  O   UNL     4     -10.389   7.823  68.386  1.00  0.00    -0.197 OA 
HETATM    5  C   UNL     4     -10.346   8.606  69.380  1.00  0.00    -0.218 C  
HETATM    6  O   UNL     4     -11.106   8.457  70.397  1.00  0.00    -0.245 OA 
HETATM    7  C   UNL     4      -9.378   9.803  69.445  1.00  0.00    -0.202 C  
ENDROOT
BRANCH   7   8
HETATM    8  N   UNL     4      -8.780  10.318  68.182  1.00  0.00    -0.122 NA 
BRANCH   8   9
HETATM    9  C   UNL     4      -9.182  11.636  67.679  1.00  0.00    -0.178 C  
BRANCH   9  10
HETATM   10  C   UNL     4     -10.014  11.677  66.396  1.00  0.00    -0.206 C  
BRANCH  10  11
HETATM   11  N   UNL     4     -10.571  13.017  66.082  1.00  0.00    -0.273 NA 
BRANCH  11  12
HETATM   12  C   UNL     4      -9.833  14.148  66.730  1.00  0.00    -0.272 C  
HETATM   13  O   UNL     4     -10.936  16.190  67.407  1.00  0.00    -0.302 OA 
HETATM   14  O   UNL     4     -11.695  14.158  68.198  1.00  0.00    -0.316 OA 
HETATM   15  C   UNL     4     -10.892  14.947  67.570  1.00  0.00    -0.292 C  
ENDBRANCH  11  12
BRANCH  11  16
HETATM   16  C   UNL     4     -10.591  13.221  64.588  1.00  0.00    -0.404 C  
HETATM   17  C   UNL     4     -12.020  12.816  64.119  1.00  0.00    -0.427 C  
HETATM   18  O   UNL     4     -12.074  11.803  63.365  1.00  0.00    -0.491 OA 
HETATM   19  O   UNL     4     -12.937  13.400  64.813  1.00  0.00    -0.696 OA 
ENDBRANCH  11  16
ENDBRANCH  10  11
ENDBRANCH   9  10
ENDBRANCH   8   9
BRANCH   8  20
HETATM   20  C   UNL     4      -7.272  10.355  68.377  1.00  0.00    -0.080 C  
HETATM   21  C   UNL     4      -6.410  10.255  67.058  1.00  0.00    -0.071 C  
HETATM   22  O   UNL     4      -5.346  10.941  67.074  1.00  0.00    -0.042 OA 
HETATM   23  O   UNL     4      -6.844   9.511  66.113  1.00  0.00    -0.086 OA 
ENDBRANCH   8  20
ENDBRANCH   7   8
TORSDOF 7
ENDMDL
MODEL      114
REMARK 921   NORMALIZED FREE ENERGY PREDICTED BY IDOCK:   -4.54 KCAL/MOL
REMARK 922        TOTAL FREE ENERGY PREDICTED BY IDOCK:   -7.84 KCAL/MOL
REMARK 923 INTER-LIGAND FREE ENERGY PREDICTED BY IDOCK:   -6.77 KCAL/MOL
REMARK 924 INTRA-LIGAND FREE ENERGY PREDICTED BY IDOCK:   -1.07 KCAL/MOL
REMARK 927      BINDING AFFINITY PREDICTED BY RF-SCORE:    0.00 PKD
ROOT
HETATM    1 NA   UNL     1      -8.342  11.501  66.356  1.00  0.00    -0.143 Na 
HETATM    2 NA   UNL     2      -9.819   7.803  68.674  1.00  0.00    -0.150 Na 
HETATM    3 CA   UNL     3     -13.433  12.768  64.731  1.00  0.00    -0.664 Ca 
HETATM    4  O   UNL     4      -9.244  11.481  68.193  1.00  0.00    -0.168 OA 
HETATM    5  C   UNL     4     -10.284  10.882  68.593  1.00  0.00    -0.189 C  
HETATM    6  O   UNL     4     -10.452   9.625  68.428  1.00  0.00    -0.205 OA 
HETATM    7  C   UNL     4     -11.434  11.616  69.312  1.00  0.00    -0.300 C  
ENDROOT
BRANCH   7   8
HETATM    8  N   UNL     4     -11.545  13.094  69.172  1.00  0.00    -0.297 NA 
BRANCH   8   9
HETATM    9  C   UNL     4     -12.028  13.665  67.911  1.00  0.00    -0.347 C  
BRANCH   9  10
HETATM   10  C   UNL     4     -11.191  14.773  67.272  1.00  0.00    -0.346 C  
BRANCH  10  11
HETATM   11  N   UNL     4     -10.295  14.302  66.185  1.00  0.00    -0.290 NA 
BRANCH  11  12
HETATM   12  C   UNL     4     -10.994  14.070  64.881  1.00  0.00    -0.392 C  
HETATM   13  O   UNL     4     -10.216  12.442  63.271  1.00  0.00    -0.373 OA 
HETATM   14  O   UNL     4     -10.681  11.786  65.436  1.00  0.00    -0.268 OA 
HETATM   15  C   UNL     4     -10.640  12.605  64.441  1.00  0.00    -0.364 C  
ENDBRANCH  11  12
BRANCH  11  16
HETATM   16  C   UNL     4      -9.175  15.292  65.986  1.00  0.00    -0.273 C  
HETATM   17  C   UNL     4      -8.177  15.053  67.157  1.00  0.00    -0.222 C  
HETATM   18  O   UNL     4      -8.059  16.014  67.970  1.00  0.00    -0.142 OA 
HETATM   19  O   UNL     4      -7.860  13.809  67.272  1.00  0.00    -0.162 OA 
ENDBRANCH  11  16
ENDBRANCH  10  11
ENDBRANCH   9  10
ENDBRANCH   8   9
BRANCH   8  20
HETATM   20  C   UNL     4     -12.477  13.583  70.270  1.00  0.00    -0.239 C  
HETATM   21  C   UNL     4     -12.404  15.127  70.591  1.00  0.00    -0.368 C  
HETATM   22  O   UNL     4     -13.514  15.651  70.902  1.00  0.00    -0.569 OA 
HETATM   23  O   UNL     4     -11.264  15.703  70.513  1.00  0.00    -0.302 OA 
ENDBRANCH   8  20
ENDBRANCH   7   8
TORSDOF 7
ENDMDL
MODEL      115
REMARK 921   NORMALIZED FREE ENERGY PREDICTED BY IDOCK:   -4.53 KCAL/MOL
REMARK 922        TOTAL FREE ENERGY PREDICTED BY IDOCK:   -7.83 KCAL/MOL
REMARK 923 INTER-LIGAND FREE ENERGY PREDICTED BY IDOCK:   -6.63 KCAL/MOL
REMARK 924 INTRA-LIGAND FREE ENERGY PREDICTED BY IDOCK:   -1.20 KCAL/MOL
REMARK 927      BINDING AFFINITY PREDICTED BY RF-SCORE:    0.00 PKD
ROOT
HETATM    1 NA   UNL     1     -12.929  14.819  68.051  1.00  0.00    -0.554 Na 
HETATM    2 NA   UNL     2     -13.390  12.956  63.861  1.00  0.00    -0.622 Na 
HETATM    3 CA   UNL     3     -14.042  10.041  70.520  1.00  0.00    -0.400 Ca 
HETATM    4  O   UNL     4     -11.561  13.659  67.064  1.00  0.00    -0.323 OA 
HETATM    5  C   UNL     4     -11.702  12.561  66.450  1.00  0.00    -0.397 C  
HETATM    6  O   UNL     4     -12.589  12.397  65.544  1.00  0.00    -0.616 OA 
HETATM    7  C   UNL     4     -10.820  11.332  66.744  1.00  0.00    -0.282 C  
ENDROOT
BRANCH   7   8
HETATM    8  N   UNL     4     -10.078  11.268  68.034  1.00  0.00    -0.173 NA 
BRANCH   8   9
HETATM    9  C   UNL     4     -10.584  10.414  69.114  1.00  0.00    -0.228 C  
BRANCH   9  10
HETATM   10  C   UNL     4     -10.502   8.900  68.912  1.00  0.00    -0.205 C  
BRANCH  10  11
HETATM   11  N   UNL     4     -10.469   8.124  70.177  1.00  0.00    -0.221 NA 
BRANCH  11  12
HETATM   12  C   UNL     4     -11.378   6.933  70.182  1.00  0.00    -0.314 C  
HETATM   13  O   UNL     4     -12.433   6.122  72.202  1.00  0.00    -0.262 OA 
HETATM   14  O   UNL     4     -12.730   8.318  71.552  1.00  0.00    -0.309 OA 
HETATM   15  C   UNL     4     -12.324   7.102  71.424  1.00  0.00    -0.377 C  
ENDBRANCH  11  12
BRANCH  11  16
HETATM   16  C   UNL     4      -9.057   7.678  70.462  1.00  0.00    -0.151 C  
HETATM   17  C   UNL     4      -8.613   8.451  71.739  1.00  0.00    -0.176 C  
HETATM   18  O   UNL     4      -7.667   9.273  71.570  1.00  0.00    -0.340 OA 
HETATM   19  O   UNL     4      -9.476   8.343  72.691  1.00  0.00    -0.269 OA 
ENDBRANCH  11  16
ENDBRANCH  10  11
ENDBRANCH   9  10
ENDBRANCH   8   9
BRANCH   8  20
HETATM   20  C   UNL     4      -8.665  10.803  67.720  1.00  0.00    -0.130 C  
HETATM   21  C   UNL     4      -7.520  11.844  68.030  1.00  0.00    -0.107 C  
HETATM   22  O   UNL     4      -6.441  11.329  68.449  1.00  0.00    -0.055 OA 
HETATM   23  O   UNL     4      -7.767  13.084  67.837  1.00  0.00    -0.117 OA 
ENDBRANCH   8  20
ENDBRANCH   7   8
TORSDOF 7
ENDMDL
MODEL      116
REMARK 921   NORMALIZED FREE ENERGY PREDICTED BY IDOCK:   -4.52 KCAL/MOL
REMARK 922        TOTAL FREE ENERGY PREDICTED BY IDOCK:   -7.81 KCAL/MOL
REMARK 923 INTER-LIGAND FREE ENERGY PREDICTED BY IDOCK:   -6.70 KCAL/MOL
REMARK 924 INTRA-LIGAND FREE ENERGY PREDICTED BY IDOCK:   -1.11 KCAL/MOL
REMARK 927      BINDING AFFINITY PREDICTED BY RF-SCORE:    0.00 PKD
ROOT
HETATM    1 NA   UNL     1     -14.159  14.066  65.423  1.00  0.00    -0.748 Na 
HETATM    2 NA   UNL     2     -12.451  11.089  62.347  1.00  0.00    -0.913 Na 
HETATM    3 CA   UNL     3     -14.131  10.281  69.403  1.00  0.00    -0.313 Ca 
HETATM    4  O   UNL     4     -12.209  13.469  65.241  1.00  0.00    -0.390 OA 
HETATM    5  C   UNL     4     -11.710  12.314  65.114  1.00  0.00    -0.361 C  
HETATM    6  O   UNL     4     -12.110  11.493  64.219  1.00  0.00    -0.105 OA 
HETATM    7  C   UNL     4     -10.580  11.799  66.028  1.00  0.00    -0.260 C  
ENDROOT
BRANCH   7   8
HETATM    8  N   UNL     4     -10.346  12.472  67.336  1.00  0.00    -0.215 NA 
BRANCH   8   9
HETATM    9  C   UNL     4      -9.993  11.665  68.508  1.00  0.00    -0.194 C  
BRANCH   9  10
HETATM   10  C   UNL     4      -9.588  10.210  68.266  1.00  0.00    -0.141 C  
BRANCH  10  11
HETATM   11  N   UNL     4     -10.244   9.242  69.181  1.00  0.00    -0.199 NA 
BRANCH  11  12
HETATM   12  C   UNL     4      -9.566   7.907  69.240  1.00  0.00    -0.157 C  
HETATM   13  O   UNL     4     -10.803   5.830  69.261  1.00  0.00    -0.311 OA 
HETATM   14  O   UNL     4     -11.133   7.346  67.551  1.00  0.00    -0.146 OA 
HETATM   15  C   UNL     4     -10.564   6.873  68.606  1.00  0.00    -0.223 C  
ENDBRANCH  11  12
BRANCH  11  16
HETATM   16  C   UNL     4     -10.321   9.827  70.569  1.00  0.00    -0.283 C  
HETATM   17  C   UNL     4     -11.834   9.868  70.934  1.00  0.00    -0.356 C  
HETATM   18  O   UNL     4     -12.321  11.025  71.083  1.00  0.00    -0.361 OA 
HETATM   19  O   UNL     4     -12.408   8.731  70.734  1.00  0.00    -0.147 OA 
ENDBRANCH  11  16
ENDBRANCH  10  11
ENDBRANCH   9  10
ENDBRANCH   8   9
BRANCH   8  20
HETATM   20  C   UNL     4      -9.226  13.480  67.132  1.00  0.00    -0.236 C  
HETATM   21  C   UNL     4      -9.549  14.959  67.580  1.00  0.00    -0.204 C  
HETATM   22  O   UNL     4      -8.564  15.584  68.074  1.00  0.00    -0.153 OA 
HETATM   23  O   UNL     4     -10.741  15.390  67.411  1.00  0.00    -0.284 OA 
ENDBRANCH   8  20
ENDBRANCH   7   8
TORSDOF 7
ENDMDL
MODEL      117
REMARK 921   NORMALIZED FREE ENERGY PREDICTED BY IDOCK:   -4.51 KCAL/MOL
REMARK 922        TOTAL FREE ENERGY PREDICTED BY IDOCK:   -7.80 KCAL/MOL
REMARK 923 INTER-LIGAND FREE ENERGY PREDICTED BY IDOCK:   -6.78 KCAL/MOL
REMARK 924 INTRA-LIGAND FREE ENERGY PREDICTED BY IDOCK:   -1.02 KCAL/MOL
REMARK 927      BINDING AFFINITY PREDICTED BY RF-SCORE:    0.00 PKD
ROOT
HETATM    1 NA   UNL     1      -9.592   8.703  63.951  1.00  0.00    -0.381 Na 
HETATM    2 NA   UNL     2     -11.300   5.592  66.890  1.00  0.00    -0.354 Na 
HETATM    3 CA   UNL     3     -13.826  12.104  64.772  1.00  0.00    -0.553 Ca 
HETATM    4  O   UNL     4      -9.515   8.771  65.995  1.00  0.00    -0.227 OA 
HETATM    5  C   UNL     4     -10.418   8.580  66.860  1.00  0.00    -0.275 C  
HETATM    6  O   UNL     4     -11.150   7.532  66.861  1.00  0.00    -0.184 OA 
HETATM    7  C   UNL     4     -10.712   9.594  67.984  1.00  0.00    -0.232 C  
ENDROOT
BRANCH   7   8
HETATM    8  N   UNL     4     -10.243  10.999  67.829  1.00  0.00    -0.179 NA 
BRANCH   8   9
HETATM    9  C   UNL     4     -11.178  12.101  68.075  1.00  0.00    -0.264 C  
BRANCH   9  10
HETATM   10  C   UNL     4     -10.586  13.498  68.269  1.00  0.00    -0.250 C  
BRANCH  10  11
HETATM   11  N   UNL     4     -11.147  14.524  67.354  1.00  0.00    -0.303 NA 
BRANCH  11  12
HETATM   12  C   UNL     4     -12.242  14.013  66.469  1.00  0.00    -0.451 C  
HETATM   13  O   UNL     4     -12.623  14.891  64.249  1.00  0.00    -0.699 OA 
HETATM   14  O   UNL     4     -10.546  14.055  64.813  1.00  0.00    -0.397 OA 
HETATM   15  C   UNL     4     -11.796  14.311  64.993  1.00  0.00    -0.396 C  
ENDBRANCH  11  12
BRANCH  11  16
HETATM   16  C   UNL     4     -11.655  15.696  68.156  1.00  0.00    -0.283 C  
HETATM   17  C   UNL     4     -10.745  16.902  67.779  1.00  0.00    -0.315 C  
HETATM   18  O   UNL     4     -10.031  17.354  68.719  1.00  0.00    -0.300 OA 
HETATM   19  O   UNL     4     -10.650  17.050  66.501  1.00  0.00    -0.270 OA 
ENDBRANCH  11  16
ENDBRANCH  10  11
ENDBRANCH   9  10
ENDBRANCH   8   9
BRANCH   8  20
HETATM   20  C   UNL     4      -9.067  11.190  68.774  1.00  0.00    -0.139 C  
HETATM   21  C   UNL     4      -7.693  11.555  68.089  1.00  0.00    -0.120 C  
HETATM   22  O   UNL     4      -6.970  12.354  68.756  1.00  0.00    -0.087 OA 
HETATM   23  O   UNL     4      -7.431  11.030  66.952  1.00  0.00    -0.119 OA 
ENDBRANCH   8  20
ENDBRANCH   7   8
TORSDOF 7
ENDMDL
MODEL      118
REMARK 921   NORMALIZED FREE ENERGY PREDICTED BY IDOCK:   -4.50 KCAL/MOL
REMARK 922        TOTAL FREE ENERGY PREDICTED BY IDOCK:   -7.79 KCAL/MOL
REMARK 923 INTER-LIGAND FREE ENERGY PREDICTED BY IDOCK:   -6.64 KCAL/MOL
REMARK 924 INTRA-LIGAND FREE ENERGY PREDICTED BY IDOCK:   -1.14 KCAL/MOL
REMARK 927      BINDING AFFINITY PREDICTED BY RF-SCORE:    0.00 PKD
ROOT
HETATM    1 NA   UNL     1     -12.704  13.681  68.274  1.00  0.00    -0.321 Na 
HETATM    2 NA   UNL     2     -12.904  11.828  72.489  1.00  0.00    -0.405 Na 
HETATM    3 CA   UNL     3      -7.223  13.332  68.160  1.00  0.00    -0.070 Ca 
HETATM    4  O   UNL     4     -12.531  11.699  68.755  1.00  0.00    -0.272 OA 
HETATM    5  C   UNL     4     -11.840  11.125  69.646  1.00  0.00    -0.348 C  
HETATM    6  O   UNL     4     -11.877  11.483  70.873  1.00  0.00    -0.224 OA 
HETATM    7  C   UNL     4     -10.897   9.948  69.328  1.00  0.00    -0.227 C  
ENDROOT
BRANCH   7   8
HETATM    8  N   UNL     4     -10.453   9.739  67.921  1.00  0.00    -0.224 NA 
BRANCH   8   9
HETATM    9  C   UNL     4      -9.797  10.835  67.203  1.00  0.00    -0.185 C  
BRANCH   9  10
HETATM   10  C   UNL     4     -10.286  11.143  65.786  1.00  0.00    -0.260 C  
BRANCH  10  11
HETATM   11  N   UNL     4     -10.480  12.590  65.516  1.00  0.00    -0.273 NA 
BRANCH  11  12
HETATM   12  C   UNL     4      -9.336  13.448  65.962  1.00  0.00     0.012 C  
HETATM   13  O   UNL     4      -9.418  15.863  65.862  1.00  0.00    -0.328 OA 
HETATM   14  O   UNL     4     -11.049  14.704  67.014  1.00  0.00    -0.315 OA 
HETATM   15  C   UNL     4      -9.950  14.839  66.355  1.00  0.00    -0.277 C  
ENDBRANCH  11  12
BRANCH  11  16
HETATM   16  C   UNL     4     -10.723  12.803  64.043  1.00  0.00    -0.426 C  
HETATM   17  C   UNL     4     -12.269  12.885  63.871  1.00  0.00    -0.449 C  
HETATM   18  O   UNL     4     -12.786  11.950  63.196  1.00  0.00    -0.636 OA 
HETATM   19  O   UNL     4     -12.800  13.726  64.692  1.00  0.00    -0.662 OA 
ENDBRANCH  11  16
ENDBRANCH  10  11
ENDBRANCH   9  10
ENDBRANCH   8   9
BRANCH   8  20
HETATM   20  C   UNL     4      -9.488   8.563  67.922  1.00  0.00    -0.139 C  
HETATM   21  C   UNL     4     -10.051   7.217  67.320  1.00  0.00    -0.225 C  
HETATM   22  O   UNL     4      -9.198   6.528  66.687  1.00  0.00    -0.144 OA 
HETATM   23  O   UNL     4     -11.285   6.942  67.517  1.00  0.00    -0.245 OA 
ENDBRANCH   8  20
ENDBRANCH   7   8
TORSDOF 7
ENDMDL
MODEL      119
REMARK 921   NORMALIZED FREE ENERGY PREDICTED BY IDOCK:   -4.50 KCAL/MOL
REMARK 922        TOTAL FREE ENERGY PREDICTED BY IDOCK:   -7.79 KCAL/MOL
REMARK 923 INTER-LIGAND FREE ENERGY PREDICTED BY IDOCK:   -7.28 KCAL/MOL
REMARK 924 INTRA-LIGAND FREE ENERGY PREDICTED BY IDOCK:   -0.51 KCAL/MOL
REMARK 927      BINDING AFFINITY PREDICTED BY RF-SCORE:    0.00 PKD
ROOT
HETATM    1 NA   UNL     1     -13.251  14.675  69.334  1.00  0.00    -0.560 Na 
HETATM    2 NA   UNL     2      -8.912  16.131  69.866  1.00  0.00    -0.240 Na 
HETATM    3 CA   UNL     3     -12.837  14.802  63.858  1.00  0.00    -0.562 Ca 
HETATM    4  O   UNL     4     -11.548  13.556  69.148  1.00  0.00    -0.269 OA 
HETATM    5  C   UNL     4     -10.472  13.791  68.525  1.00  0.00    -0.244 C  
HETATM    6  O   UNL     4      -9.816  14.877  68.685  1.00  0.00    -0.212 OA 
HETATM    7  C   UNL     4      -9.863  12.791  67.523  1.00  0.00    -0.211 C  
ENDROOT
BRANCH   7   8
HETATM    8  N   UNL     4     -10.733  11.728  66.945  1.00  0.00    -0.238 NA 
BRANCH   8   9
HETATM    9  C   UNL     4     -11.133  10.592  67.781  1.00  0.00    -0.321 C  
BRANCH   9  10
HETATM   10  C   UNL     4     -10.357  10.363  69.078  1.00  0.00    -0.214 C  
BRANCH  10  11
HETATM   11  N   UNL     4     -10.919   9.290  69.936  1.00  0.00    -0.230 NA 
BRANCH  11  12
HETATM   12  C   UNL     4     -10.043   8.080  70.048  1.00  0.00    -0.196 C  
HETATM   13  O   UNL     4     -10.555   6.247  71.540  1.00  0.00    -0.224 OA 
HETATM   14  O   UNL     4     -12.108   6.918  69.968  1.00  0.00    -0.176 OA 
HETATM   15  C   UNL     4     -10.961   6.911  70.555  1.00  0.00    -0.273 C  
ENDBRANCH  11  12
BRANCH  11  16
HETATM   16  C   UNL     4     -11.200   9.835  71.314  1.00  0.00    -0.347 C  
HETATM   17  C   UNL     4     -12.577  10.555  71.218  1.00  0.00    -0.426 C  
HETATM   18  O   UNL     4     -12.546  11.806  71.398  1.00  0.00    -0.337 OA 
HETATM   19  O   UNL     4     -13.476   9.802  70.681  1.00  0.00    -0.181 OA 
ENDBRANCH  11  16
ENDBRANCH  10  11
ENDBRANCH   9  10
ENDBRANCH   8   9
BRANCH   8  20
HETATM   20  C   UNL     4     -12.008  12.401  66.463  1.00  0.00    -0.252 C  
HETATM   21  C   UNL     4     -12.161  12.533  64.897  1.00  0.00    -0.440 C  
HETATM   22  O   UNL     4     -13.348  12.405  64.473  1.00  0.00    -0.800 OA 
HETATM   23  O   UNL     4     -11.106  12.751  64.208  1.00  0.00    -0.327 OA 
ENDBRANCH   8  20
ENDBRANCH   7   8
TORSDOF 7
ENDMDL
MODEL      120
REMARK 921   NORMALIZED FREE ENERGY PREDICTED BY IDOCK:   -4.50 KCAL/MOL
REMARK 922        TOTAL FREE ENERGY PREDICTED BY IDOCK:   -7.78 KCAL/MOL
REMARK 923 INTER-LIGAND FREE ENERGY PREDICTED BY IDOCK:   -7.25 KCAL/MOL
REMARK 924 INTRA-LIGAND FREE ENERGY PREDICTED BY IDOCK:   -0.54 KCAL/MOL
REMARK 927      BINDING AFFINITY PREDICTED BY RF-SCORE:    0.00 PKD
ROOT
HETATM    1 NA   UNL     1      -9.330   8.011  67.059  1.00  0.00    -0.125 Na 
HETATM    2 NA   UNL     2      -7.233   9.371  63.187  1.00  0.00    -0.099 Na 
HETATM    3 CA   UNL     3      -7.986  12.659  69.660  1.00  0.00    -0.320 Ca 
HETATM    4  O   UNL     4     -10.047   9.335  65.673  1.00  0.00    -0.215 OA 
HETATM    5  C   UNL     4      -9.490  10.323  65.112  1.00  0.00    -0.252 C  
HETATM    6  O   UNL     4      -8.358  10.225  64.525  1.00  0.00    -0.163 OA 
HETATM    7  C   UNL     4     -10.126  11.727  65.092  1.00  0.00    -0.259 C  
ENDROOT
BRANCH   7   8
HETATM    8  N   UNL     4     -11.188  12.052  66.085  1.00  0.00    -0.330 NA 
BRANCH   8   9
HETATM    9  C   UNL     4     -10.866  12.913  67.228  1.00  0.00    -0.255 C  
BRANCH   9  10
HETATM   10  C   UNL     4     -12.031  13.599  67.944  1.00  0.00    -0.347 C  
BRANCH  10  11
HETATM   11  N   UNL     4     -11.621  14.421  69.110  1.00  0.00    -0.287 NA 
BRANCH  11  12
HETATM   12  C   UNL     4     -11.901  13.779  70.434  1.00  0.00    -0.253 C  
HETATM   13  O   UNL     4     -12.013  15.050  72.488  1.00  0.00    -0.358 OA 
HETATM   14  O   UNL     4     -13.366  15.623  70.707  1.00  0.00    -0.535 OA 
HETATM   15  C   UNL     4     -12.517  14.897  71.349  1.00  0.00    -0.337 C  
ENDBRANCH  11  12
BRANCH  11  16
HETATM   16  C   UNL     4     -10.151  14.746  69.011  1.00  0.00    -0.232 C  
HETATM   17  C   UNL     4     -10.068  16.177  68.403  1.00  0.00    -0.236 C  
HETATM   18  O   UNL     4      -9.534  16.248  67.260  1.00  0.00    -0.223 OA 
HETATM   19  O   UNL     4     -10.822  17.011  69.035  1.00  0.00    -0.304 OA 
ENDBRANCH  11  16
ENDBRANCH  10  11
ENDBRANCH   9  10
ENDBRANCH   8   9
BRANCH   8  20
HETATM   20  C   UNL     4     -12.325  12.721  65.328  1.00  0.00    -0.488 C  
HETATM   21  C   UNL     4     -11.896  13.844  64.305  1.00  0.00    -0.412 C  
HETATM   22  O   UNL     4     -12.603  13.896  63.255  1.00  0.00    -0.824 OA 
HETATM   23  O   UNL     4     -10.901  14.587  64.611  1.00  0.00    -0.391 OA 
ENDBRANCH   8  20
ENDBRANCH   7   8
TORSDOF 7
ENDMDL
MODEL      121
REMARK 921   NORMALIZED FREE ENERGY PREDICTED BY IDOCK:   -4.49 KCAL/MOL
REMARK 922        TOTAL FREE ENERGY PREDICTED BY IDOCK:   -7.77 KCAL/MOL
REMARK 923 INTER-LIGAND FREE ENERGY PREDICTED BY IDOCK:   -6.60 KCAL/MOL
REMARK 924 INTRA-LIGAND FREE ENERGY PREDICTED BY IDOCK:   -1.18 KCAL/MOL
REMARK 927      BINDING AFFINITY PREDICTED BY RF-SCORE:    0.00 PKD
ROOT
HETATM    1 NA   UNL     1     -10.866   9.739  67.285  1.00  0.00    -0.210 Na 
HETATM    2 NA   UNL     2     -12.970  12.196  64.003  1.00  0.00    -0.404 Na 
HETATM    3 CA   UNL     3      -6.803  13.410  67.712  1.00  0.00    -0.071 Ca 
HETATM    4  O   UNL     4     -12.015  11.412  67.548  1.00  0.00    -0.626 OA 
HETATM    5  C   UNL     4     -12.001  12.525  66.945  1.00  0.00    -0.236 C  
HETATM    6  O   UNL     4     -12.058  12.609  65.671  1.00  0.00    -0.438 OA 
HETATM    7  C   UNL     4     -11.911  13.868  67.695  1.00  0.00    -0.368 C  
ENDROOT
BRANCH   7   8
HETATM    8  N   UNL     4     -11.413  13.880  69.099  1.00  0.00    -0.279 NA 
BRANCH   8   9
HETATM    9  C   UNL     4     -10.477  14.926  69.522  1.00  0.00    -0.201 C  
BRANCH   9  10
HETATM   10  C   UNL     4     -10.289  16.124  68.590  1.00  0.00    -0.252 C  
BRANCH  10  11
HETATM   11  N   UNL     4      -8.876  16.379  68.213  1.00  0.00    -0.196 NA 
BRANCH  11  12
HETATM   12  C   UNL     4      -7.880  15.853  69.200  1.00  0.00    -0.227 C  
HETATM   13  O   UNL     4      -5.526  16.389  69.070  1.00  0.00    -0.116 OA 
HETATM   14  O   UNL     4      -7.087  18.087  69.172  1.00  0.00    -0.257 OA 
HETATM   15  C   UNL     4      -6.679  16.865  69.202  1.00  0.00    -0.232 C  
ENDBRANCH  11  12
BRANCH  11  16
HETATM   16  C   UNL     4      -8.598  15.785  66.854  1.00  0.00    -0.247 C  
HETATM   17  C   UNL     4      -9.121  16.822  65.817  1.00  0.00     0.070 C  
HETATM   18  O   UNL     4     -10.094  16.434  65.110  1.00  0.00    -0.529 OA 
HETATM   19  O   UNL     4      -8.671  18.007  66.054  1.00  0.00    -0.498 OA 
ENDBRANCH  11  16
ENDBRANCH  10  11
ENDBRANCH   9  10
ENDBRANCH   8   9
BRANCH   8  20
HETATM   20  C   UNL     4     -12.627  13.972  70.009  1.00  0.00    -0.194 C  
HETATM   21  C   UNL     4     -12.688  12.909  71.175  1.00  0.00    -0.276 C  
HETATM   22  O   UNL     4     -13.191  13.342  72.254  1.00  0.00    -0.449 OA 
HETATM   23  O   UNL     4     -12.239  11.735  70.941  1.00  0.00    -0.362 OA 
ENDBRANCH   8  20
ENDBRANCH   7   8
TORSDOF 7
ENDMDL
MODEL      122
REMARK 921   NORMALIZED FREE ENERGY PREDICTED BY IDOCK:   -4.49 KCAL/MOL
REMARK 922        TOTAL FREE ENERGY PREDICTED BY IDOCK:   -7.77 KCAL/MOL
REMARK 923 INTER-LIGAND FREE ENERGY PREDICTED BY IDOCK:   -6.99 KCAL/MOL
REMARK 924 INTRA-LIGAND FREE ENERGY PREDICTED BY IDOCK:   -0.78 KCAL/MOL
REMARK 927      BINDING AFFINITY PREDICTED BY RF-SCORE:    0.00 PKD
ROOT
HETATM    1 NA   UNL     1     -13.671  14.519  70.021  1.00  0.00    -0.549 Na 
HETATM    2 NA   UNL     2     -10.825  18.128  70.362  1.00  0.00    -0.478 Na 
HETATM    3 CA   UNL     3     -13.522  14.662  64.533  1.00  0.00    -0.567 Ca 
HETATM    4  O   UNL     4     -11.638  14.508  69.787  1.00  0.00    -0.266 OA 
HETATM    5  C   UNL     4     -10.881  15.271  69.120  1.00  0.00    -0.250 C  
HETATM    6  O   UNL     4     -10.923  16.544  69.237  1.00  0.00    -0.316 OA 
HETATM    7  C   UNL     4      -9.848  14.732  68.111  1.00  0.00    -0.221 C  
ENDROOT
BRANCH   7   8
HETATM    8  N   UNL     4     -10.007  13.348  67.585  1.00  0.00    -0.225 NA 
BRANCH   8   9
HETATM    9  C   UNL     4      -9.703  12.207  68.455  1.00  0.00    -0.193 C  
BRANCH   9  10
HETATM   10  C   UNL     4     -10.795  11.153  68.642  1.00  0.00    -0.209 C  
BRANCH  10  11
HETATM   11  N   UNL     4     -10.343   9.939  69.368  1.00  0.00    -0.206 NA 
BRANCH  11  12
HETATM   12  C   UNL     4     -10.951   9.785  70.728  1.00  0.00    -0.336 C  
HETATM   13  O   UNL     4     -10.428   7.917  72.173  1.00  0.00    -0.217 OA 
HETATM   14  O   UNL     4      -8.728   9.252  71.359  1.00  0.00    -0.317 OA 
HETATM   15  C   UNL     4      -9.953   8.907  71.565  1.00  0.00    -0.320 C  
ENDBRANCH  11  12
BRANCH  11  16
HETATM   16  C   UNL     4     -10.641   8.713  68.543  1.00  0.00    -0.119 C  
HETATM   17  C   UNL     4      -9.503   8.622  67.484  1.00  0.00    -0.149 C  
HETATM   18  O   UNL     4      -9.870   8.768  66.283  1.00  0.00    -0.268 OA 
HETATM   19  O   UNL     4      -8.336   8.707  68.025  1.00  0.00    -0.121 OA 
ENDBRANCH  11  16
ENDBRANCH  10  11
ENDBRANCH   9  10
ENDBRANCH   8   9
BRANCH   8  20
HETATM   20  C   UNL     4     -11.453  13.198  67.139  1.00  0.00    -0.334 C  
HETATM   21  C   UNL     4     -11.691  13.216  65.579  1.00  0.00    -0.357 C  
HETATM   22  O   UNL     4     -12.618  12.449  65.180  1.00  0.00    -0.622 OA 
HETATM   23  O   UNL     4     -10.952  13.980  64.867  1.00  0.00    -0.350 OA 
ENDBRANCH   8  20
ENDBRANCH   7   8
TORSDOF 7
ENDMDL
MODEL      123
REMARK 921   NORMALIZED FREE ENERGY PREDICTED BY IDOCK:   -4.49 KCAL/MOL
REMARK 922        TOTAL FREE ENERGY PREDICTED BY IDOCK:   -7.77 KCAL/MOL
REMARK 923 INTER-LIGAND FREE ENERGY PREDICTED BY IDOCK:   -7.40 KCAL/MOL
REMARK 924 INTRA-LIGAND FREE ENERGY PREDICTED BY IDOCK:   -0.37 KCAL/MOL
REMARK 927      BINDING AFFINITY PREDICTED BY RF-SCORE:    0.00 PKD
ROOT
HETATM    1 NA   UNL     1     -14.121  14.117  65.446  1.00  0.00    -0.781 Na 
HETATM    2 NA   UNL     2     -12.918  10.941  62.332  1.00  0.00    -0.953 Na 
HETATM    3 CA   UNL     3     -12.257  11.044  69.599  1.00  0.00    -0.234 Ca 
HETATM    4  O   UNL     4     -12.242  13.759  64.719  1.00  0.00    -0.382 OA 
HETATM    5  C   UNL     4     -11.611  12.673  64.567  1.00  0.00    -0.345 C  
HETATM    6  O   UNL     4     -12.111  11.676  63.941  1.00  0.00    -0.332 OA 
HETATM    7  C   UNL     4     -10.189  12.460  65.124  1.00  0.00    -0.281 C  
ENDROOT
BRANCH   7   8
HETATM    8  N   UNL     4      -9.697  13.356  66.208  1.00  0.00    -0.284 NA 
BRANCH   8   9
HETATM    9  C   UNL     4     -10.583  13.684  67.329  1.00  0.00    -0.267 C  
BRANCH   9  10
HETATM   10  C   UNL     4      -9.977  14.447  68.508  1.00  0.00    -0.237 C  
BRANCH  10  11
HETATM   11  N   UNL     4     -10.473  15.840  68.644  1.00  0.00    -0.224 NA 
BRANCH  11  12
HETATM   12  C   UNL     4     -10.050  16.746  67.529  1.00  0.00    -0.276 C  
HETATM   13  O   UNL     4     -10.775  19.048  67.390  1.00  0.00    -0.461 OA 
HETATM   14  O   UNL     4      -9.702  18.295  69.290  1.00  0.00    -0.155 OA 
HETATM   15  C   UNL     4     -10.150  18.211  68.084  1.00  0.00    -0.378 C  
ENDBRANCH  11  12
BRANCH  11  16
HETATM   16  C   UNL     4     -11.978  15.835  68.743  1.00  0.00    -0.210 C  
HETATM   17  C   UNL     4     -12.309  15.458  70.217  1.00  0.00    -0.388 C  
HETATM   18  O   UNL     4     -12.908  14.355  70.371  1.00  0.00    -0.350 OA 
HETATM   19  O   UNL     4     -11.659  16.188  71.057  1.00  0.00    -0.413 OA 
ENDBRANCH  11  16
ENDBRANCH  10  11
ENDBRANCH   9  10
ENDBRANCH   8   9
BRANCH   8  20
HETATM   20  C   UNL     4      -8.452  12.711  66.796  1.00  0.00    -0.049 C  
HETATM   21  C   UNL     4      -8.605  11.201  67.230  1.00  0.00    -0.140 C  
HETATM   22  O   UNL     4      -7.571  10.494  67.042  1.00  0.00    -0.101 OA 
HETATM   23  O   UNL     4      -9.725  10.829  67.722  1.00  0.00    -0.159 OA 
ENDBRANCH   8  20
ENDBRANCH   7   8
TORSDOF 7
ENDMDL
MODEL      124
REMARK 921   NORMALIZED FREE ENERGY PREDICTED BY IDOCK:   -4.47 KCAL/MOL
REMARK 922        TOTAL FREE ENERGY PREDICTED BY IDOCK:   -7.74 KCAL/MOL
REMARK 923 INTER-LIGAND FREE ENERGY PREDICTED BY IDOCK:   -6.52 KCAL/MOL
REMARK 924 INTRA-LIGAND FREE ENERGY PREDICTED BY IDOCK:   -1.22 KCAL/MOL
REMARK 927      BINDING AFFINITY PREDICTED BY RF-SCORE:    0.00 PKD
ROOT
HETATM    1 NA   UNL     1     -10.658  19.652  66.515  1.00  0.00    -0.323 Na 
HETATM    2 NA   UNL     2      -6.651  20.828  64.567  1.00  0.00    -0.246 Na 
HETATM    3 CA   UNL     3     -10.911  14.974  63.647  1.00  0.00    -0.539 Ca 
HETATM    4  O   UNL     4      -8.803  18.925  66.984  1.00  0.00    -0.281 OA 
HETATM    5  C   UNL     4      -7.872  18.501  66.240  1.00  0.00    -0.254 C  
HETATM    6  O   UNL     4      -7.425  19.181  65.254  1.00  0.00    -0.381 OA 
HETATM    7  C   UNL     4      -7.201  17.130  66.458  1.00  0.00    -0.273 C  
ENDROOT
BRANCH   7   8
HETATM    8  N   UNL     4      -7.909  16.101  67.269  1.00  0.00    -0.160 NA 
BRANCH   8   9
HETATM    9  C   UNL     4      -8.705  15.072  66.592  1.00  0.00    -0.254 C  
BRANCH   9  10
HETATM   10  C   UNL     4     -10.227  15.216  66.634  1.00  0.00    -0.266 C  
BRANCH  10  11
HETATM   11  N   UNL     4     -10.927  14.047  67.224  1.00  0.00    -0.290 NA 
BRANCH  11  12
HETATM   12  C   UNL     4     -10.652  13.848  68.683  1.00  0.00    -0.257 C  
HETATM   13  O   UNL     4     -11.437  11.907  69.893  1.00  0.00    -0.265 OA 
HETATM   14  O   UNL     4     -10.139  11.636  68.002  1.00  0.00    -0.179 OA 
HETATM   15  C   UNL     4     -10.719  12.301  68.941  1.00  0.00    -0.172 C  
ENDBRANCH  11  12
BRANCH  11  16
HETATM   16  C   UNL     4     -12.413  14.183  67.008  1.00  0.00    -0.057 C  
HETATM   17  C   UNL     4     -12.715  13.480  65.651  1.00  0.00    -0.421 C  
HETATM   18  O   UNL     4     -13.131  14.241  64.731  1.00  0.00    -0.599 OA 
HETATM   19  O   UNL     4     -12.211  12.295  65.601  1.00  0.00    -0.605 OA 
ENDBRANCH  11  16
ENDBRANCH  10  11
ENDBRANCH   9  10
ENDBRANCH   8   9
BRANCH   8  20
HETATM   20  C   UNL     4      -6.860  15.379  68.100  1.00  0.00    -0.127 C  
HETATM   21  C   UNL     4      -6.524  16.037  69.495  1.00  0.00    -0.187 C  
HETATM   22  O   UNL     4      -6.269  15.208  70.418  1.00  0.00    -0.143 OA 
HETATM   23  O   UNL     4      -6.536  17.314  69.575  1.00  0.00    -0.240 OA 
ENDBRANCH   8  20
ENDBRANCH   7   8
TORSDOF 7
ENDMDL
MODEL      125
REMARK 921   NORMALIZED FREE ENERGY PREDICTED BY IDOCK:   -4.47 KCAL/MOL
REMARK 922        TOTAL FREE ENERGY PREDICTED BY IDOCK:   -7.74 KCAL/MOL
REMARK 923 INTER-LIGAND FREE ENERGY PREDICTED BY IDOCK:   -6.68 KCAL/MOL
REMARK 924 INTRA-LIGAND FREE ENERGY PREDICTED BY IDOCK:   -1.06 KCAL/MOL
REMARK 927      BINDING AFFINITY PREDICTED BY RF-SCORE:    0.00 PKD
ROOT
HETATM    1 NA   UNL     1     -11.068  10.325  62.350  1.00  0.00    -0.549 Na 
HETATM    2 NA   UNL     2      -6.476  10.524  62.674  1.00  0.00    -0.109 Na 
HETATM    3 CA   UNL     3     -11.286   5.743  65.370  1.00  0.00    -0.458 Ca 
HETATM    4  O   UNL     4      -9.976  10.983  63.951  1.00  0.00    -0.279 OA 
HETATM    5  C   UNL     4      -8.976  10.471  64.532  1.00  0.00    -0.209 C  
HETATM    6  O   UNL     4      -7.932  10.102  63.892  1.00  0.00    -0.153 OA 
HETATM    7  C   UNL     4      -8.932  10.248  66.057  1.00  0.00    -0.152 C  
ENDROOT
BRANCH   7   8
HETATM    8  N   UNL     4     -10.210  10.231  66.821  1.00  0.00    -0.219 NA 
BRANCH   8   9
HETATM    9  C   UNL     4     -10.422   9.205  67.847  1.00  0.00    -0.237 C  
BRANCH   9  10
HETATM   10  C   UNL     4     -10.295   9.635  69.310  1.00  0.00    -0.209 C  
BRANCH  10  11
HETATM   11  N   UNL     4     -10.651   8.572  70.283  1.00  0.00    -0.222 NA 
BRANCH  11  12
HETATM   12  C   UNL     4      -9.576   7.548  70.482  1.00  0.00    -0.168 C  
HETATM   13  O   UNL     4     -10.030   5.365  71.418  1.00  0.00    -0.170 OA 
HETATM   14  O   UNL     4     -11.188   6.078  69.552  1.00  0.00    -0.398 OA 
HETATM   15  C   UNL     4     -10.288   6.148  70.472  1.00  0.00    -0.215 C  
ENDBRANCH  11  12
BRANCH  11  16
HETATM   16  C   UNL     4     -11.002   9.196  71.611  1.00  0.00    -0.374 C  
HETATM   17  C   UNL     4     -12.556   9.278  71.648  1.00  0.00    -0.365 C  
HETATM   18  O   UNL     4     -13.034  10.449  71.666  1.00  0.00    -0.406 OA 
HETATM   19  O   UNL     4     -13.105   8.148  71.357  1.00  0.00    -0.298 OA 
ENDBRANCH  11  16
ENDBRANCH  10  11
ENDBRANCH   9  10
ENDBRANCH   8   9
BRANCH   8  20
HETATM   20  C   UNL     4     -10.347  11.583  67.504  1.00  0.00    -0.194 C  
HETATM   21  C   UNL     4     -11.654  12.396  67.152  1.00  0.00    -0.365 C  
HETATM   22  O   UNL     4     -12.128  13.070  68.114  1.00  0.00    -0.307 OA 
HETATM   23  O   UNL     4     -12.111  12.311  65.960  1.00  0.00    -0.623 OA 
ENDBRANCH   8  20
ENDBRANCH   7   8
TORSDOF 7
ENDMDL
MODEL      126
REMARK 921   NORMALIZED FREE ENERGY PREDICTED BY IDOCK:   -4.46 KCAL/MOL
REMARK 922        TOTAL FREE ENERGY PREDICTED BY IDOCK:   -7.73 KCAL/MOL
REMARK 923 INTER-LIGAND FREE ENERGY PREDICTED BY IDOCK:   -6.30 KCAL/MOL
REMARK 924 INTRA-LIGAND FREE ENERGY PREDICTED BY IDOCK:   -1.44 KCAL/MOL
REMARK 927      BINDING AFFINITY PREDICTED BY RF-SCORE:    0.00 PKD
ROOT
HETATM    1 NA   UNL     1     -11.726  10.367  67.734  1.00  0.00    -0.305 Na 
HETATM    2 NA   UNL     2     -13.992  11.767  63.974  1.00  0.00    -0.711 Na 
HETATM    3 CA   UNL     3      -6.911  12.075  65.717  1.00  0.00    -0.346 Ca 
HETATM    4  O   UNL     4     -12.271  12.284  67.271  1.00  0.00    -0.485 OA 
HETATM    5  C   UNL     4     -12.148  12.939  66.195  1.00  0.00    -0.393 C  
HETATM    6  O   UNL     4     -12.554  12.485  65.071  1.00  0.00    -0.592 OA 
HETATM    7  C   UNL     4     -11.496  14.335  66.150  1.00  0.00    -0.355 C  
ENDROOT
BRANCH   7   8
HETATM    8  N   UNL     4     -10.621  14.760  67.277  1.00  0.00    -0.269 NA 
BRANCH   8   9
HETATM    9  C   UNL     4      -9.166  14.626  67.150  1.00  0.00    -0.221 C  
BRANCH   9  10
HETATM   10  C   UNL     4      -8.462  13.658  68.103  1.00  0.00    -0.175 C  
BRANCH  10  11
HETATM   11  N   UNL     4      -7.147  14.145  68.593  1.00  0.00    -0.103 NA 
BRANCH  11  12
HETATM   12  C   UNL     4      -7.241  15.330  69.504  1.00  0.00    -0.205 C  
HETATM   13  O   UNL     4      -5.360  16.793  69.916  1.00  0.00    -0.160 OA 
HETATM   14  O   UNL     4      -6.072  16.420  67.751  1.00  0.00    -0.112 OA 
HETATM   15  C   UNL     4      -6.131  16.338  69.037  1.00  0.00    -0.142 C  
ENDBRANCH  11  12
BRANCH  11  16
HETATM   16  C   UNL     4      -6.423  13.026  69.298  1.00  0.00    -0.103 C  
HETATM   17  C   UNL     4      -5.800  12.143  68.177  1.00  0.00    -0.056 C  
HETATM   18  O   UNL     4      -6.262  10.969  68.095  1.00  0.00    -0.049 OA 
HETATM   19  O   UNL     4      -5.130  12.846  67.328  1.00  0.00    -0.307 OA 
ENDBRANCH  11  16
ENDBRANCH  10  11
ENDBRANCH   9  10
ENDBRANCH   8   9
BRANCH   8  20
HETATM   20  C   UNL     4     -10.912  16.228  67.547  1.00  0.00    -0.207 C  
HETATM   21  C   UNL     4     -10.568  16.737  69.001  1.00  0.00    -0.343 C  
HETATM   22  O   UNL     4     -10.134  17.926  69.052  1.00  0.00    -0.359 OA 
HETATM   23  O   UNL     4     -10.750  15.931  69.977  1.00  0.00    -0.298 OA 
ENDBRANCH   8  20
ENDBRANCH   7   8
TORSDOF 7
ENDMDL
MODEL      127
REMARK 921   NORMALIZED FREE ENERGY PREDICTED BY IDOCK:   -4.46 KCAL/MOL
REMARK 922        TOTAL FREE ENERGY PREDICTED BY IDOCK:   -7.73 KCAL/MOL
REMARK 923 INTER-LIGAND FREE ENERGY PREDICTED BY IDOCK:   -6.39 KCAL/MOL
REMARK 924 INTRA-LIGAND FREE ENERGY PREDICTED BY IDOCK:   -1.34 KCAL/MOL
REMARK 927      BINDING AFFINITY PREDICTED BY RF-SCORE:    0.00 PKD
ROOT
HETATM    1 NA   UNL     1     -13.681  11.786  64.506  1.00  0.00    -0.438 Na 
HETATM    2 NA   UNL     2      -9.409  13.336  63.740  1.00  0.00    -0.539 Na 
HETATM    3 CA   UNL     3     -11.851   7.734  67.731  1.00  0.00    -0.250 Ca 
HETATM    4  O   UNL     4     -12.539  12.918  65.771  1.00  0.00    -0.538 OA 
HETATM    5  C   UNL     4     -11.332  12.790  66.130  1.00  0.00    -0.328 C  
HETATM    6  O   UNL     4     -10.381  12.662  65.285  1.00  0.00    -0.281 OA 
HETATM    7  C   UNL     4     -10.909  12.775  67.612  1.00  0.00    -0.228 C  
ENDROOT
BRANCH   7   8
HETATM    8  N   UNL     4     -11.934  12.482  68.652  1.00  0.00    -0.284 NA 
BRANCH   8   9
HETATM    9  C   UNL     4     -12.095  11.108  69.139  1.00  0.00    -0.283 C  
BRANCH   9  10
HETATM   10  C   UNL     4     -11.105  10.614  70.195  1.00  0.00    -0.268 C  
BRANCH  10  11
HETATM   11  N   UNL     4     -10.224   9.514  69.727  1.00  0.00    -0.212 NA 
BRANCH  11  12
HETATM   12  C   UNL     4      -9.017   9.982  68.974  1.00  0.00    -0.163 C  
HETATM   13  O   UNL     4      -8.049   8.705  67.163  1.00  0.00    -0.100 OA 
HETATM   14  O   UNL     4     -10.277   9.305  67.082  1.00  0.00    -0.219 OA 
HETATM   15  C   UNL     4      -9.081   9.297  67.562  1.00  0.00    -0.120 C  
ENDBRANCH  11  12
BRANCH  11  16
HETATM   16  C   UNL     4      -9.788   8.677  70.904  1.00  0.00    -0.205 C  
HETATM   17  C   UNL     4     -10.792   7.490  70.982  1.00  0.00    -0.235 C  
HETATM   18  O   UNL     4     -11.519   7.466  72.017  1.00  0.00    -0.257 OA 
HETATM   19  O   UNL     4     -10.925   6.897  69.845  1.00  0.00    -0.249 OA 
ENDBRANCH  11  16
ENDBRANCH  10  11
ENDBRANCH   9  10
ENDBRANCH   8   9
BRANCH   8  20
HETATM   20  C   UNL     4     -11.613  13.349  69.860  1.00  0.00    -0.200 C  
HETATM   21  C   UNL     4     -12.037  14.865  69.743  1.00  0.00    -0.314 C  
HETATM   22  O   UNL     4     -12.433  15.384  70.828  1.00  0.00    -0.360 OA 
HETATM   23  O   UNL     4     -11.946  15.428  68.598  1.00  0.00    -0.319 OA 
ENDBRANCH   8  20
ENDBRANCH   7   8
TORSDOF 7
ENDMDL
MODEL      128
REMARK 921   NORMALIZED FREE ENERGY PREDICTED BY IDOCK:   -4.44 KCAL/MOL
REMARK 922        TOTAL FREE ENERGY PREDICTED BY IDOCK:   -7.70 KCAL/MOL
REMARK 923 INTER-LIGAND FREE ENERGY PREDICTED BY IDOCK:   -6.48 KCAL/MOL
REMARK 924 INTRA-LIGAND FREE ENERGY PREDICTED BY IDOCK:   -1.22 KCAL/MOL
REMARK 927      BINDING AFFINITY PREDICTED BY RF-SCORE:    0.00 PKD
ROOT
HETATM    1 NA   UNL     1     -12.161   6.698  67.600  1.00  0.00    -0.611 Na 
HETATM    2 NA   UNL     2      -7.765   5.628  68.475  1.00  0.00    -0.075 Na 
HETATM    3 CA   UNL     3     -11.660  11.605  70.016  1.00  0.00    -0.217 Ca 
HETATM    4  O   UNL     4     -10.510   7.353  66.582  1.00  0.00    -0.254 OA 
HETATM    5  C   UNL     4      -9.415   7.824  67.006  1.00  0.00    -0.164 C  
HETATM    6  O   UNL     4      -8.710   7.223  67.887  1.00  0.00    -0.123 OA 
HETATM    7  C   UNL     4      -8.840   9.161  66.497  1.00  0.00    -0.134 C  
ENDROOT
BRANCH   7   8
HETATM    8  N   UNL     4      -9.750  10.128  65.824  1.00  0.00    -0.226 NA 
BRANCH   8   9
HETATM    9  C   UNL     4     -10.468  11.122  66.629  1.00  0.00    -0.250 C  
BRANCH   9  10
HETATM   10  C   UNL     4      -9.774  12.462  66.878  1.00  0.00    -0.215 C  
BRANCH  10  11
HETATM   11  N   UNL     4     -10.678  13.636  66.777  1.00  0.00    -0.272 NA 
BRANCH  11  12
HETATM   12  C   UNL     4     -10.390  14.711  67.780  1.00  0.00    -0.237 C  
HETATM   13  O   UNL     4     -12.147  15.948  68.888  1.00  0.00    -0.315 OA 
HETATM   14  O   UNL     4     -12.113  13.642  69.008  1.00  0.00    -0.344 OA 
HETATM   15  C   UNL     4     -11.656  14.808  68.703  1.00  0.00    -0.319 C  
ENDBRANCH  11  12
BRANCH  11  16
HETATM   16  C   UNL     4     -10.605  14.215  65.386  1.00  0.00    -0.346 C  
HETATM   17  C   UNL     4     -11.916  13.776  64.670  1.00  0.00    -0.416 C  
HETATM   18  O   UNL     4     -11.759  12.993  63.690  1.00  0.00    -0.463 OA 
HETATM   19  O   UNL     4     -12.962  14.047  65.374  1.00  0.00    -0.726 OA 
ENDBRANCH  11  16
ENDBRANCH  10  11
ENDBRANCH   9  10
ENDBRANCH   8   9
BRANCH   8  20
HETATM   20  C   UNL     4      -8.922  10.894  64.803  1.00  0.00    -0.140 C  
HETATM   21  C   UNL     4      -8.901  10.285  63.347  1.00  0.00    -0.221 C  
HETATM   22  O   UNL     4      -8.869  11.146  62.418  1.00  0.00    -0.311 OA 
HETATM   23  O   UNL     4      -8.917   9.011  63.228  1.00  0.00    -0.100 OA 
ENDBRANCH   8  20
ENDBRANCH   7   8
TORSDOF 7
ENDMDL
MODEL      129
REMARK 921   NORMALIZED FREE ENERGY PREDICTED BY IDOCK:   -4.44 KCAL/MOL
REMARK 922        TOTAL FREE ENERGY PREDICTED BY IDOCK:   -7.69 KCAL/MOL
REMARK 923 INTER-LIGAND FREE ENERGY PREDICTED BY IDOCK:   -6.68 KCAL/MOL
REMARK 924 INTRA-LIGAND FREE ENERGY PREDICTED BY IDOCK:   -1.01 KCAL/MOL
REMARK 927      BINDING AFFINITY PREDICTED BY RF-SCORE:    0.00 PKD
ROOT
HETATM    1 NA   UNL     1     -13.064  14.530  68.509  1.00  0.00    -0.549 Na 
HETATM    2 NA   UNL     2     -13.240  13.364  64.054  1.00  0.00    -0.619 Na 
HETATM    3 CA   UNL     3     -14.252   9.410  70.105  1.00  0.00    -0.626 Ca 
HETATM    4  O   UNL     4     -11.621  13.551  67.437  1.00  0.00    -0.317 OA 
HETATM    5  C   UNL     4     -11.708  12.566  66.647  1.00  0.00    -0.387 C  
HETATM    6  O   UNL     4     -12.535  12.546  65.672  1.00  0.00    -0.648 OA 
HETATM    7  C   UNL     4     -10.826  11.311  66.794  1.00  0.00    -0.282 C  
ENDROOT
BRANCH   7   8
HETATM    8  N   UNL     4     -10.163  11.044  68.101  1.00  0.00    -0.176 NA 
BRANCH   8   9
HETATM    9  C   UNL     4     -10.667   9.965  68.957  1.00  0.00    -0.222 C  
BRANCH   9  10
HETATM   10  C   UNL     4      -9.642   9.175  69.773  1.00  0.00    -0.181 C  
BRANCH  10  11
HETATM   11  N   UNL     4     -10.241   8.144  70.658  1.00  0.00    -0.195 NA 
BRANCH  11  12
HETATM   12  C   UNL     4     -10.489   8.616  72.058  1.00  0.00    -0.352 C  
HETATM   13  O   UNL     4     -10.404   7.123  73.958  1.00  0.00    -0.349 OA 
HETATM   14  O   UNL     4      -8.584   7.291  72.546  1.00  0.00    -0.110 OA 
HETATM   15  C   UNL     4      -9.747   7.607  73.005  1.00  0.00    -0.244 C  
ENDBRANCH  11  12
BRANCH  11  16
HETATM   16  C   UNL     4     -11.534   7.650  70.059  1.00  0.00     0.005 C  
HETATM   17  C   UNL     4     -11.226   6.239  69.478  1.00  0.00    -0.430 C  
HETATM   18  O   UNL     4     -11.318   6.141  68.221  1.00  0.00    -0.253 OA 
HETATM   19  O   UNL     4     -10.641   5.481  70.342  1.00  0.00    -0.276 OA 
ENDBRANCH  11  16
ENDBRANCH  10  11
ENDBRANCH   9  10
ENDBRANCH   8   9
BRANCH   8  20
HETATM   20  C   UNL     4      -8.701  10.740  67.813  1.00  0.00    -0.130 C  
HETATM   21  C   UNL     4      -7.707  11.955  67.978  1.00  0.00    -0.132 C  
HETATM   22  O   UNL     4      -6.566  11.642  68.430  1.00  0.00    -0.057 OA 
HETATM   23  O   UNL     4      -8.122  13.120  67.650  1.00  0.00    -0.149 OA 
ENDBRANCH   8  20
ENDBRANCH   7   8
TORSDOF 7
ENDMDL
MODEL      130
REMARK 921   NORMALIZED FREE ENERGY PREDICTED BY IDOCK:   -4.40 KCAL/MOL
REMARK 922        TOTAL FREE ENERGY PREDICTED BY IDOCK:   -7.65 KCAL/MOL
REMARK 923 INTER-LIGAND FREE ENERGY PREDICTED BY IDOCK:   -6.65 KCAL/MOL
REMARK 924 INTRA-LIGAND FREE ENERGY PREDICTED BY IDOCK:   -1.00 KCAL/MOL
REMARK 927      BINDING AFFINITY PREDICTED BY RF-SCORE:    0.00 PKD
ROOT
HETATM    1 NA   UNL     1     -12.010  16.978  71.359  1.00  0.00    -0.619 Na 
HETATM    2 NA   UNL     2     -13.588  12.880  72.759  1.00  0.00    -0.458 Na 
HETATM    3 CA   UNL     3      -7.003  14.944  70.383  1.00  0.00    -0.165 Ca 
HETATM    4  O   UNL     4     -12.564  15.404  70.174  1.00  0.00    -0.364 OA 
HETATM    5  C   UNL     4     -12.274  14.175  70.248  1.00  0.00    -0.349 C  
HETATM    6  O   UNL     4     -12.431  13.501  71.324  1.00  0.00    -0.347 OA 
HETATM    7  C   UNL     4     -11.705  13.388  69.051  1.00  0.00    -0.323 C  
ENDROOT
BRANCH   7   8
HETATM    8  N   UNL     4     -11.088  14.138  67.922  1.00  0.00    -0.260 NA 
BRANCH   8   9
HETATM    9  C   UNL     4      -9.772  13.730  67.420  1.00  0.00    -0.235 C  
BRANCH   9  10
HETATM   10  C   UNL     4      -9.139  12.480  68.034  1.00  0.00    -0.200 C  
BRANCH  10  11
HETATM   11  N   UNL     4      -9.399  11.235  67.268  1.00  0.00    -0.165 NA 
BRANCH  11  12
HETATM   12  C   UNL     4      -8.668  11.163  65.963  1.00  0.00    -0.183 C  
HETATM   13  O   UNL     4      -9.298   9.616  64.214  1.00  0.00    -0.244 OA 
HETATM   14  O   UNL     4     -10.858  11.096  65.056  1.00  0.00    -0.261 OA 
HETATM   15  C   UNL     4      -9.684  10.582  64.916  1.00  0.00    -0.300 C  
ENDBRANCH  11  12
BRANCH  11  16
HETATM   16  C   UNL     4      -9.041  10.037  68.111  1.00  0.00    -0.121 C  
HETATM   17  C   UNL     4     -10.256   9.798  69.055  1.00  0.00    -0.203 C  
HETATM   18  O   UNL     4     -10.024   9.965  70.286  1.00  0.00    -0.254 OA 
HETATM   19  O   UNL     4     -11.369   9.759  68.405  1.00  0.00    -0.087 OA 
ENDBRANCH  11  16
ENDBRANCH  10  11
ENDBRANCH   9  10
ENDBRANCH   8   9
BRANCH   8  20
HETATM   20  C   UNL     4     -12.055  14.067  66.750  1.00  0.00    -0.447 C  
HETATM   21  C   UNL     4     -11.599  14.825  65.442  1.00  0.00    -0.316 C  
HETATM   22  O   UNL     4     -11.937  14.257  64.362  1.00  0.00    -0.438 OA 
HETATM   23  O   UNL     4     -10.947  15.917  65.578  1.00  0.00    -0.312 OA 
ENDBRANCH   8  20
ENDBRANCH   7   8
TORSDOF 7
ENDMDL
MODEL      131
REMARK 921   NORMALIZED FREE ENERGY PREDICTED BY IDOCK:   -4.39 KCAL/MOL
REMARK 922        TOTAL FREE ENERGY PREDICTED BY IDOCK:   -7.62 KCAL/MOL
REMARK 923 INTER-LIGAND FREE ENERGY PREDICTED BY IDOCK:   -6.49 KCAL/MOL
REMARK 924 INTRA-LIGAND FREE ENERGY PREDICTED BY IDOCK:   -1.14 KCAL/MOL
REMARK 927      BINDING AFFINITY PREDICTED BY RF-SCORE:    0.00 PKD
ROOT
HETATM    1 NA   UNL     1     -11.702  15.461  63.347  1.00  0.00    -0.730 Na 
HETATM    2 NA   UNL     2      -8.838  18.408  65.434  1.00  0.00    -0.040 Na 
HETATM    3 CA   UNL     3      -7.875  11.524  63.208  1.00  0.00    -0.370 Ca 
HETATM    4  O   UNL     4     -11.192  15.485  65.329  1.00  0.00    -0.334 OA 
HETATM    5  C   UNL     4     -10.061  15.578  65.888  1.00  0.00    -0.349 C  
HETATM    6  O   UNL     4      -9.234  16.510  65.600  1.00  0.00    -0.481 OA 
HETATM    7  C   UNL     4      -9.584  14.577  66.959  1.00  0.00    -0.245 C  
ENDROOT
BRANCH   7   8
HETATM    8  N   UNL     4     -10.251  13.249  67.053  1.00  0.00    -0.242 NA 
BRANCH   8   9
HETATM    9  C   UNL     4      -9.434  12.042  67.212  1.00  0.00    -0.181 C  
BRANCH   9  10
HETATM   10  C   UNL     4      -8.442  11.709  66.096  1.00  0.00    -0.008 C  
BRANCH  10  11
HETATM   11  N   UNL     4      -8.867  10.581  65.229  1.00  0.00    -0.182 NA 
BRANCH  11  12
HETATM   12  C   UNL     4      -8.463   9.235  65.744  1.00  0.00    -0.135 C  
HETATM   13  O   UNL     4      -8.128   7.339  64.280  1.00  0.00    -0.126 OA 
HETATM   14  O   UNL     4      -6.955   9.294  63.915  1.00  0.00    -0.089 OA 
HETATM   15  C   UNL     4      -7.744   8.501  64.556  1.00  0.00    -0.126 C  
ENDBRANCH  11  12
BRANCH  11  16
HETATM   16  C   UNL     4     -10.363  10.619  65.044  1.00  0.00    -0.271 C  
HETATM   17  C   UNL     4     -10.605  11.200  63.619  1.00  0.00    -0.347 C  
HETATM   18  O   UNL     4     -11.188  12.321  63.585  1.00  0.00    -0.397 OA 
HETATM   19  O   UNL     4      -9.909  10.584  62.725  1.00  0.00    -0.294 OA 
ENDBRANCH  11  16
ENDBRANCH  10  11
ENDBRANCH   9  10
ENDBRANCH   8   9
BRANCH   8  20
HETATM   20  C   UNL     4     -11.203  13.304  68.237  1.00  0.00    -0.277 C  
HETATM   21  C   UNL     4     -11.764  11.912  68.728  1.00  0.00    -0.321 C  
HETATM   22  O   UNL     4     -11.925  11.823  69.981  1.00  0.00    -0.321 OA 
HETATM   23  O   UNL     4     -12.002  11.016  67.846  1.00  0.00    -0.620 OA 
ENDBRANCH   8  20
ENDBRANCH   7   8
TORSDOF 7
ENDMDL
MODEL      132
REMARK 921   NORMALIZED FREE ENERGY PREDICTED BY IDOCK:   -4.39 KCAL/MOL
REMARK 922        TOTAL FREE ENERGY PREDICTED BY IDOCK:   -7.62 KCAL/MOL
REMARK 923 INTER-LIGAND FREE ENERGY PREDICTED BY IDOCK:   -5.90 KCAL/MOL
REMARK 924 INTRA-LIGAND FREE ENERGY PREDICTED BY IDOCK:   -1.73 KCAL/MOL
REMARK 927      BINDING AFFINITY PREDICTED BY RF-SCORE:    0.00 PKD
ROOT
HETATM    1 NA   UNL     1     -13.308  11.333  70.741  1.00  0.00    -0.305 Na 
HETATM    2 NA   UNL     2     -10.727   8.107  72.782  1.00  0.00    -0.226 Na 
HETATM    3 CA   UNL     3      -9.242  15.019  70.971  1.00  0.00    -0.301 Ca 
HETATM    4  O   UNL     4     -11.842  10.200  69.871  1.00  0.00    -0.217 OA 
HETATM    5  C   UNL     4     -10.667   9.934  70.259  1.00  0.00    -0.310 C  
HETATM    6  O   UNL     4     -10.424   9.467  71.425  1.00  0.00    -0.333 OA 
HETATM    7  C   UNL     4      -9.433  10.152  69.362  1.00  0.00    -0.224 C  
ENDROOT
BRANCH   7   8
HETATM    8  N   UNL     4      -9.542  11.069  68.194  1.00  0.00    -0.165 NA 
BRANCH   8   9
HETATM    9  C   UNL     4      -9.436  12.516  68.402  1.00  0.00    -0.167 C  
BRANCH   9  10
HETATM   10  C   UNL     4     -10.486  13.405  67.733  1.00  0.00    -0.243 C  
BRANCH  10  11
HETATM   11  N   UNL     4     -10.862  14.599  68.531  1.00  0.00    -0.243 NA 
BRANCH  11  12
HETATM   12  C   UNL     4     -10.786  15.886  67.768  1.00  0.00    -0.324 C  
HETATM   13  O   UNL     4     -10.177  17.977  68.819  1.00  0.00    -0.377 OA 
HETATM   14  O   UNL     4      -8.761  16.160  68.970  1.00  0.00    -0.235 OA 
HETATM   15  C   UNL     4      -9.792  16.812  68.555  1.00  0.00    -0.257 C  
ENDBRANCH  11  12
BRANCH  11  16
HETATM   16  C   UNL     4     -12.254  14.424  69.083  1.00  0.00    -0.220 C  
HETATM   17  C   UNL     4     -12.101  14.398  70.632  1.00  0.00    -0.334 C  
HETATM   18  O   UNL     4     -12.405  13.303  71.186  1.00  0.00    -0.343 OA 
HETATM   19  O   UNL     4     -11.410  15.397  71.064  1.00  0.00    -0.315 OA 
ENDBRANCH  11  16
ENDBRANCH  10  11
ENDBRANCH   9  10
ENDBRANCH   8   9
BRANCH   8  20
HETATM   20  C   UNL     4      -8.453  10.677  67.208  1.00  0.00    -0.126 C  
HETATM   21  C   UNL     4      -8.957  10.118  65.821  1.00  0.00    -0.160 C  
HETATM   22  O   UNL     4      -8.237  10.443  64.830  1.00  0.00    -0.159 OA 
HETATM   23  O   UNL     4     -10.018   9.403  65.811  1.00  0.00    -0.309 OA 
ENDBRANCH   8  20
ENDBRANCH   7   8
TORSDOF 7
ENDMDL
MODEL      133
REMARK 921   NORMALIZED FREE ENERGY PREDICTED BY IDOCK:   -4.38 KCAL/MOL
REMARK 922        TOTAL FREE ENERGY PREDICTED BY IDOCK:   -7.62 KCAL/MOL
REMARK 923 INTER-LIGAND FREE ENERGY PREDICTED BY IDOCK:   -6.33 KCAL/MOL
REMARK 924 INTRA-LIGAND FREE ENERGY PREDICTED BY IDOCK:   -1.29 KCAL/MOL
REMARK 927      BINDING AFFINITY PREDICTED BY RF-SCORE:    0.00 PKD
ROOT
HETATM    1 NA   UNL     1     -11.812  10.024  67.474  1.00  0.00    -0.445 Na 
HETATM    2 NA   UNL     2     -14.149  11.741  63.893  1.00  0.00    -0.655 Na 
HETATM    3 CA   UNL     3      -6.979  11.185  65.136  1.00  0.00    -0.295 Ca 
HETATM    4  O   UNL     4     -12.157  11.999  67.065  1.00  0.00    -0.603 OA 
HETATM    5  C   UNL     4     -12.031  12.652  65.988  1.00  0.00    -0.417 C  
HETATM    6  O   UNL     4     -12.565  12.267  64.892  1.00  0.00    -0.547 OA 
HETATM    7  C   UNL     4     -11.223  13.962  65.907  1.00  0.00    -0.297 C  
ENDROOT
BRANCH   7   8
HETATM    8  N   UNL     4     -10.228  14.263  66.973  1.00  0.00    -0.258 NA 
BRANCH   8   9
HETATM    9  C   UNL     4      -9.092  13.358  67.175  1.00  0.00    -0.235 C  
BRANCH   9  10
HETATM   10  C   UNL     4      -8.898  12.772  68.575  1.00  0.00    -0.040 C  
BRANCH  10  11
HETATM   11  N   UNL     4      -8.337  11.398  68.581  1.00  0.00    -0.154 NA 
BRANCH  11  12
HETATM   12  C   UNL     4      -8.746  10.571  67.401  1.00  0.00    -0.125 C  
HETATM   13  O   UNL     4      -8.682   8.154  67.433  1.00  0.00    -0.123 OA 
HETATM   14  O   UNL     4      -9.886   9.293  69.041  1.00  0.00    -0.159 OA 
HETATM   15  C   UNL     4      -9.183   9.173  67.967  1.00  0.00    -0.134 C  
ENDBRANCH  11  12
BRANCH  11  16
HETATM   16  C   UNL     4      -6.832  11.464  68.650  1.00  0.00    -0.078 C  
HETATM   17  C   UNL     4      -6.465  11.319  70.157  1.00  0.00    -0.069 C  
HETATM   18  O   UNL     4      -5.922  12.334  70.680  1.00  0.00    -0.256 OA 
HETATM   19  O   UNL     4      -7.042  10.300  70.696  1.00  0.00    -0.322 OA 
ENDBRANCH  11  16
ENDBRANCH  10  11
ENDBRANCH   9  10
ENDBRANCH   8   9
BRANCH   8  20
HETATM   20  C   UNL     4      -9.654  15.641  66.680  1.00  0.00    -0.248 C  
HETATM   21  C   UNL     4      -9.968  16.754  67.754  1.00  0.00    -0.268 C  
HETATM   22  O   UNL     4      -9.033  17.588  67.935  1.00  0.00    -0.242 OA 
HETATM   23  O   UNL     4     -11.108  16.723  68.335  1.00  0.00    -0.357 OA 
ENDBRANCH   8  20
ENDBRANCH   7   8
TORSDOF 7
ENDMDL
MODEL      134
REMARK 921   NORMALIZED FREE ENERGY PREDICTED BY IDOCK:   -4.38 KCAL/MOL
REMARK 922        TOTAL FREE ENERGY PREDICTED BY IDOCK:   -7.61 KCAL/MOL
REMARK 923 INTER-LIGAND FREE ENERGY PREDICTED BY IDOCK:   -6.53 KCAL/MOL
REMARK 924 INTRA-LIGAND FREE ENERGY PREDICTED BY IDOCK:   -1.08 KCAL/MOL
REMARK 927      BINDING AFFINITY PREDICTED BY RF-SCORE:    0.00 PKD
ROOT
HETATM    1 NA   UNL     1      -7.685   6.470  67.005  1.00  0.00    -0.083 Na 
HETATM    2 NA   UNL     2     -11.830   5.906  68.939  1.00  0.00    -0.335 Na 
HETATM    3 CA   UNL     3      -9.842   9.023  62.646  1.00  0.00    -0.543 Ca 
HETATM    4  O   UNL     4      -8.776   7.882  68.008  1.00  0.00    -0.126 OA 
HETATM    5  C   UNL     4      -9.996   8.204  67.909  1.00  0.00    -0.182 C  
HETATM    6  O   UNL     4     -10.936   7.340  67.975  1.00  0.00    -0.127 OA 
HETATM    7  C   UNL     4     -10.449   9.662  67.699  1.00  0.00    -0.261 C  
ENDROOT
BRANCH   7   8
HETATM    8  N   UNL     4      -9.467  10.656  67.183  1.00  0.00    -0.155 NA 
BRANCH   8   9
HETATM    9  C   UNL     4      -9.908  11.674  66.224  1.00  0.00    -0.219 C  
BRANCH   9  10
HETATM   10  C   UNL     4      -9.597  13.135  66.553  1.00  0.00    -0.268 C  
BRANCH  10  11
HETATM   11  N   UNL     4     -10.701  14.074  66.232  1.00  0.00    -0.286 NA 
BRANCH  11  12
HETATM   12  C   UNL     4     -10.795  14.425  64.779  1.00  0.00    -0.399 C  
HETATM   13  O   UNL     4     -12.050  16.336  63.990  1.00  0.00    -0.928 OA 
HETATM   14  O   UNL     4     -10.388  16.623  65.567  1.00  0.00    -0.533 OA 
HETATM   15  C   UNL     4     -11.092  15.965  64.711  1.00  0.00    -0.384 C  
ENDBRANCH  11  12
BRANCH  11  16
HETATM   16  C   UNL     4     -12.013  13.491  66.693  1.00  0.00    -0.404 C  
HETATM   17  C   UNL     4     -12.093  13.771  68.223  1.00  0.00    -0.279 C  
HETATM   18  O   UNL     4     -12.079  12.744  68.961  1.00  0.00    -0.262 OA 
HETATM   19  O   UNL     4     -11.861  15.009  68.498  1.00  0.00    -0.331 OA 
ENDBRANCH  11  16
ENDBRANCH  10  11
ENDBRANCH   9  10
ENDBRANCH   8   9
BRANCH   8  20
HETATM   20  C   UNL     4      -8.896  11.392  68.385  1.00  0.00    -0.167 C  
HETATM   21  C   UNL     4      -7.321  11.459  68.459  1.00  0.00    -0.105 C  
HETATM   22  O   UNL     4      -6.863  12.538  68.940  1.00  0.00    -0.092 OA 
HETATM   23  O   UNL     4      -6.657  10.449  68.042  1.00  0.00    -0.060 OA 
ENDBRANCH   8  20
ENDBRANCH   7   8
TORSDOF 7
ENDMDL
MODEL      135
REMARK 921   NORMALIZED FREE ENERGY PREDICTED BY IDOCK:   -4.37 KCAL/MOL
REMARK 922        TOTAL FREE ENERGY PREDICTED BY IDOCK:   -7.60 KCAL/MOL
REMARK 923 INTER-LIGAND FREE ENERGY PREDICTED BY IDOCK:   -6.70 KCAL/MOL
REMARK 924 INTRA-LIGAND FREE ENERGY PREDICTED BY IDOCK:   -0.91 KCAL/MOL
REMARK 927      BINDING AFFINITY PREDICTED BY RF-SCORE:    0.00 PKD
ROOT
HETATM    1 NA   UNL     1     -12.174  15.601  63.495  1.00  0.00    -0.792 Na 
HETATM    2 NA   UNL     2     -14.379  11.571  63.856  1.00  0.00    -0.402 Na 
HETATM    3 CA   UNL     3     -12.372  16.428  68.921  1.00  0.00    -0.330 Ca 
HETATM    4  O   UNL     4     -11.376  13.813  64.088  1.00  0.00    -0.353 OA 
HETATM    5  C   UNL     4     -11.799  12.957  64.919  1.00  0.00    -0.366 C  
HETATM    6  O   UNL     4     -12.984  12.481  64.862  1.00  0.00    -0.821 OA 
HETATM    7  C   UNL     4     -10.923  12.419  66.067  1.00  0.00    -0.289 C  
ENDROOT
BRANCH   7   8
HETATM    8  N   UNL     4      -9.723  13.196  66.484  1.00  0.00    -0.264 NA 
BRANCH   8   9
HETATM    9  C   UNL     4      -9.898  14.487  67.157  1.00  0.00    -0.245 C  
BRANCH   9  10
HETATM   10  C   UNL     4      -8.902  15.598  66.821  1.00  0.00    -0.272 C  
BRANCH  10  11
HETATM   11  N   UNL     4      -8.446  16.376  68.001  1.00  0.00    -0.180 NA 
BRANCH  11  12
HETATM   12  C   UNL     4      -9.188  17.661  68.204  1.00  0.00    -0.282 C  
HETATM   13  O   UNL     4      -8.073  19.710  68.841  1.00  0.00    -0.330 OA 
HETATM   14  O   UNL     4      -7.396  18.573  66.948  1.00  0.00    -0.204 OA 
HETATM   15  C   UNL     4      -8.152  18.816  67.964  1.00  0.00    -0.283 C  
ENDBRANCH  11  12
BRANCH  11  16
HETATM   16  C   UNL     4      -8.561  15.528  69.243  1.00  0.00    -0.263 C  
HETATM   17  C   UNL     4      -7.103  15.173  69.657  1.00  0.00    -0.193 C  
HETATM   18  O   UNL     4      -6.806  13.946  69.589  1.00  0.00    -0.087 OA 
HETATM   19  O   UNL     4      -6.352  16.220  69.717  1.00  0.00    -0.202 OA 
ENDBRANCH  11  16
ENDBRANCH  10  11
ENDBRANCH   9  10
ENDBRANCH   8   9
BRANCH   8  20
HETATM   20  C   UNL     4      -8.914  12.311  67.420  1.00  0.00    -0.183 C  
HETATM   21  C   UNL     4      -7.812  11.416  66.730  1.00  0.00    -0.157 C  
HETATM   22  O   UNL     4      -6.759  11.258  67.416  1.00  0.00    -0.072 OA 
HETATM   23  O   UNL     4      -8.066  10.938  65.571  1.00  0.00    -0.129 OA 
ENDBRANCH   8  20
ENDBRANCH   7   8
TORSDOF 7
ENDMDL
MODEL      136
REMARK 921   NORMALIZED FREE ENERGY PREDICTED BY IDOCK:   -4.37 KCAL/MOL
REMARK 922        TOTAL FREE ENERGY PREDICTED BY IDOCK:   -7.60 KCAL/MOL
REMARK 923 INTER-LIGAND FREE ENERGY PREDICTED BY IDOCK:   -7.13 KCAL/MOL
REMARK 924 INTRA-LIGAND FREE ENERGY PREDICTED BY IDOCK:   -0.48 KCAL/MOL
REMARK 927      BINDING AFFINITY PREDICTED BY RF-SCORE:    0.00 PKD
ROOT
HETATM    1 NA   UNL     1      -9.139   9.106  69.250  1.00  0.00    -0.126 Na 
HETATM    2 NA   UNL     2      -9.198   6.722  65.307  1.00  0.00    -0.305 Na 
HETATM    3 CA   UNL     3      -6.108  13.108  67.022  1.00  0.00    -0.153 Ca 
HETATM    4  O   UNL     4     -10.306   9.472  67.610  1.00  0.00    -0.212 OA 
HETATM    5  C   UNL     4     -10.007   9.532  66.382  1.00  0.00    -0.269 C  
HETATM    6  O   UNL     4      -9.362   8.599  65.792  1.00  0.00    -0.214 OA 
HETATM    7  C   UNL     4     -10.392  10.734  65.496  1.00  0.00    -0.241 C  
ENDROOT
BRANCH   7   8
HETATM    8  N   UNL     4     -10.742  12.027  66.147  1.00  0.00    -0.265 NA 
BRANCH   8   9
HETATM    9  C   UNL     4      -9.758  13.115  66.163  1.00  0.00    -0.248 C  
BRANCH   9  10
HETATM   10  C   UNL     4     -10.289  14.546  66.067  1.00  0.00    -0.309 C  
BRANCH  10  11
HETATM   11  N   UNL     4      -9.636  15.495  67.005  1.00  0.00    -0.220 NA 
BRANCH  11  12
HETATM   12  C   UNL     4      -8.507  14.895  67.785  1.00  0.00    -0.154 C  
HETATM   13  O   UNL     4      -7.606  15.947  69.768  1.00  0.00    -0.113 OA 
HETATM   14  O   UNL     4      -9.860  15.461  69.649  1.00  0.00    -0.264 OA 
HETATM   15  C   UNL     4      -8.635  15.450  69.249  1.00  0.00    -0.252 C  
ENDBRANCH  11  12
BRANCH  11  16
HETATM   16  C   UNL     4      -9.138  16.698  66.245  1.00  0.00    -0.298 C  
HETATM   17  C   UNL     4     -10.249  17.781  66.380  1.00  0.00    -0.365 C  
HETATM   18  O   UNL     4     -10.823  18.103  65.301  1.00  0.00    -0.628 OA 
HETATM   19  O   UNL     4     -10.602  17.956  67.608  1.00  0.00    -0.390 OA 
ENDBRANCH  11  16
ENDBRANCH  10  11
ENDBRANCH   9  10
ENDBRANCH   8   9
BRANCH   8  20
HETATM   20  C   UNL     4     -11.986  12.559  65.454  1.00  0.00    -0.437 C  
HETATM   21  C   UNL     4     -12.085  12.265  63.907  1.00  0.00    -0.506 C  
HETATM   22  O   UNL     4     -13.259  12.041  63.488  1.00  0.00    -0.724 OA 
HETATM   23  O   UNL     4     -11.003  12.277  63.223  1.00  0.00    -0.432 OA 
ENDBRANCH   8  20
ENDBRANCH   7   8
TORSDOF 7
ENDMDL
MODEL      137
REMARK 921   NORMALIZED FREE ENERGY PREDICTED BY IDOCK:   -4.37 KCAL/MOL
REMARK 922        TOTAL FREE ENERGY PREDICTED BY IDOCK:   -7.60 KCAL/MOL
REMARK 923 INTER-LIGAND FREE ENERGY PREDICTED BY IDOCK:   -6.68 KCAL/MOL
REMARK 924 INTRA-LIGAND FREE ENERGY PREDICTED BY IDOCK:   -0.91 KCAL/MOL
REMARK 927      BINDING AFFINITY PREDICTED BY RF-SCORE:    0.00 PKD
ROOT
HETATM    1 NA   UNL     1     -11.949   6.824  67.703  1.00  0.00    -0.550 Na 
HETATM    2 NA   UNL     2      -7.629   6.741  69.305  1.00  0.00    -0.076 Na 
HETATM    3 CA   UNL     3     -13.175  11.288  70.658  1.00  0.00    -0.296 Ca 
HETATM    4  O   UNL     4     -10.391   8.006  67.099  1.00  0.00    -0.267 OA 
HETATM    5  C   UNL     4      -9.545   8.661  67.774  1.00  0.00    -0.148 C  
HETATM    6  O   UNL     4      -8.858   8.126  68.710  1.00  0.00    -0.137 OA 
HETATM    7  C   UNL     4      -9.274  10.158  67.525  1.00  0.00    -0.137 C  
ENDROOT
BRANCH   7   8
HETATM    8  N   UNL     4     -10.288  10.964  66.790  1.00  0.00    -0.232 NA 
BRANCH   8   9
HETATM    9  C   UNL     4     -11.077  11.964  67.515  1.00  0.00    -0.273 C  
BRANCH   9  10
HETATM   10  C   UNL     4     -10.438  13.335  67.744  1.00  0.00    -0.239 C  
BRANCH  10  11
HETATM   11  N   UNL     4     -11.255  14.471  67.247  1.00  0.00    -0.319 NA 
BRANCH  11  12
HETATM   12  C   UNL     4     -12.113  14.131  66.067  1.00  0.00    -0.432 C  
HETATM   13  O   UNL     4     -12.356  15.617  64.175  1.00  0.00    -0.572 OA 
HETATM   14  O   UNL     4     -10.252  14.930  64.833  1.00  0.00    -0.372 OA 
HETATM   15  C   UNL     4     -11.541  14.944  64.852  1.00  0.00    -0.395 C  
ENDBRANCH  11  12
BRANCH  11  16
HETATM   16  C   UNL     4     -12.122  15.000  68.362  1.00  0.00    -0.104 C  
HETATM   17  C   UNL     4     -11.307  16.146  69.032  1.00  0.00    -0.340 C  
HETATM   18  O   UNL     4     -10.960  15.932  70.229  1.00  0.00    -0.315 OA 
HETATM   19  O   UNL     4     -10.867  16.993  68.165  1.00  0.00    -0.370 OA 
ENDBRANCH  11  16
ENDBRANCH  10  11
ENDBRANCH   9  10
ENDBRANCH   8   9
BRANCH   8  20
HETATM   20  C   UNL     4      -9.562  11.693  65.671  1.00  0.00    -0.229 C  
HETATM   21  C   UNL     4      -9.616  10.997  64.255  1.00  0.00    -0.262 C  
HETATM   22  O   UNL     4      -9.681  11.800  63.277  1.00  0.00    -0.377 OA 
HETATM   23  O   UNL     4      -9.591   9.719  64.213  1.00  0.00    -0.236 OA 
ENDBRANCH   8  20
ENDBRANCH   7   8
TORSDOF 7
ENDMDL
MODEL      138
REMARK 921   NORMALIZED FREE ENERGY PREDICTED BY IDOCK:   -4.35 KCAL/MOL
REMARK 922        TOTAL FREE ENERGY PREDICTED BY IDOCK:   -7.58 KCAL/MOL
REMARK 923 INTER-LIGAND FREE ENERGY PREDICTED BY IDOCK:   -6.37 KCAL/MOL
REMARK 924 INTRA-LIGAND FREE ENERGY PREDICTED BY IDOCK:   -1.21 KCAL/MOL
REMARK 927      BINDING AFFINITY PREDICTED BY RF-SCORE:    0.00 PKD
ROOT
HETATM    1 NA   UNL     1      -9.585  17.363  69.605  1.00  0.00    -0.180 Na 
HETATM    2 NA   UNL     2     -12.139  16.812  73.401  1.00  0.00    -0.409 Na 
HETATM    3 CA   UNL     3      -7.588  12.259  69.963  1.00  0.00    -0.326 Ca 
HETATM    4  O   UNL     4     -11.366  16.366  69.754  1.00  0.00    -0.293 OA 
HETATM    5  C   UNL     4     -11.763  15.509  70.596  1.00  0.00    -0.357 C  
HETATM    6  O   UNL     4     -11.700  15.713  71.857  1.00  0.00    -0.375 OA 
HETATM    7  C   UNL     4     -12.352  14.148  70.174  1.00  0.00    -0.351 C  
ENDROOT
BRANCH   7   8
HETATM    8  N   UNL     4     -12.077  13.637  68.803  1.00  0.00    -0.348 NA 
BRANCH   8   9
HETATM    9  C   UNL     4     -11.744  14.584  67.734  1.00  0.00    -0.374 C  
BRANCH   9  10
HETATM   10  C   UNL     4     -10.597  14.211  66.793  1.00  0.00    -0.277 C  
BRANCH  10  11
HETATM   11  N   UNL     4      -9.388  15.058  66.952  1.00  0.00    -0.228 NA 
BRANCH  11  12
HETATM   12  C   UNL     4      -8.129  14.280  67.178  1.00  0.00    -0.129 C  
HETATM   13  O   UNL     4      -6.191  15.244  68.256  1.00  0.00    -0.103 OA 
HETATM   14  O   UNL     4      -8.234  15.267  69.332  1.00  0.00    -0.227 OA 
HETATM   15  C   UNL     4      -7.403  14.953  68.397  1.00  0.00    -0.114 C  
ENDBRANCH  11  12
BRANCH  11  16
HETATM   16  C   UNL     4      -9.222  15.939  65.739  1.00  0.00    -0.206 C  
HETATM   17  C   UNL     4      -9.886  17.299  66.103  1.00  0.00    -0.253 C  
HETATM   18  O   UNL     4     -10.908  17.600  65.422  1.00  0.00    -0.541 OA 
HETATM   19  O   UNL     4      -9.462  17.754  67.232  1.00  0.00    -0.249 OA 
ENDBRANCH  11  16
ENDBRANCH  10  11
ENDBRANCH   9  10
ENDBRANCH   8   9
BRANCH   8  20
HETATM   20  C   UNL     4     -10.918  12.658  68.909  1.00  0.00    -0.229 C  
HETATM   21  C   UNL     4     -11.277  11.144  68.641  1.00  0.00    -0.255 C  
HETATM   22  O   UNL     4     -10.369  10.486  68.051  1.00  0.00    -0.165 OA 
HETATM   23  O   UNL     4     -12.419  10.720  69.031  1.00  0.00    -0.379 OA 
ENDBRANCH   8  20
ENDBRANCH   7   8
TORSDOF 7
ENDMDL
MODEL      139
REMARK 921   NORMALIZED FREE ENERGY PREDICTED BY IDOCK:   -4.35 KCAL/MOL
REMARK 922        TOTAL FREE ENERGY PREDICTED BY IDOCK:   -7.57 KCAL/MOL
REMARK 923 INTER-LIGAND FREE ENERGY PREDICTED BY IDOCK:   -6.45 KCAL/MOL
REMARK 924 INTRA-LIGAND FREE ENERGY PREDICTED BY IDOCK:   -1.13 KCAL/MOL
REMARK 927      BINDING AFFINITY PREDICTED BY RF-SCORE:    0.00 PKD
ROOT
HETATM    1 NA   UNL     1      -8.263   7.728  65.053  1.00  0.00    -0.097 Na 
HETATM    2 NA   UNL     2     -11.492   5.684  67.627  1.00  0.00    -0.310 Na 
HETATM    3 CA   UNL     3     -11.986  10.872  62.518  1.00  0.00    -0.814 Ca 
HETATM    4  O   UNL     4      -9.175   8.494  66.717  1.00  0.00    -0.153 OA 
HETATM    5  C   UNL     4     -10.398   8.541  67.039  1.00  0.00    -0.309 C  
HETATM    6  O   UNL     4     -11.144   7.502  67.031  1.00  0.00    -0.224 OA 
HETATM    7  C   UNL     4     -11.090   9.851  67.464  1.00  0.00    -0.071 C  
ENDROOT
BRANCH   7   8
HETATM    8  N   UNL     4     -10.461  11.151  67.100  1.00  0.00    -0.219 NA 
BRANCH   8   9
HETATM    9  C   UNL     4     -11.313  12.313  66.829  1.00  0.00    -0.339 C  
BRANCH   9  10
HETATM   10  C   UNL     4     -11.616  13.253  67.997  1.00  0.00    -0.336 C  
BRANCH  10  11
HETATM   11  N   UNL     4     -11.102  14.633  67.809  1.00  0.00    -0.287 NA 
BRANCH  11  12
HETATM   12  C   UNL     4     -11.319  15.179  66.432  1.00  0.00    -0.225 C  
HETATM   13  O   UNL     4     -10.120  17.108  65.603  1.00  0.00    -0.561 OA 
HETATM   14  O   UNL     4      -8.950  15.284  66.400  1.00  0.00    -0.286 OA 
HETATM   15  C   UNL     4     -10.001  15.939  66.042  1.00  0.00    -0.334 C  
ENDBRANCH  11  12
BRANCH  11  16
HETATM   16  C   UNL     4     -11.739  15.553  68.820  1.00  0.00    -0.357 C  
HETATM   17  C   UNL     4     -10.833  15.493  70.086  1.00  0.00    -0.331 C  
HETATM   18  O   UNL     4     -11.375  14.992  71.113  1.00  0.00    -0.312 OA 
HETATM   19  O   UNL     4      -9.592  15.690  69.798  1.00  0.00    -0.281 OA 
ENDBRANCH  11  16
ENDBRANCH  10  11
ENDBRANCH   9  10
ENDBRANCH   8   9
BRANCH   8  20
HETATM   20  C   UNL     4      -9.528  11.536  68.237  1.00  0.00    -0.189 C  
HETATM   21  C   UNL     4      -8.189  12.253  67.809  1.00  0.00    -0.161 C  
HETATM   22  O   UNL     4      -7.790  13.145  68.615  1.00  0.00    -0.126 OA 
HETATM   23  O   UNL     4      -7.634  11.886  66.716  1.00  0.00    -0.124 OA 
ENDBRANCH   8  20
ENDBRANCH   7   8
TORSDOF 7
ENDMDL
MODEL      140
REMARK 921   NORMALIZED FREE ENERGY PREDICTED BY IDOCK:   -4.35 KCAL/MOL
REMARK 922        TOTAL FREE ENERGY PREDICTED BY IDOCK:   -7.57 KCAL/MOL
REMARK 923 INTER-LIGAND FREE ENERGY PREDICTED BY IDOCK:   -6.60 KCAL/MOL
REMARK 924 INTRA-LIGAND FREE ENERGY PREDICTED BY IDOCK:   -0.97 KCAL/MOL
REMARK 927      BINDING AFFINITY PREDICTED BY RF-SCORE:    0.00 PKD
ROOT
HETATM    1 NA   UNL     1      -8.011  14.919  70.560  1.00  0.00    -0.344 Na 
HETATM    2 NA   UNL     2     -10.215  18.883  69.742  1.00  0.00    -0.345 Na 
HETATM    3 CA   UNL     3     -12.675  12.382  71.969  1.00  0.00    -0.314 Ca 
HETATM    4  O   UNL     4      -9.111  15.394  68.901  1.00  0.00    -0.189 OA 
HETATM    5  C   UNL     4     -10.259  15.915  68.795  1.00  0.00    -0.220 C  
HETATM    6  O   UNL     4     -10.571  17.003  69.390  1.00  0.00    -0.335 OA 
HETATM    7  C   UNL     4     -11.377  15.282  67.942  1.00  0.00    -0.334 C  
ENDROOT
BRANCH   7   8
HETATM    8  N   UNL     4     -11.276  13.843  67.575  1.00  0.00    -0.292 NA 
BRANCH   8   9
HETATM    9  C   UNL     4     -11.179  12.834  68.634  1.00  0.00    -0.282 C  
BRANCH   9  10
HETATM   10  C   UNL     4     -11.729  11.439  68.333  1.00  0.00    -0.303 C  
BRANCH  10  11
HETATM   11  N   UNL     4     -10.755  10.343  68.564  1.00  0.00    -0.206 NA 
BRANCH  11  12
HETATM   12  C   UNL     4      -9.455  10.525  67.843  1.00  0.00    -0.147 C  
HETATM   13  O   UNL     4      -8.085   8.655  67.157  1.00  0.00    -0.100 OA 
HETATM   14  O   UNL     4     -10.287   8.779  66.473  1.00  0.00    -0.279 OA 
HETATM   15  C   UNL     4      -9.206   9.204  67.032  1.00  0.00    -0.135 C  
ENDBRANCH  11  12
BRANCH  11  16
HETATM   16  C   UNL     4     -10.493  10.200  70.042  1.00  0.00    -0.274 C  
HETATM   17  C   UNL     4     -11.338   8.979  70.511  1.00  0.00    -0.243 C  
HETATM   18  O   UNL     4     -12.268   9.246  71.325  1.00  0.00    -0.307 OA 
HETATM   19  O   UNL     4     -11.139   7.944  69.768  1.00  0.00    -0.196 OA 
ENDBRANCH  11  16
ENDBRANCH  10  11
ENDBRANCH   9  10
ENDBRANCH   8   9
BRANCH   8  20
HETATM   20  C   UNL     4     -12.504  13.502  66.744  1.00  0.00    -0.159 C  
HETATM   21  C   UNL     4     -12.242  13.262  65.206  1.00  0.00    -0.448 C  
HETATM   22  O   UNL     4     -12.970  12.367  64.683  1.00  0.00    -0.793 OA 
HETATM   23  O   UNL     4     -11.345  13.970  64.632  1.00  0.00    -0.355 OA 
ENDBRANCH   8  20
ENDBRANCH   7   8
TORSDOF 7
ENDMDL
MODEL      141
REMARK 921   NORMALIZED FREE ENERGY PREDICTED BY IDOCK:   -4.35 KCAL/MOL
REMARK 922        TOTAL FREE ENERGY PREDICTED BY IDOCK:   -7.57 KCAL/MOL
REMARK 923 INTER-LIGAND FREE ENERGY PREDICTED BY IDOCK:   -6.36 KCAL/MOL
REMARK 924 INTRA-LIGAND FREE ENERGY PREDICTED BY IDOCK:   -1.21 KCAL/MOL
REMARK 927      BINDING AFFINITY PREDICTED BY RF-SCORE:    0.00 PKD
ROOT
HETATM    1 NA   UNL     1     -11.571   7.432  72.781  1.00  0.00    -0.262 Na 
HETATM    2 NA   UNL     2      -7.217   8.875  73.215  1.00  0.00    -0.119 Na 
HETATM    3 CA   UNL     3     -13.222  12.327  70.915  1.00  0.00    -0.286 Ca 
HETATM    4  O   UNL     4     -10.194   7.649  71.284  1.00  0.00    -0.188 OA 
HETATM    5  C   UNL     4      -9.409   8.606  71.018  1.00  0.00    -0.202 C  
HETATM    6  O   UNL     4      -8.627   9.108  71.896  1.00  0.00    -0.332 OA 
HETATM    7  C   UNL     4      -9.332   9.245  69.618  1.00  0.00    -0.179 C  
ENDROOT
BRANCH   7   8
HETATM    8  N   UNL     4     -10.464   9.047  68.670  1.00  0.00    -0.214 NA 
BRANCH   8   9
HETATM    9  C   UNL     4     -10.987  10.195  67.922  1.00  0.00    -0.277 C  
BRANCH   9  10
HETATM   10  C   UNL     4      -9.991  11.280  67.510  1.00  0.00    -0.182 C  
BRANCH  10  11
HETATM   11  N   UNL     4     -10.625  12.568  67.133  1.00  0.00    -0.227 NA 
BRANCH  11  12
HETATM   12  C   UNL     4     -10.216  13.722  67.996  1.00  0.00    -0.248 C  
HETATM   13  O   UNL     4     -11.665  15.617  68.393  1.00  0.00    -0.367 OA 
HETATM   14  O   UNL     4     -12.405  13.484  68.875  1.00  0.00    -0.248 OA 
HETATM   15  C   UNL     4     -11.542  14.375  68.525  1.00  0.00    -0.314 C  
ENDBRANCH  11  12
BRANCH  11  16
HETATM   16  C   UNL     4     -10.314  12.885  65.692  1.00  0.00    -0.282 C  
HETATM   17  C   UNL     4     -11.464  12.249  64.855  1.00  0.00    -0.332 C  
HETATM   18  O   UNL     4     -11.114  11.309  64.085  1.00  0.00    -0.354 OA 
HETATM   19  O   UNL     4     -12.625  12.586  65.302  1.00  0.00    -0.645 OA 
ENDBRANCH  11  16
ENDBRANCH  10  11
ENDBRANCH   9  10
ENDBRANCH   8   9
BRANCH   8  20
HETATM   20  C   UNL     4     -10.023   8.010  67.649  1.00  0.00    -0.180 C  
HETATM   21  C   UNL     4     -10.823   6.650  67.667  1.00  0.00    -0.315 C  
HETATM   22  O   UNL     4     -10.994   6.126  66.526  1.00  0.00    -0.242 OA 
HETATM   23  O   UNL     4     -11.221   6.203  68.797  1.00  0.00    -0.367 OA 
ENDBRANCH   8  20
ENDBRANCH   7   8
TORSDOF 7
ENDMDL
MODEL      142
REMARK 921   NORMALIZED FREE ENERGY PREDICTED BY IDOCK:   -4.34 KCAL/MOL
REMARK 922        TOTAL FREE ENERGY PREDICTED BY IDOCK:   -7.56 KCAL/MOL
REMARK 923 INTER-LIGAND FREE ENERGY PREDICTED BY IDOCK:   -6.45 KCAL/MOL
REMARK 924 INTRA-LIGAND FREE ENERGY PREDICTED BY IDOCK:   -1.11 KCAL/MOL
REMARK 927      BINDING AFFINITY PREDICTED BY RF-SCORE:    0.00 PKD
ROOT
HETATM    1 NA   UNL     1     -10.748  17.099  68.937  1.00  0.00    -0.253 Na 
HETATM    2 NA   UNL     2     -13.585  14.476  71.450  1.00  0.00    -0.307 Na 
HETATM    3 CA   UNL     3      -6.739  13.353  69.183  1.00  0.00    -0.079 Ca 
HETATM    4  O   UNL     4     -11.824  15.482  68.290  1.00  0.00    -0.330 OA 
HETATM    5  C   UNL     4     -11.962  14.330  68.794  1.00  0.00    -0.311 C  
HETATM    6  O   UNL     4     -12.315  14.157  70.011  1.00  0.00    -0.332 OA 
HETATM    7  C   UNL     4     -11.717  13.041  67.986  1.00  0.00    -0.355 C  
ENDROOT
BRANCH   7   8
HETATM    8  N   UNL     4     -10.906  13.115  66.738  1.00  0.00    -0.274 NA 
BRANCH   8   9
HETATM    9  C   UNL     4      -9.531  12.606  66.742  1.00  0.00    -0.237 C  
BRANCH   9  10
HETATM   10  C   UNL     4      -9.185  11.500  65.744  1.00  0.00    -0.196 C  
BRANCH  10  11
HETATM   11  N   UNL     4      -8.921  10.181  66.373  1.00  0.00    -0.143 NA 
BRANCH  11  12
HETATM   12  C   UNL     4      -9.890   9.112  65.971  1.00  0.00    -0.272 C  
HETATM   13  O   UNL     4     -10.536   7.325  67.466  1.00  0.00    -0.238 OA 
HETATM   14  O   UNL     4     -10.810   9.524  68.117  1.00  0.00    -0.222 OA 
HETATM   15  C   UNL     4     -10.530   8.569  67.298  1.00  0.00    -0.296 C  
ENDBRANCH  11  12
BRANCH  11  16
HETATM   16  C   UNL     4      -7.518   9.735  66.048  1.00  0.00    -0.102 C  
HETATM   17  C   UNL     4      -6.581  10.543  66.993  1.00  0.00    -0.077 C  
HETATM   18  O   UNL     4      -5.801  11.353  66.417  1.00  0.00    -0.144 OA 
HETATM   19  O   UNL     4      -6.960  10.469  68.224  1.00  0.00    -0.071 OA 
ENDBRANCH  11  16
ENDBRANCH  10  11
ENDBRANCH   9  10
ENDBRANCH   8   9
BRANCH   8  20
HETATM   20  C   UNL     4     -11.662  12.352  65.662  1.00  0.00    -0.414 C  
HETATM   21  C   UNL     4     -12.603  13.223  64.741  1.00  0.00    -0.337 C  
HETATM   22  O   UNL     4     -12.659  12.840  63.535  1.00  0.00    -0.703 OA 
HETATM   23  O   UNL     4     -13.214  14.214  65.274  1.00  0.00    -0.760 OA 
ENDBRANCH   8  20
ENDBRANCH   7   8
TORSDOF 7
ENDMDL
MODEL      143
REMARK 921   NORMALIZED FREE ENERGY PREDICTED BY IDOCK:   -4.34 KCAL/MOL
REMARK 922        TOTAL FREE ENERGY PREDICTED BY IDOCK:   -7.56 KCAL/MOL
REMARK 923 INTER-LIGAND FREE ENERGY PREDICTED BY IDOCK:   -6.27 KCAL/MOL
REMARK 924 INTRA-LIGAND FREE ENERGY PREDICTED BY IDOCK:   -1.29 KCAL/MOL
REMARK 927      BINDING AFFINITY PREDICTED BY RF-SCORE:    0.00 PKD
ROOT
HETATM    1 NA   UNL     1      -7.165   6.423  65.169  1.00  0.00    -0.054 Na 
HETATM    2 NA   UNL     2     -10.603   3.430  65.847  1.00  0.00    -0.409 Na 
HETATM    3 CA   UNL     3     -10.555  10.119  62.928  1.00  0.00    -0.494 Ca 
HETATM    4  O   UNL     4      -8.564   6.475  66.662  1.00  0.00    -0.112 OA 
HETATM    5  C   UNL     4      -9.822   6.345  66.618  1.00  0.00    -0.152 C  
HETATM    6  O   UNL     4     -10.384   5.353  66.041  1.00  0.00    -0.152 OA 
HETATM    7  C   UNL     4     -10.780   7.372  67.254  1.00  0.00    -0.308 C  
ENDROOT
BRANCH   7   8
HETATM    8  N   UNL     4     -10.274   8.740  67.556  1.00  0.00    -0.228 NA 
BRANCH   8   9
HETATM    9  C   UNL     4     -11.036   9.906  67.099  1.00  0.00    -0.076 C  
BRANCH   9  10
HETATM   10  C   UNL     4     -10.373  10.821  66.067  1.00  0.00    -0.238 C  
BRANCH  10  11
HETATM   11  N   UNL     4     -10.837  12.230  66.124  1.00  0.00    -0.269 NA 
BRANCH  11  12
HETATM   12  C   UNL     4     -10.010  13.105  67.015  1.00  0.00    -0.244 C  
HETATM   13  O   UNL     4     -10.675  15.358  67.590  1.00  0.00    -0.278 OA 
HETATM   14  O   UNL     4     -12.105  13.595  68.013  1.00  0.00    -0.354 OA 
HETATM   15  C   UNL     4     -10.997  14.146  67.654  1.00  0.00    -0.267 C  
ENDBRANCH  11  12
BRANCH  11  16
HETATM   16  C   UNL     4     -10.863  12.812  64.733  1.00  0.00    -0.308 C  
HETATM   17  C   UNL     4     -12.279  12.503  64.164  1.00  0.00    -0.467 C  
HETATM   18  O   UNL     4     -12.303  11.718  63.174  1.00  0.00    -0.465 OA 
HETATM   19  O   UNL     4     -13.212  12.862  64.979  1.00  0.00    -0.765 OA 
ENDBRANCH  11  16
ENDBRANCH  10  11
ENDBRANCH   9  10
ENDBRANCH   8   9
BRANCH   8  20
HETATM   20  C   UNL     4     -10.150   8.852  69.068  1.00  0.00    -0.197 C  
HETATM   21  C   UNL     4      -8.676   8.932  69.627  1.00  0.00    -0.140 C  
HETATM   22  O   UNL     4      -8.538   9.679  70.640  1.00  0.00    -0.196 OA 
HETATM   23  O   UNL     4      -7.769   8.256  69.029  1.00  0.00    -0.094 OA 
ENDBRANCH   8  20
ENDBRANCH   7   8
TORSDOF 7
ENDMDL
MODEL      144
REMARK 921   NORMALIZED FREE ENERGY PREDICTED BY IDOCK:   -4.34 KCAL/MOL
REMARK 922        TOTAL FREE ENERGY PREDICTED BY IDOCK:   -7.55 KCAL/MOL
REMARK 923 INTER-LIGAND FREE ENERGY PREDICTED BY IDOCK:   -6.71 KCAL/MOL
REMARK 924 INTRA-LIGAND FREE ENERGY PREDICTED BY IDOCK:   -0.84 KCAL/MOL
REMARK 927      BINDING AFFINITY PREDICTED BY RF-SCORE:    0.00 PKD
ROOT
HETATM    1 NA   UNL     1     -13.255  14.603  68.672  1.00  0.00    -0.381 Na 
HETATM    2 NA   UNL     2      -9.071  16.509  68.975  1.00  0.00    -0.196 Na 
HETATM    3 CA   UNL     3     -13.063  14.566  63.183  1.00  0.00    -0.814 Ca 
HETATM    4  O   UNL     4     -11.454  13.656  68.453  1.00  0.00    -0.270 OA 
HETATM    5  C   UNL     4     -10.432  13.975  67.779  1.00  0.00    -0.236 C  
HETATM    6  O   UNL     4      -9.885  15.127  67.875  1.00  0.00    -0.215 OA 
HETATM    7  C   UNL     4      -9.762  13.005  66.786  1.00  0.00    -0.248 C  
ENDROOT
BRANCH   7   8
HETATM    8  N   UNL     4     -10.539  11.839  66.280  1.00  0.00    -0.243 NA 
BRANCH   8   9
HETATM    9  C   UNL     4     -11.004  10.819  67.226  1.00  0.00    -0.297 C  
BRANCH   9  10
HETATM   10  C   UNL     4     -10.515   9.386  67.014  1.00  0.00    -0.231 C  
BRANCH  10  11
HETATM   11  N   UNL     4      -9.754   8.833  68.162  1.00  0.00    -0.153 NA 
BRANCH  11  12
HETATM   12  C   UNL     4      -9.670   9.758  69.337  1.00  0.00    -0.202 C  
HETATM   13  O   UNL     4      -7.973   9.529  71.044  1.00  0.00    -0.321 OA 
HETATM   14  O   UNL     4      -7.354   9.747  68.830  1.00  0.00    -0.071 OA 
HETATM   15  C   UNL     4      -8.177   9.728  69.822  1.00  0.00    -0.173 C  
ENDBRANCH  11  12
BRANCH  11  16
HETATM   16  C   UNL     4     -10.368   7.525  68.596  1.00  0.00    -0.200 C  
HETATM   17  C   UNL     4      -9.552   6.409  67.880  1.00  0.00    -0.121 C  
HETATM   18  O   UNL     4     -10.197   5.727  67.034  1.00  0.00    -0.166 OA 
HETATM   19  O   UNL     4      -8.282   6.557  68.052  1.00  0.00    -0.115 OA 
ENDBRANCH  11  16
ENDBRANCH  10  11
ENDBRANCH   9  10
ENDBRANCH   8   9
BRANCH   8  20
HETATM   20  C   UNL     4     -11.768  12.388  65.573  1.00  0.00    -0.407 C  
HETATM   21  C   UNL     4     -11.794  12.202  64.006  1.00  0.00    -0.434 C  
HETATM   22  O   UNL     4     -12.943  11.979  63.522  1.00  0.00    -0.774 OA 
HETATM   23  O   UNL     4     -10.686  12.290  63.373  1.00  0.00    -0.446 OA 
ENDBRANCH   8  20
ENDBRANCH   7   8
TORSDOF 7
ENDMDL
MODEL      145
REMARK 921   NORMALIZED FREE ENERGY PREDICTED BY IDOCK:   -4.33 KCAL/MOL
REMARK 922        TOTAL FREE ENERGY PREDICTED BY IDOCK:   -7.54 KCAL/MOL
REMARK 923 INTER-LIGAND FREE ENERGY PREDICTED BY IDOCK:   -6.38 KCAL/MOL
REMARK 924 INTRA-LIGAND FREE ENERGY PREDICTED BY IDOCK:   -1.16 KCAL/MOL
REMARK 927      BINDING AFFINITY PREDICTED BY RF-SCORE:    0.00 PKD
ROOT
HETATM    1 NA   UNL     1      -7.160   9.009  67.790  1.00  0.00    -0.068 Na 
HETATM    2 NA   UNL     2     -10.583   6.602  65.861  1.00  0.00    -0.437 Na 
HETATM    3 CA   UNL     3      -8.860  13.682  65.457  1.00  0.00    -0.423 Ca 
HETATM    4  O   UNL     4      -9.112   8.943  68.401  1.00  0.00    -0.137 OA 
HETATM    5  C   UNL     4     -10.186   9.054  67.741  1.00  0.00    -0.230 C  
HETATM    6  O   UNL     4     -10.423   8.349  66.701  1.00  0.00    -0.294 OA 
HETATM    7  C   UNL     4     -11.297  10.048  68.134  1.00  0.00    -0.028 C  
ENDROOT
BRANCH   7   8
HETATM    8  N   UNL     4     -10.961  11.189  69.031  1.00  0.00    -0.219 NA 
BRANCH   8   9
HETATM    9  C   UNL     4     -10.385  12.410  68.458  1.00  0.00    -0.221 C  
BRANCH   9  10
HETATM   10  C   UNL     4     -11.289  13.640  68.368  1.00  0.00    -0.295 C  
BRANCH  10  11
HETATM   11  N   UNL     4     -10.675  14.880  68.905  1.00  0.00    -0.236 NA 
BRANCH  11  12
HETATM   12  C   UNL     4      -9.768  15.576  67.937  1.00  0.00    -0.211 C  
HETATM   13  O   UNL     4      -8.274  17.353  68.616  1.00  0.00    -0.267 OA 
HETATM   14  O   UNL     4      -8.167  15.298  69.664  1.00  0.00    -0.234 OA 
HETATM   15  C   UNL     4      -8.570  16.144  68.779  1.00  0.00    -0.236 C  
ENDBRANCH  11  12
BRANCH  11  16
HETATM   16  C   UNL     4     -11.757  15.831  69.351  1.00  0.00    -0.370 C  
HETATM   17  C   UNL     4     -12.156  15.384  70.788  1.00  0.00    -0.366 C  
HETATM   18  O   UNL     4     -13.337  14.951  70.910  1.00  0.00    -0.375 OA 
HETATM   19  O   UNL     4     -11.126  15.252  71.553  1.00  0.00    -0.357 OA 
ENDBRANCH  11  16
ENDBRANCH  10  11
ENDBRANCH   9  10
ENDBRANCH   8   9
BRANCH   8  20
HETATM   20  C   UNL     4     -12.240  11.591  69.749  1.00  0.00    -0.244 C  
HETATM   21  C   UNL     4     -12.413  11.015  71.208  1.00  0.00    -0.370 C  
HETATM   22  O   UNL     4     -12.987  11.801  72.018  1.00  0.00    -0.408 OA 
HETATM   23  O   UNL     4     -11.973   9.837  71.445  1.00  0.00    -0.356 OA 
ENDBRANCH   8  20
ENDBRANCH   7   8
TORSDOF 7
ENDMDL
MODEL      146
REMARK 921   NORMALIZED FREE ENERGY PREDICTED BY IDOCK:   -4.32 KCAL/MOL
REMARK 922        TOTAL FREE ENERGY PREDICTED BY IDOCK:   -7.54 KCAL/MOL
REMARK 923 INTER-LIGAND FREE ENERGY PREDICTED BY IDOCK:   -6.85 KCAL/MOL
REMARK 924 INTRA-LIGAND FREE ENERGY PREDICTED BY IDOCK:   -0.69 KCAL/MOL
REMARK 927      BINDING AFFINITY PREDICTED BY RF-SCORE:    0.00 PKD
ROOT
HETATM    1 NA   UNL     1     -12.165   6.923  66.974  1.00  0.00    -0.645 Na 
HETATM    2 NA   UNL     2      -7.704   6.231  66.046  1.00  0.00    -0.077 Na 
HETATM    3 CA   UNL     3     -11.289   6.654  72.389  1.00  0.00    -0.223 Ca 
HETATM    4  O   UNL     4     -10.657   8.301  67.091  1.00  0.00    -0.317 OA 
HETATM    5  C   UNL     4      -9.509   8.225  67.618  1.00  0.00    -0.149 C  
HETATM    6  O   UNL     4      -8.701   7.270  67.354  1.00  0.00    -0.120 OA 
HETATM    7  C   UNL     4      -8.992   9.272  68.624  1.00  0.00    -0.132 C  
ENDROOT
BRANCH   7   8
HETATM    8  N   UNL     4      -9.973  10.152  69.318  1.00  0.00    -0.207 NA 
BRANCH   8   9
HETATM    9  C   UNL     4     -10.758  11.113  68.538  1.00  0.00    -0.201 C  
BRANCH   9  10
HETATM   10  C   UNL     4      -9.999  12.250  67.850  1.00  0.00    -0.202 C  
BRANCH  10  11
HETATM   11  N   UNL     4     -10.870  13.182  67.089  1.00  0.00    -0.255 NA 
BRANCH  11  12
HETATM   12  C   UNL     4     -11.547  12.553  65.911  1.00  0.00    -0.405 C  
HETATM   13  O   UNL     4     -12.751  13.855  64.267  1.00  0.00    -0.664 OA 
HETATM   14  O   UNL     4     -10.541  14.345  64.727  1.00  0.00    -0.421 OA 
HETATM   15  C   UNL     4     -11.633  13.662  64.803  1.00  0.00    -0.355 C  
ENDBRANCH  11  12
BRANCH  11  16
HETATM   16  C   UNL     4     -11.909  13.771  68.010  1.00  0.00    -0.373 C  
HETATM   17  C   UNL     4     -11.251  15.029  68.650  1.00  0.00    -0.278 C  
HETATM   18  O   UNL     4     -11.067  14.965  69.899  1.00  0.00    -0.258 OA 
HETATM   19  O   UNL     4     -10.732  15.805  67.760  1.00  0.00    -0.291 OA 
ENDBRANCH  11  16
ENDBRANCH  10  11
ENDBRANCH   9  10
ENDBRANCH   8   9
BRANCH   8  20
HETATM   20  C   UNL     4     -10.960   9.247  70.038  1.00  0.00    -0.229 C  
HETATM   21  C   UNL     4     -10.738   9.095  71.594  1.00  0.00    -0.371 C  
HETATM   22  O   UNL     4     -11.805   8.992  72.269  1.00  0.00    -0.334 OA 
HETATM   23  O   UNL     4      -9.536   9.087  72.030  1.00  0.00    -0.339 OA 
ENDBRANCH   8  20
ENDBRANCH   7   8
TORSDOF 7
ENDMDL
MODEL      147
REMARK 921   NORMALIZED FREE ENERGY PREDICTED BY IDOCK:   -4.32 KCAL/MOL
REMARK 922        TOTAL FREE ENERGY PREDICTED BY IDOCK:   -7.53 KCAL/MOL
REMARK 923 INTER-LIGAND FREE ENERGY PREDICTED BY IDOCK:   -6.62 KCAL/MOL
REMARK 924 INTRA-LIGAND FREE ENERGY PREDICTED BY IDOCK:   -0.91 KCAL/MOL
REMARK 927      BINDING AFFINITY PREDICTED BY RF-SCORE:    0.00 PKD
ROOT
HETATM    1 NA   UNL     1     -13.665  11.779  64.207  1.00  0.00    -0.604 Na 
HETATM    2 NA   UNL     2      -9.336  13.172  63.466  1.00  0.00    -0.444 Na 
HETATM    3 CA   UNL     3     -11.985   7.444  67.131  1.00  0.00    -0.460 Ca 
HETATM    4  O   UNL     4     -12.451  12.772  65.522  1.00  0.00    -0.573 OA 
HETATM    5  C   UNL     4     -11.247  12.563  65.849  1.00  0.00    -0.320 C  
HETATM    6  O   UNL     4     -10.315  12.446  64.981  1.00  0.00    -0.281 OA 
HETATM    7  C   UNL     4     -10.802  12.432  67.319  1.00  0.00    -0.243 C  
ENDROOT
BRANCH   7   8
HETATM    8  N   UNL     4     -11.824  12.121  68.357  1.00  0.00    -0.339 NA 
BRANCH   8   9
HETATM    9  C   UNL     4     -11.936  10.752  68.871  1.00  0.00    -0.139 C  
BRANCH   9  10
HETATM   10  C   UNL     4     -11.412  10.483  70.283  1.00  0.00    -0.333 C  
BRANCH  10  11
HETATM   11  N   UNL     4     -10.680   9.199  70.420  1.00  0.00    -0.223 NA 
BRANCH  11  12
HETATM   12  C   UNL     4     -11.545   7.987  70.253  1.00  0.00     0.003 C  
HETATM   13  O   UNL     4     -10.992   5.857  71.253  1.00  0.00    -0.266 OA 
HETATM   14  O   UNL     4     -11.169   7.738  72.581  1.00  0.00    -0.325 OA 
HETATM   15  C   UNL     4     -11.257   7.061  71.487  1.00  0.00    -0.249 C  
ENDBRANCH  11  12
BRANCH  11  16
HETATM   16  C   UNL     4      -9.549   9.149  69.423  1.00  0.00    -0.165 C  
HETATM   17  C   UNL     4      -8.338   9.842  70.114  1.00  0.00    -0.126 C  
HETATM   18  O   UNL     4      -7.952  10.918  69.574  1.00  0.00    -0.076 OA 
HETATM   19  O   UNL     4      -8.117   9.363  71.291  1.00  0.00    -0.319 OA 
ENDBRANCH  11  16
ENDBRANCH  10  11
ENDBRANCH   9  10
ENDBRANCH   8   9
BRANCH   8  20
HETATM   20  C   UNL     4     -11.548  13.024  69.549  1.00  0.00    -0.276 C  
HETATM   21  C   UNL     4     -12.128  14.489  69.444  1.00  0.00    -0.290 C  
HETATM   22  O   UNL     4     -12.535  14.972  70.542  1.00  0.00    -0.328 OA 
HETATM   23  O   UNL     4     -12.139  15.049  68.295  1.00  0.00    -0.240 OA 
ENDBRANCH   8  20
ENDBRANCH   7   8
TORSDOF 7
ENDMDL
MODEL      148
REMARK 921   NORMALIZED FREE ENERGY PREDICTED BY IDOCK:   -4.31 KCAL/MOL
REMARK 922        TOTAL FREE ENERGY PREDICTED BY IDOCK:   -7.52 KCAL/MOL
REMARK 923 INTER-LIGAND FREE ENERGY PREDICTED BY IDOCK:   -8.38 KCAL/MOL
REMARK 924 INTRA-LIGAND FREE ENERGY PREDICTED BY IDOCK:    0.86 KCAL/MOL
REMARK 927      BINDING AFFINITY PREDICTED BY RF-SCORE:    0.00 PKD
ROOT
HETATM    1 NA   UNL     1      -8.929  12.223  69.351  1.00  0.00    -0.362 Na 
HETATM    2 NA   UNL     2     -13.117  10.301  69.304  1.00  0.00    -0.572 Na 
HETATM    3 CA   UNL     3      -8.297  11.462  63.949  1.00  0.00    -0.357 Ca 
HETATM    4  O   UNL     4     -10.674  13.094  68.731  1.00  0.00    -0.249 OA 
HETATM    5  C   UNL     4     -11.585  12.661  67.967  1.00  0.00    -0.343 C  
HETATM    6  O   UNL     4     -12.143  11.525  68.148  1.00  0.00    -0.604 OA 
HETATM    7  C   UNL     4     -12.095  13.465  66.754  1.00  0.00    -0.365 C  
ENDROOT
BRANCH   7   8
HETATM    8  N   UNL     4     -11.248  14.560  66.205  1.00  0.00    -0.336 NA 
BRANCH   8   9
HETATM    9  C   UNL     4      -9.902  14.769  66.747  1.00  0.00    -0.255 C  
BRANCH   9  10
HETATM   10  C   UNL     4      -9.228  16.112  66.462  1.00  0.00    -0.272 C  
BRANCH  10  11
HETATM   11  N   UNL     4      -9.163  17.016  67.638  1.00  0.00    -0.232 NA 
BRANCH  11  12
HETATM   12  C   UNL     4     -10.208  18.089  67.637  1.00  0.00    -0.368 C  
HETATM   13  O   UNL     4     -10.145  19.953  69.176  1.00  0.00    -0.418 OA 
HETATM   14  O   UNL     4      -8.332  19.530  67.809  1.00  0.00    -0.295 OA 
HETATM   15  C   UNL     4      -9.533  19.367  68.250  1.00  0.00    -0.365 C  
ENDBRANCH  11  12
BRANCH  11  16
HETATM   16  C   UNL     4      -9.275  16.207  68.906  1.00  0.00    -0.234 C  
HETATM   17  C   UNL     4      -7.823  15.776  69.270  1.00  0.00    -0.233 C  
HETATM   18  O   UNL     4      -7.601  14.533  69.223  1.00  0.00    -0.133 OA 
HETATM   19  O   UNL     4      -7.011  16.778  69.272  1.00  0.00    -0.226 OA 
ENDBRANCH  11  16
ENDBRANCH  10  11
ENDBRANCH   9  10
ENDBRANCH   8   9
BRANCH   8  20
HETATM   20  C   UNL     4     -11.096  14.309  64.713  1.00  0.00    -0.391 C  
HETATM   21  C   UNL     4     -12.258  13.480  64.039  1.00  0.00    -0.402 C  
HETATM   22  O   UNL     4     -12.539  13.836  62.856  1.00  0.00    -0.611 OA 
HETATM   23  O   UNL     4     -12.802  12.545  64.721  1.00  0.00    -0.755 OA 
ENDBRANCH   8  20
ENDBRANCH   7   8
TORSDOF 7
ENDMDL
MODEL      149
REMARK 921   NORMALIZED FREE ENERGY PREDICTED BY IDOCK:   -4.31 KCAL/MOL
REMARK 922        TOTAL FREE ENERGY PREDICTED BY IDOCK:   -7.52 KCAL/MOL
REMARK 923 INTER-LIGAND FREE ENERGY PREDICTED BY IDOCK:   -7.02 KCAL/MOL
REMARK 924 INTRA-LIGAND FREE ENERGY PREDICTED BY IDOCK:   -0.51 KCAL/MOL
REMARK 927      BINDING AFFINITY PREDICTED BY RF-SCORE:    0.00 PKD
ROOT
HETATM    1 NA   UNL     1      -7.999  18.491  68.373  1.00  0.00    -0.242 Na 
HETATM    2 NA   UNL     2     -10.598  20.152  64.950  1.00  0.00    -0.393 Na 
HETATM    3 CA   UNL     3     -12.414  16.899  71.225  1.00  0.00    -0.533 Ca 
HETATM    4  O   UNL     4      -8.922  17.415  66.898  1.00  0.00    -0.231 OA 
HETATM    5  C   UNL     4     -10.107  17.470  66.456  1.00  0.00    -0.331 C  
HETATM    6  O   UNL     4     -10.642  18.568  66.077  1.00  0.00    -0.438 OA 
HETATM    7  C   UNL     4     -11.003  16.221  66.341  1.00  0.00     0.004 C  
ENDROOT
BRANCH   7   8
HETATM    8  N   UNL     4     -10.657  15.009  67.134  1.00  0.00    -0.289 NA 
BRANCH   8   9
HETATM    9  C   UNL     4      -9.325  14.413  66.995  1.00  0.00    -0.242 C  
BRANCH   9  10
HETATM   10  C   UNL     4      -9.251  12.924  66.653  1.00  0.00    -0.221 C  
BRANCH  10  11
HETATM   11  N   UNL     4     -10.492  12.382  66.045  1.00  0.00    -0.248 NA 
BRANCH  11  12
HETATM   12  C   UNL     4     -10.757  12.882  64.658  1.00  0.00    -0.353 C  
HETATM   13  O   UNL     4     -12.492  11.946  63.257  1.00  0.00    -0.571 OA 
HETATM   14  O   UNL     4     -13.023  12.771  65.348  1.00  0.00    -0.587 OA 
HETATM   15  C   UNL     4     -12.255  12.537  64.339  1.00  0.00    -0.449 C  
ENDBRANCH  11  12
BRANCH  11  16
HETATM   16  C   UNL     4     -10.436  10.875  66.034  1.00  0.00    -0.225 C  
HETATM   17  C   UNL     4     -10.860  10.419  67.461  1.00  0.00    -0.301 C  
HETATM   18  O   UNL     4      -9.960   9.836  68.131  1.00  0.00    -0.146 OA 
HETATM   19  O   UNL     4     -11.963  10.972  67.835  1.00  0.00    -0.620 OA 
ENDBRANCH  11  16
ENDBRANCH  10  11
ENDBRANCH   9  10
ENDBRANCH   8   9
BRANCH   8  20
HETATM   20  C   UNL     4     -10.838  15.362  68.602  1.00  0.00    -0.259 C  
HETATM   21  C   UNL     4     -11.567  14.273  69.481  1.00  0.00    -0.301 C  
HETATM   22  O   UNL     4     -11.135  14.182  70.669  1.00  0.00     0.113 OA 
HETATM   23  O   UNL     4     -12.505  13.593  68.939  1.00  0.00    -0.150 OA 
ENDBRANCH   8  20
ENDBRANCH   7   8
TORSDOF 7
ENDMDL
MODEL      150
REMARK 921   NORMALIZED FREE ENERGY PREDICTED BY IDOCK:   -4.31 KCAL/MOL
REMARK 922        TOTAL FREE ENERGY PREDICTED BY IDOCK:   -7.51 KCAL/MOL
REMARK 923 INTER-LIGAND FREE ENERGY PREDICTED BY IDOCK:   -6.66 KCAL/MOL
REMARK 924 INTRA-LIGAND FREE ENERGY PREDICTED BY IDOCK:   -0.86 KCAL/MOL
REMARK 927      BINDING AFFINITY PREDICTED BY RF-SCORE:    0.00 PKD
ROOT
HETATM    1 NA   UNL     1      -7.118  16.258  69.890  1.00  0.00    -0.204 Na 
HETATM    2 NA   UNL     2      -8.048  20.530  68.433  1.00  0.00    -0.259 Na 
HETATM    3 CA   UNL     3     -11.499  16.216  73.202  1.00  0.00    -0.401 Ca 
HETATM    4  O   UNL     4      -8.527  16.807  68.511  1.00  0.00    -0.223 OA 
HETATM    5  C   UNL     4      -9.398  17.725  68.543  1.00  0.00    -0.295 C  
HETATM    6  O   UNL     4      -9.099  18.938  68.813  1.00  0.00    -0.345 OA 
HETATM    7  C   UNL     4     -10.890  17.457  68.262  1.00  0.00    -0.256 C  
ENDROOT
BRANCH   7   8
HETATM    8  N   UNL     4     -11.405  16.063  68.368  1.00  0.00    -0.365 NA 
BRANCH   8   9
HETATM    9  C   UNL     4     -10.969  15.058  67.394  1.00  0.00    -0.315 C  
BRANCH   9  10
HETATM   10  C   UNL     4     -10.062  13.934  67.900  1.00  0.00    -0.242 C  
BRANCH  10  11
HETATM   11  N   UNL     4     -10.548  12.571  67.567  1.00  0.00    -0.218 NA 
BRANCH  11  12
HETATM   12  C   UNL     4     -11.285  11.901  68.685  1.00  0.00    -0.257 C  
HETATM   13  O   UNL     4     -11.125   9.523  69.094  1.00  0.00    -0.171 OA 
HETATM   14  O   UNL     4      -9.209  10.809  69.030  1.00  0.00    -0.180 OA 
HETATM   15  C   UNL     4     -10.480  10.597  69.030  1.00  0.00    -0.214 C  
ENDBRANCH  11  12
BRANCH  11  16
HETATM   16  C   UNL     4     -11.433  12.632  66.347  1.00  0.00    -0.356 C  
HETATM   17  C   UNL     4     -10.550  12.163  65.153  1.00  0.00    -0.286 C  
HETATM   18  O   UNL     4     -10.320  13.042  64.274  1.00  0.00    -0.404 OA 
HETATM   19  O   UNL     4      -9.956  11.047  65.404  1.00  0.00    -0.232 OA 
ENDBRANCH  11  16
ENDBRANCH  10  11
ENDBRANCH   9  10
ENDBRANCH   8   9
BRANCH   8  20
HETATM   20  C   UNL     4     -11.027  15.545  69.747  1.00  0.00    -0.294 C  
HETATM   21  C   UNL     4     -12.233  15.102  70.664  1.00  0.00    -0.351 C  
HETATM   22  O   UNL     4     -11.989  14.105  71.407  1.00  0.00    -0.304 OA 
HETATM   23  O   UNL     4     -13.323  15.767  70.585  1.00  0.00    -0.486 OA 
ENDBRANCH   8  20
ENDBRANCH   7   8
TORSDOF 7
ENDMDL
MODEL      151
REMARK 921   NORMALIZED FREE ENERGY PREDICTED BY IDOCK:   -4.31 KCAL/MOL
REMARK 922        TOTAL FREE ENERGY PREDICTED BY IDOCK:   -7.51 KCAL/MOL
REMARK 923 INTER-LIGAND FREE ENERGY PREDICTED BY IDOCK:   -6.62 KCAL/MOL
REMARK 924 INTRA-LIGAND FREE ENERGY PREDICTED BY IDOCK:   -0.89 KCAL/MOL
REMARK 927      BINDING AFFINITY PREDICTED BY RF-SCORE:    0.00 PKD
ROOT
HETATM    1 NA   UNL     1      -7.696  14.742  70.621  1.00  0.00    -0.342 Na 
HETATM    2 NA   UNL     2      -8.169  18.127  67.531  1.00  0.00    -0.215 Na 
HETATM    3 CA   UNL     3     -11.661  16.817  73.804  1.00  0.00    -0.409 Ca 
HETATM    4  O   UNL     4      -9.153  14.908  69.194  1.00  0.00    -0.192 OA 
HETATM    5  C   UNL     4      -9.879  15.893  68.868  1.00  0.00    -0.226 C  
HETATM    6  O   UNL     4      -9.386  17.039  68.588  1.00  0.00    -0.256 OA 
HETATM    7  C   UNL     4     -11.415  15.793  68.784  1.00  0.00    -0.388 C  
ENDROOT
BRANCH   7   8
HETATM    8  N   UNL     4     -12.106  14.678  69.489  1.00  0.00    -0.307 NA 
BRANCH   8   9
HETATM    9  C   UNL     4     -11.709  13.294  69.209  1.00  0.00    -0.326 C  
BRANCH   9  10
HETATM   10  C   UNL     4     -11.839  12.801  67.767  1.00  0.00    -0.332 C  
BRANCH  10  11
HETATM   11  N   UNL     4     -10.788  11.833  67.364  1.00  0.00    -0.238 NA 
BRANCH  11  12
HETATM   12  C   UNL     4      -9.748  12.412  66.454  1.00  0.00    -0.240 C  
HETATM   13  O   UNL     4      -8.352  11.029  65.044  1.00  0.00    -0.036 OA 
HETATM   14  O   UNL     4     -10.651  10.870  64.895  1.00  0.00    -0.302 OA 
HETATM   15  C   UNL     4      -9.533  11.366  65.302  1.00  0.00    -0.209 C  
ENDBRANCH  11  12
BRANCH  11  16
HETATM   16  C   UNL     4     -10.121  11.267  68.592  1.00  0.00    -0.208 C  
HETATM   17  C   UNL     4     -10.821   9.904  68.871  1.00  0.00    -0.210 C  
HETATM   18  O   UNL     4     -11.477   9.846  69.950  1.00  0.00    -0.236 OA 
HETATM   19  O   UNL     4     -10.861   9.161  67.818  1.00  0.00    -0.217 OA 
ENDBRANCH  11  16
ENDBRANCH  10  11
ENDBRANCH   9  10
ENDBRANCH   8   9
BRANCH   8  20
HETATM   20  C   UNL     4     -11.921  14.903  70.981  1.00  0.00    -0.320 C  
HETATM   21  C   UNL     4     -13.250  15.087  71.813  1.00  0.00    -0.368 C  
HETATM   22  O   UNL     4     -13.214  14.590  72.978  1.00  0.00    -0.504 OA 
HETATM   23  O   UNL     4     -14.224  15.705  71.260  1.00  0.00    -0.540 OA 
ENDBRANCH   8  20
ENDBRANCH   7   8
TORSDOF 7
ENDMDL
MODEL      152
REMARK 921   NORMALIZED FREE ENERGY PREDICTED BY IDOCK:   -4.30 KCAL/MOL
REMARK 922        TOTAL FREE ENERGY PREDICTED BY IDOCK:   -7.51 KCAL/MOL
REMARK 923 INTER-LIGAND FREE ENERGY PREDICTED BY IDOCK:   -6.02 KCAL/MOL
REMARK 924 INTRA-LIGAND FREE ENERGY PREDICTED BY IDOCK:   -1.48 KCAL/MOL
REMARK 927      BINDING AFFINITY PREDICTED BY RF-SCORE:    0.00 PKD
ROOT
HETATM    1 NA   UNL     1     -12.637  12.650  68.538  1.00  0.00    -0.259 Na 
HETATM    2 NA   UNL     2     -14.167  12.245  72.866  1.00  0.00    -0.597 Na 
HETATM    3 CA   UNL     3      -7.428  11.860  70.091  1.00  0.00    -0.346 Ca 
HETATM    4  O   UNL     4     -12.909  10.915  69.588  1.00  0.00    -0.197 OA 
HETATM    5  C   UNL     4     -12.562  10.600  70.764  1.00  0.00    -0.386 C  
HETATM    6  O   UNL     4     -12.842  11.329  71.775  1.00  0.00    -0.416 OA 
HETATM    7  C   UNL     4     -11.771   9.313  71.073  1.00  0.00    -0.311 C  
ENDROOT
BRANCH   7   8
HETATM    8  N   UNL     4     -11.033   8.636  69.971  1.00  0.00    -0.234 NA 
BRANCH   8   9
HETATM    9  C   UNL     4     -10.136   9.421  69.117  1.00  0.00    -0.195 C  
BRANCH   9  10
HETATM   10  C   UNL     4     -10.456   9.477  67.622  1.00  0.00    -0.263 C  
BRANCH  10  11
HETATM   11  N   UNL     4      -9.558  10.370  66.846  1.00  0.00    -0.168 NA 
BRANCH  11  12
HETATM   12  C   UNL     4      -8.302   9.704  66.374  1.00  0.00    -0.119 C  
HETATM   13  O   UNL     4      -6.366  10.962  65.656  1.00  0.00    -0.100 OA 
HETATM   14  O   UNL     4      -7.255  11.322  67.757  1.00  0.00    -0.083 OA 
HETATM   15  C   UNL     4      -7.138  10.729  66.618  1.00  0.00    -0.133 C  
ENDBRANCH  11  12
BRANCH  11  16
HETATM   16  C   UNL     4     -10.302  10.934  65.662  1.00  0.00    -0.242 C  
HETATM   17  C   UNL     4     -10.934  12.271  66.150  1.00  0.00    -0.293 C  
HETATM   18  O   UNL     4     -12.197  12.293  66.176  1.00  0.00    -0.647 OA 
HETATM   19  O   UNL     4     -10.065  13.031  66.725  1.00  0.00    -0.238 OA 
ENDBRANCH  11  16
ENDBRANCH  10  11
ENDBRANCH   9  10
ENDBRANCH   8   9
BRANCH   8  20
HETATM   20  C   UNL     4     -10.199   7.530  70.598  1.00  0.00    -0.202 C  
HETATM   21  C   UNL     4     -10.083   6.201  69.753  1.00  0.00    -0.181 C  
HETATM   22  O   UNL     4      -8.961   5.620  69.840  1.00  0.00    -0.126 OA 
HETATM   23  O   UNL     4     -11.101   5.832  69.073  1.00  0.00    -0.285 OA 
ENDBRANCH   8  20
ENDBRANCH   7   8
TORSDOF 7
ENDMDL
MODEL      153
REMARK 921   NORMALIZED FREE ENERGY PREDICTED BY IDOCK:   -4.29 KCAL/MOL
REMARK 922        TOTAL FREE ENERGY PREDICTED BY IDOCK:   -7.48 KCAL/MOL
REMARK 923 INTER-LIGAND FREE ENERGY PREDICTED BY IDOCK:   -6.36 KCAL/MOL
REMARK 924 INTRA-LIGAND FREE ENERGY PREDICTED BY IDOCK:   -1.12 KCAL/MOL
REMARK 927      BINDING AFFINITY PREDICTED BY RF-SCORE:    0.00 PKD
ROOT
HETATM    1 NA   UNL     1      -9.322   8.875  64.022  1.00  0.00    -0.386 Na 
HETATM    2 NA   UNL     2     -10.935   5.708  66.954  1.00  0.00    -0.200 Na 
HETATM    3 CA   UNL     3     -14.028  11.704  64.171  1.00  0.00    -0.631 Ca 
HETATM    4  O   UNL     4      -9.487   9.053  66.054  1.00  0.00    -0.221 OA 
HETATM    5  C   UNL     4     -10.450   8.782  66.829  1.00  0.00    -0.213 C  
HETATM    6  O   UNL     4     -11.035   7.645  66.818  1.00  0.00    -0.183 OA 
HETATM    7  C   UNL     4     -11.000   9.800  67.848  1.00  0.00    -0.188 C  
ENDROOT
BRANCH   7   8
HETATM    8  N   UNL     4     -10.703  11.247  67.655  1.00  0.00    -0.212 NA 
BRANCH   8   9
HETATM    9  C   UNL     4     -11.717  12.244  68.010  1.00  0.00    -0.356 C  
BRANCH   9  10
HETATM   10  C   UNL     4     -11.913  12.552  69.496  1.00  0.00    -0.266 C  
BRANCH  10  11
HETATM   11  N   UNL     4     -11.849  13.998  69.825  1.00  0.00    -0.305 NA 
BRANCH  11  12
HETATM   12  C   UNL     4     -11.573  14.878  68.644  1.00  0.00    -0.318 C  
HETATM   13  O   UNL     4     -10.718  17.127  68.881  1.00  0.00    -0.323 OA 
HETATM   14  O   UNL     4      -9.570  15.357  69.818  1.00  0.00    -0.266 OA 
HETATM   15  C   UNL     4     -10.488  15.914  69.105  1.00  0.00    -0.235 C  
ENDBRANCH  11  12
BRANCH  11  16
HETATM   16  C   UNL     4     -13.138  14.427  70.480  1.00  0.00    -0.145 C  
HETATM   17  C   UNL     4     -12.895  14.323  72.015  1.00  0.00    -0.347 C  
HETATM   18  O   UNL     4     -13.593  13.456  72.614  1.00  0.00    -0.635 OA 
HETATM   19  O   UNL     4     -11.813  14.928  72.372  1.00  0.00    -0.339 OA 
ENDBRANCH  11  16
ENDBRANCH  10  11
ENDBRANCH   9  10
ENDBRANCH   8   9
BRANCH   8  20
HETATM   20  C   UNL     4      -9.458  11.565  68.468  1.00  0.00    -0.174 C  
HETATM   21  C   UNL     4      -8.264  12.213  67.664  1.00  0.00    -0.163 C  
HETATM   22  O   UNL     4      -7.597  13.071  68.315  1.00  0.00    -0.117 OA 
HETATM   23  O   UNL     4      -8.074  11.829  66.459  1.00  0.00    -0.135 OA 
ENDBRANCH   8  20
ENDBRANCH   7   8
TORSDOF 7
ENDMDL
MODEL      154
REMARK 921   NORMALIZED FREE ENERGY PREDICTED BY IDOCK:   -4.27 KCAL/MOL
REMARK 922        TOTAL FREE ENERGY PREDICTED BY IDOCK:   -7.47 KCAL/MOL
REMARK 923 INTER-LIGAND FREE ENERGY PREDICTED BY IDOCK:   -6.82 KCAL/MOL
REMARK 924 INTRA-LIGAND FREE ENERGY PREDICTED BY IDOCK:   -0.64 KCAL/MOL
REMARK 927      BINDING AFFINITY PREDICTED BY RF-SCORE:    0.00 PKD
ROOT
HETATM    1 NA   UNL     1     -14.270   9.797  72.792  1.00  0.00    -0.548 Na 
HETATM    2 NA   UNL     2     -10.192   7.679  73.137  1.00  0.00    -0.177 Na 
HETATM    3 CA   UNL     3     -11.922  14.762  72.801  1.00  0.00    -0.310 Ca 
HETATM    4  O   UNL     4     -12.919   9.480  71.288  1.00  0.00    -0.334 OA 
HETATM    5  C   UNL     4     -11.669   9.670  71.250  1.00  0.00    -0.382 C  
HETATM    6  O   UNL     4     -10.881   9.202  72.141  1.00  0.00    -0.297 OA 
HETATM    7  C   UNL     4     -10.992  10.483  70.129  1.00  0.00    -0.270 C  
ENDROOT
BRANCH   7   8
HETATM    8  N   UNL     4     -11.820  11.414  69.311  1.00  0.00    -0.325 NA 
BRANCH   8   9
HETATM    9  C   UNL     4     -11.590  12.858  69.410  1.00  0.00    -0.302 C  
BRANCH   9  10
HETATM   10  C   UNL     4     -11.903  13.708  68.178  1.00  0.00    -0.372 C  
BRANCH  10  11
HETATM   11  N   UNL     4     -10.806  14.629  67.786  1.00  0.00    -0.262 NA 
BRANCH  11  12
HETATM   12  C   UNL     4      -9.695  14.709  68.787  1.00  0.00    -0.217 C  
HETATM   13  O   UNL     4      -8.297  16.669  69.012  1.00  0.00    -0.235 OA 
HETATM   14  O   UNL     4     -10.591  16.865  69.199  1.00  0.00    -0.325 OA 
HETATM   15  C   UNL     4      -9.472  16.234  69.084  1.00  0.00    -0.246 C  
ENDBRANCH  11  12
BRANCH  11  16
HETATM   16  C   UNL     4     -10.248  14.214  66.448  1.00  0.00    -0.290 C  
HETATM   17  C   UNL     4     -10.828  15.220  65.410  1.00  0.00    -0.387 C  
HETATM   18  O   UNL     4     -11.609  14.720  64.552  1.00  0.00    -0.395 OA 
HETATM   19  O   UNL     4     -10.650  16.444  65.777  1.00  0.00    -0.350 OA 
ENDBRANCH  11  16
ENDBRANCH  10  11
ENDBRANCH   9  10
ENDBRANCH   8   9
BRANCH   8  20
HETATM   20  C   UNL     4     -11.625  11.029  67.853  1.00  0.00    -0.226 C  
HETATM   21  C   UNL     4     -10.154  10.632  67.442  1.00  0.00    -0.194 C  
HETATM   22  O   UNL     4     -10.081   9.712  66.575  1.00  0.00    -0.227 OA 
HETATM   23  O   UNL     4      -9.186  11.255  68.001  1.00  0.00    -0.149 OA 
ENDBRANCH   8  20
ENDBRANCH   7   8
TORSDOF 7
ENDMDL
MODEL      155
REMARK 921   NORMALIZED FREE ENERGY PREDICTED BY IDOCK:   -4.26 KCAL/MOL
REMARK 922        TOTAL FREE ENERGY PREDICTED BY IDOCK:   -7.44 KCAL/MOL
REMARK 923 INTER-LIGAND FREE ENERGY PREDICTED BY IDOCK:   -6.33 KCAL/MOL
REMARK 924 INTRA-LIGAND FREE ENERGY PREDICTED BY IDOCK:   -1.11 KCAL/MOL
REMARK 927      BINDING AFFINITY PREDICTED BY RF-SCORE:    0.00 PKD
ROOT
HETATM    1 NA   UNL     1     -11.954   5.137  72.391  1.00  0.00    -0.230 Na 
HETATM    2 NA   UNL     2     -14.113   8.977  73.742  1.00  0.00    -0.838 Na 
HETATM    3 CA   UNL     3     -12.224   6.604  67.104  1.00  0.00    -0.683 Ca 
HETATM    4  O   UNL     4     -11.141   7.006  72.568  1.00  0.00    -0.250 OA 
HETATM    5  C   UNL     4     -11.563   8.130  72.167  1.00  0.00    -0.357 C  
HETATM    6  O   UNL     4     -12.741   8.549  72.432  1.00  0.00    -0.369 OA 
HETATM    7  C   UNL     4     -10.693   9.085  71.325  1.00  0.00    -0.309 C  
ENDROOT
BRANCH   7   8
HETATM    8  N   UNL     4      -9.507   8.538  70.608  1.00  0.00    -0.166 NA 
BRANCH   8   9
HETATM    9  C   UNL     4      -9.209   9.003  69.250  1.00  0.00    -0.145 C  
BRANCH   9  10
HETATM   10  C   UNL     4      -8.804  10.468  69.079  1.00  0.00    -0.169 C  
BRANCH  10  11
HETATM   11  N   UNL     4      -9.464  11.146  67.934  1.00  0.00    -0.170 NA 
BRANCH  11  12
HETATM   12  C   UNL     4     -10.126  12.440  68.295  1.00  0.00    -0.227 C  
HETATM   13  O   UNL     4     -12.024  13.305  67.073  1.00  0.00    -0.379 OA 
HETATM   14  O   UNL     4     -12.116  11.188  67.991  1.00  0.00    -0.635 OA 
HETATM   15  C   UNL     4     -11.601  12.348  67.766  1.00  0.00    -0.352 C  
ENDBRANCH  11  12
BRANCH  11  16
HETATM   16  C   UNL     4      -8.456  11.386  66.838  1.00  0.00    -0.157 C  
HETATM   17  C   UNL     4      -8.789  10.357  65.717  1.00  0.00    -0.170 C  
HETATM   18  O   UNL     4      -7.898   9.485  65.504  1.00  0.00    -0.104 OA 
HETATM   19  O   UNL     4     -10.037  10.383  65.396  1.00  0.00    -0.277 OA 
ENDBRANCH  11  16
ENDBRANCH  10  11
ENDBRANCH   9  10
ENDBRANCH   8   9
BRANCH   8  20
HETATM   20  C   UNL     4      -8.285   8.839  71.462  1.00  0.00    -0.135 C  
HETATM   21  C   UNL     4      -7.362   7.602  71.792  1.00  0.00    -0.065 C  
HETATM   22  O   UNL     4      -6.125   7.868  71.840  1.00  0.00    -0.038 OA 
HETATM   23  O   UNL     4      -7.923   6.467  71.980  1.00  0.00    -0.102 OA 
ENDBRANCH   8  20
ENDBRANCH   7   8
TORSDOF 7
ENDMDL
MODEL      156
REMARK 921   NORMALIZED FREE ENERGY PREDICTED BY IDOCK:   -4.25 KCAL/MOL
REMARK 922        TOTAL FREE ENERGY PREDICTED BY IDOCK:   -7.44 KCAL/MOL
REMARK 923 INTER-LIGAND FREE ENERGY PREDICTED BY IDOCK:   -6.83 KCAL/MOL
REMARK 924 INTRA-LIGAND FREE ENERGY PREDICTED BY IDOCK:   -0.60 KCAL/MOL
REMARK 927      BINDING AFFINITY PREDICTED BY RF-SCORE:    0.00 PKD
ROOT
HETATM    1 NA   UNL     1     -13.555  16.041  69.331  1.00  0.00    -0.496 Na 
HETATM    2 NA   UNL     2     -10.301  19.304  69.309  1.00  0.00    -0.355 Na 
HETATM    3 CA   UNL     3     -13.343  15.507  63.869  1.00  0.00    -0.588 Ca 
HETATM    4  O   UNL     4     -11.536  15.762  69.147  1.00  0.00    -0.351 OA 
HETATM    5  C   UNL     4     -10.687  16.346  68.412  1.00  0.00    -0.327 C  
HETATM    6  O   UNL     4     -10.578  17.619  68.377  1.00  0.00    -0.366 OA 
HETATM    7  C   UNL     4      -9.718  15.572  67.497  1.00  0.00    -0.215 C  
ENDROOT
BRANCH   7   8
HETATM    8  N   UNL     4     -10.037  14.163  67.135  1.00  0.00    -0.255 NA 
BRANCH   8   9
HETATM    9  C   UNL     4      -9.712  13.085  68.074  1.00  0.00    -0.224 C  
BRANCH   9  10
HETATM   10  C   UNL     4      -8.374  12.367  67.888  1.00  0.00    -0.165 C  
BRANCH  10  11
HETATM   11  N   UNL     4      -8.463  10.889  68.001  1.00  0.00    -0.126 NA 
BRANCH  11  12
HETATM   12  C   UNL     4      -8.789  10.201  66.712  1.00  0.00    -0.132 C  
HETATM   13  O   UNL     4      -9.922   8.066  66.638  1.00  0.00    -0.245 OA 
HETATM   14  O   UNL     4     -10.888   9.841  67.755  1.00  0.00    -0.275 OA 
HETATM   15  C   UNL     4     -10.013   9.262  67.006  1.00  0.00    -0.224 C  
ENDBRANCH  11  12
BRANCH  11  16
HETATM   16  C   UNL     4      -7.167  10.343  68.548  1.00  0.00    -0.084 C  
HETATM   17  C   UNL     4      -7.380  10.191  70.083  1.00  0.00    -0.147 C  
HETATM   18  O   UNL     4      -6.659  10.938  70.804  1.00  0.00    -0.296 OA 
HETATM   19  O   UNL     4      -8.462   9.545  70.356  1.00  0.00    -0.191 OA 
ENDBRANCH  11  16
ENDBRANCH  10  11
ENDBRANCH   9  10
ENDBRANCH   8   9
BRANCH   8  20
HETATM   20  C   UNL     4     -11.533  14.092  66.873  1.00  0.00    -0.356 C  
HETATM   21  C   UNL     4     -11.952  13.794  65.380  1.00  0.00    -0.379 C  
HETATM   22  O   UNL     4     -12.988  13.075  65.259  1.00  0.00    -0.697 OA 
HETATM   23  O   UNL     4     -11.233  14.289  64.445  1.00  0.00    -0.341 OA 
ENDBRANCH   8  20
ENDBRANCH   7   8
TORSDOF 7
ENDMDL
MODEL      157
REMARK 921   NORMALIZED FREE ENERGY PREDICTED BY IDOCK:   -4.25 KCAL/MOL
REMARK 922        TOTAL FREE ENERGY PREDICTED BY IDOCK:   -7.43 KCAL/MOL
REMARK 923 INTER-LIGAND FREE ENERGY PREDICTED BY IDOCK:   -6.88 KCAL/MOL
REMARK 924 INTRA-LIGAND FREE ENERGY PREDICTED BY IDOCK:   -0.55 KCAL/MOL
REMARK 927      BINDING AFFINITY PREDICTED BY RF-SCORE:    0.00 PKD
ROOT
HETATM    1 NA   UNL     1     -10.957   9.884  63.895  1.00  0.00    -0.299 Na 
HETATM    2 NA   UNL     2      -6.614   8.344  63.823  1.00  0.00    -0.069 Na 
HETATM    3 CA   UNL     3     -11.823   7.808  68.906  1.00  0.00    -0.348 Ca 
HETATM    4  O   UNL     4      -9.341  10.717  64.836  1.00  0.00    -0.197 OA 
HETATM    5  C   UNL     4      -8.439  10.187  65.548  1.00  0.00    -0.153 C  
HETATM    6  O   UNL     4      -7.765   9.175  65.152  1.00  0.00    -0.099 OA 
HETATM    7  C   UNL     4      -8.078  10.716  66.950  1.00  0.00    -0.124 C  
ENDROOT
BRANCH   7   8
HETATM    8  N   UNL     4      -9.056  11.578  67.670  1.00  0.00    -0.164 NA 
BRANCH   8   9
HETATM    9  C   UNL     4      -9.200  12.985  67.281  1.00  0.00    -0.213 C  
BRANCH   9  10
HETATM   10  C   UNL     4     -10.603  13.477  66.922  1.00  0.00    -0.270 C  
BRANCH  10  11
HETATM   11  N   UNL     4     -10.625  14.516  65.863  1.00  0.00    -0.297 NA 
BRANCH  11  12
HETATM   12  C   UNL     4      -9.505  15.506  65.961  1.00  0.00    -0.352 C  
HETATM   13  O   UNL     4      -9.869  17.890  65.789  1.00  0.00    -0.540 OA 
HETATM   14  O   UNL     4     -11.020  16.663  67.370  1.00  0.00    -0.238 OA 
HETATM   15  C   UNL     4     -10.146  16.856  66.444  1.00  0.00    -0.322 C  
ENDBRANCH  11  12
BRANCH  11  16
HETATM   16  C   UNL     4     -10.595  13.859  64.506  1.00  0.00    -0.354 C  
HETATM   17  C   UNL     4     -12.077  13.776  64.036  1.00  0.00    -0.403 C  
HETATM   18  O   UNL     4     -12.540  12.606  63.914  1.00  0.00    -0.633 OA 
HETATM   19  O   UNL     4     -12.676  14.914  64.135  1.00  0.00    -0.750 OA 
ENDBRANCH  11  16
ENDBRANCH  10  11
ENDBRANCH   9  10
ENDBRANCH   8   9
BRANCH   8  20
HETATM   20  C   UNL     4     -10.424  10.931  67.521  1.00  0.00    -0.215 C  
HETATM   21  C   UNL     4     -11.134  10.517  68.869  1.00  0.00    -0.261 C  
HETATM   22  O   UNL     4     -12.393  10.656  68.864  1.00  0.00    -0.358 OA 
HETATM   23  O   UNL     4     -10.401  10.088  69.826  1.00  0.00    -0.224 OA 
ENDBRANCH   8  20
ENDBRANCH   7   8
TORSDOF 7
ENDMDL
MODEL      158
REMARK 921   NORMALIZED FREE ENERGY PREDICTED BY IDOCK:   -4.25 KCAL/MOL
REMARK 922        TOTAL FREE ENERGY PREDICTED BY IDOCK:   -7.43 KCAL/MOL
REMARK 923 INTER-LIGAND FREE ENERGY PREDICTED BY IDOCK:   -7.04 KCAL/MOL
REMARK 924 INTRA-LIGAND FREE ENERGY PREDICTED BY IDOCK:   -0.39 KCAL/MOL
REMARK 927      BINDING AFFINITY PREDICTED BY RF-SCORE:    0.00 PKD
ROOT
HETATM    1 NA   UNL     1      -8.887  12.559  62.754  1.00  0.00    -0.280 Na 
HETATM    2 NA   UNL     2     -13.115  10.725  62.761  1.00  0.00    -0.718 Na 
HETATM    3 CA   UNL     3     -10.743  17.354  64.684  1.00  0.00    -0.274 Ca 
HETATM    4  O   UNL     4      -9.913  11.841  64.373  1.00  0.00    -0.256 OA 
HETATM    5  C   UNL     4     -11.106  12.038  64.747  1.00  0.00    -0.317 C  
HETATM    6  O   UNL     4     -12.102  11.871  63.963  1.00  0.00    -0.378 OA 
HETATM    7  C   UNL     4     -11.457  12.499  66.175  1.00  0.00    -0.377 C  
ENDROOT
BRANCH   7   8
HETATM    8  N   UNL     4     -10.398  13.128  67.012  1.00  0.00    -0.247 NA 
BRANCH   8   9
HETATM    9  C   UNL     4     -10.776  14.100  68.043  1.00  0.00    -0.242 C  
BRANCH   9  10
HETATM   10  C   UNL     4     -10.619  15.583  67.705  1.00  0.00    -0.281 C  
BRANCH  10  11
HETATM   11  N   UNL     4     -10.658  16.478  68.889  1.00  0.00    -0.304 NA 
BRANCH  11  12
HETATM   12  C   UNL     4     -10.543  15.759  70.198  1.00  0.00    -0.324 C  
HETATM   13  O   UNL     4     -11.782  16.439  72.159  1.00  0.00    -0.506 OA 
HETATM   14  O   UNL     4     -12.906  15.958  70.200  1.00  0.00    -0.285 OA 
HETATM   15  C   UNL     4     -11.879  16.033  70.976  1.00  0.00    -0.394 C  
ENDBRANCH  11  12
BRANCH  11  16
HETATM   16  C   UNL     4      -9.561  17.508  68.784  1.00  0.00    -0.277 C  
HETATM   17  C   UNL     4      -9.991  18.478  67.644  1.00  0.00    -0.338 C  
HETATM   18  O   UNL     4      -9.246  18.474  66.623  1.00  0.00    -0.289 OA 
HETATM   19  O   UNL     4     -11.196  18.906  67.807  1.00  0.00    -0.160 OA 
ENDBRANCH  11  16
ENDBRANCH  10  11
ENDBRANCH   9  10
ENDBRANCH   8   9
BRANCH   8  20
HETATM   20  C   UNL     4      -9.646  12.005  67.710  1.00  0.00    -0.193 C  
HETATM   21  C   UNL     4     -10.533  11.021  68.568  1.00  0.00    -0.189 C  
HETATM   22  O   UNL     4     -10.145   9.815  68.550  1.00  0.00    -0.156 OA 
HETATM   23  O   UNL     4     -11.538  11.507  69.192  1.00  0.00    -0.258 OA 
ENDBRANCH   8  20
ENDBRANCH   7   8
TORSDOF 7
ENDMDL
MODEL      159
REMARK 921   NORMALIZED FREE ENERGY PREDICTED BY IDOCK:   -4.24 KCAL/MOL
REMARK 922        TOTAL FREE ENERGY PREDICTED BY IDOCK:   -7.42 KCAL/MOL
REMARK 923 INTER-LIGAND FREE ENERGY PREDICTED BY IDOCK:   -6.85 KCAL/MOL
REMARK 924 INTRA-LIGAND FREE ENERGY PREDICTED BY IDOCK:   -0.57 KCAL/MOL
REMARK 927      BINDING AFFINITY PREDICTED BY RF-SCORE:    0.00 PKD
ROOT
HETATM    1 NA   UNL     1      -6.576  17.651  66.237  1.00  0.00    -0.130 Na 
HETATM    2 NA   UNL     2     -10.378  19.969  67.423  1.00  0.00    -0.328 Na 
HETATM    3 CA   UNL     3      -7.437  13.854  70.111  1.00  0.00    -0.342 Ca 
HETATM    4  O   UNL     4      -8.506  17.176  65.751  1.00  0.00    -0.522 OA 
HETATM    5  C   UNL     4      -9.547  17.122  66.469  1.00  0.00    -0.279 C  
HETATM    6  O   UNL     4      -9.908  18.092  67.219  1.00  0.00    -0.295 OA 
HETATM    7  C   UNL     4     -10.464  15.883  66.501  1.00  0.00    -0.304 C  
ENDROOT
BRANCH   7   8
HETATM    8  N   UNL     4      -9.928  14.576  66.027  1.00  0.00    -0.307 NA 
BRANCH   8   9
HETATM    9  C   UNL     4     -10.061  13.391  66.881  1.00  0.00    -0.255 C  
BRANCH   9  10
HETATM   10  C   UNL     4      -8.800  12.567  67.145  1.00  0.00    -0.202 C  
BRANCH  10  11
HETATM   11  N   UNL     4      -8.944  11.125  66.825  1.00  0.00    -0.160 NA 
BRANCH  11  12
HETATM   12  C   UNL     4      -8.078  10.665  65.693  1.00  0.00    -0.146 C  
HETATM   13  O   UNL     4      -8.643   8.751  64.328  1.00  0.00    -0.158 OA 
HETATM   14  O   UNL     4     -10.145  10.491  64.545  1.00  0.00    -0.334 OA 
HETATM   15  C   UNL     4      -9.016   9.890  64.701  1.00  0.00    -0.222 C  
ENDBRANCH  11  12
BRANCH  11  16
HETATM   16  C   UNL     4      -8.646  10.300  68.052  1.00  0.00    -0.118 C  
HETATM   17  C   UNL     4     -10.029   9.895  68.643  1.00  0.00    -0.164 C  
HETATM   18  O   UNL     4     -10.291  10.378  69.781  1.00  0.00    -0.240 OA 
HETATM   19  O   UNL     4     -10.801   9.377  67.749  1.00  0.00    -0.252 OA 
ENDBRANCH  11  16
ENDBRANCH  10  11
ENDBRANCH   9  10
ENDBRANCH   8   9
BRANCH   8  20
HETATM   20  C   UNL     4     -10.614  14.257  64.708  1.00  0.00    -0.412 C  
HETATM   21  C   UNL     4     -12.188  14.372  64.713  1.00  0.00    -0.446 C  
HETATM   22  O   UNL     4     -12.687  14.801  63.631  1.00  0.00    -0.713 OA 
HETATM   23  O   UNL     4     -12.812  14.031  65.777  1.00  0.00    -0.516 OA 
ENDBRANCH   8  20
ENDBRANCH   7   8
TORSDOF 7
ENDMDL
MODEL      160
REMARK 921   NORMALIZED FREE ENERGY PREDICTED BY IDOCK:   -4.24 KCAL/MOL
REMARK 922        TOTAL FREE ENERGY PREDICTED BY IDOCK:   -7.42 KCAL/MOL
REMARK 923 INTER-LIGAND FREE ENERGY PREDICTED BY IDOCK:   -6.74 KCAL/MOL
REMARK 924 INTRA-LIGAND FREE ENERGY PREDICTED BY IDOCK:   -0.68 KCAL/MOL
REMARK 927      BINDING AFFINITY PREDICTED BY RF-SCORE:    0.00 PKD
ROOT
HETATM    1 NA   UNL     1     -12.888  15.203  68.351  1.00  0.00    -0.522 Na 
HETATM    2 NA   UNL     2      -8.538  16.713  68.168  1.00  0.00    -0.170 Na 
HETATM    3 CA   UNL     3     -13.030  14.339  62.929  1.00  0.00    -0.884 Ca 
HETATM    4  O   UNL     4     -11.196  14.062  68.197  1.00  0.00    -0.254 OA 
HETATM    5  C   UNL     4     -10.192  14.176  67.436  1.00  0.00    -0.244 C  
HETATM    6  O   UNL     4      -9.539  15.271  67.331  1.00  0.00    -0.206 OA 
HETATM    7  C   UNL     4      -9.673  13.009  66.573  1.00  0.00    -0.266 C  
ENDROOT
BRANCH   7   8
HETATM    8  N   UNL     4     -10.581  11.864  66.287  1.00  0.00    -0.244 NA 
BRANCH   8   9
HETATM    9  C   UNL     4     -10.955  10.953  67.373  1.00  0.00    -0.293 C  
BRANCH   9  10
HETATM   10  C   UNL     4      -9.837  10.446  68.286  1.00  0.00    -0.154 C  
BRANCH  10  11
HETATM   11  N   UNL     4      -9.419   9.049  68.008  1.00  0.00    -0.141 NA 
BRANCH  11  12
HETATM   12  C   UNL     4     -10.287   8.342  67.013  1.00  0.00    -0.315 C  
HETATM   13  O   UNL     4     -10.557   5.939  67.012  1.00  0.00    -0.241 OA 
HETATM   14  O   UNL     4     -11.027   7.147  68.923  1.00  0.00    -0.170 OA 
HETATM   15  C   UNL     4     -10.718   6.989  67.682  1.00  0.00    -0.261 C  
ENDBRANCH  11  12
BRANCH  11  16
HETATM   16  C   UNL     4      -7.989   9.033  67.528  1.00  0.00    -0.101 C  
HETATM   17  C   UNL     4      -7.150   8.440  68.698  1.00  0.00    -0.072 C  
HETATM   18  O   UNL     4      -6.320   9.236  69.224  1.00  0.00    -0.041 OA 
HETATM   19  O   UNL     4      -7.646   7.332  69.131  1.00  0.00    -0.098 OA 
ENDBRANCH  11  16
ENDBRANCH  10  11
ENDBRANCH   9  10
ENDBRANCH   8   9
BRANCH   8  20
HETATM   20  C   UNL     4     -11.870  12.439  65.722  1.00  0.00    -0.406 C  
HETATM   21  C   UNL     4     -12.029  12.347  64.154  1.00  0.00    -0.435 C  
HETATM   22  O   UNL     4     -13.214  12.140  63.757  1.00  0.00    -0.763 OA 
HETATM   23  O   UNL     4     -10.980  12.486  63.435  1.00  0.00    -0.452 OA 
ENDBRANCH   8  20
ENDBRANCH   7   8
TORSDOF 7
ENDMDL
MODEL      161
REMARK 921   NORMALIZED FREE ENERGY PREDICTED BY IDOCK:   -4.23 KCAL/MOL
REMARK 922        TOTAL FREE ENERGY PREDICTED BY IDOCK:   -7.40 KCAL/MOL
REMARK 923 INTER-LIGAND FREE ENERGY PREDICTED BY IDOCK:   -7.02 KCAL/MOL
REMARK 924 INTRA-LIGAND FREE ENERGY PREDICTED BY IDOCK:   -0.38 KCAL/MOL
REMARK 927      BINDING AFFINITY PREDICTED BY RF-SCORE:    0.00 PKD
ROOT
HETATM    1 NA   UNL     1     -11.105  16.594  70.858  1.00  0.00    -0.317 Na 
HETATM    2 NA   UNL     2      -7.165  14.226  71.180  1.00  0.00    -0.406 Na 
HETATM    3 CA   UNL     3      -8.751  20.486  67.779  1.00  0.00    -0.293 Ca 
HETATM    4  O   UNL     4     -10.283  15.376  69.433  1.00  0.00    -0.230 OA 
HETATM    5  C   UNL     4      -9.099  15.308  68.991  1.00  0.00    -0.225 C  
HETATM    6  O   UNL     4      -8.088  15.190  69.765  1.00  0.00    -0.179 OA 
HETATM    7  C   UNL     4      -8.777  15.365  67.484  1.00  0.00    -0.175 C  
ENDROOT
BRANCH   7   8
HETATM    8  N   UNL     4      -9.792  15.925  66.549  1.00  0.00    -0.246 NA 
BRANCH   8   9
HETATM    9  C   UNL     4     -10.933  15.097  66.145  1.00  0.00    -0.331 C  
BRANCH   9  10
HETATM   10  C   UNL     4     -11.022  13.686  66.729  1.00  0.00    -0.292 C  
BRANCH  10  11
HETATM   11  N   UNL     4     -10.854  12.606  65.724  1.00  0.00    -0.269 NA 
BRANCH  11  12
HETATM   12  C   UNL     4     -11.137  13.036  64.318  1.00  0.00    -0.385 C  
HETATM   13  O   UNL     4     -12.573  11.768  62.843  1.00  0.00    -0.239 OA 
HETATM   14  O   UNL     4     -13.369  12.480  64.890  1.00  0.00    -0.702 OA 
HETATM   15  C   UNL     4     -12.517  12.398  63.927  1.00  0.00    -0.476 C  
ENDBRANCH  11  12
BRANCH  11  16
HETATM   16  C   UNL     4      -9.454  12.050  65.807  1.00  0.00    -0.175 C  
HETATM   17  C   UNL     4      -9.577  10.689  66.554  1.00  0.00    -0.180 C  
HETATM   18  O   UNL     4      -9.005  10.639  67.680  1.00  0.00    -0.138 OA 
HETATM   19  O   UNL     4     -10.487   9.937  66.036  1.00  0.00    -0.170 OA 
ENDBRANCH  11  16
ENDBRANCH  10  11
ENDBRANCH   9  10
ENDBRANCH   8   9
BRANCH   8  20
HETATM   20  C   UNL     4     -10.357  17.180  67.195  1.00  0.00    -0.307 C  
HETATM   21  C   UNL     4      -9.928  18.544  66.525  1.00  0.00    -0.380 C  
HETATM   22  O   UNL     4     -10.826  19.437  66.532  1.00  0.00    -0.419 OA 
HETATM   23  O   UNL     4      -8.745  18.632  66.048  1.00  0.00    -0.491 OA 
ENDBRANCH   8  20
ENDBRANCH   7   8
TORSDOF 7
ENDMDL
MODEL      162
REMARK 921   NORMALIZED FREE ENERGY PREDICTED BY IDOCK:   -4.23 KCAL/MOL
REMARK 922        TOTAL FREE ENERGY PREDICTED BY IDOCK:   -7.40 KCAL/MOL
REMARK 923 INTER-LIGAND FREE ENERGY PREDICTED BY IDOCK:   -6.04 KCAL/MOL
REMARK 924 INTRA-LIGAND FREE ENERGY PREDICTED BY IDOCK:   -1.36 KCAL/MOL
REMARK 927      BINDING AFFINITY PREDICTED BY RF-SCORE:    0.00 PKD
ROOT
HETATM    1 NA   UNL     1     -12.972  12.833  66.768  1.00  0.00    -0.100 Na 
HETATM    2 NA   UNL     2     -12.734  16.048  63.475  1.00  0.00    -0.792 Na 
HETATM    3 CA   UNL     3      -8.434  10.336  64.941  1.00  0.00    -0.134 Ca 
HETATM    4  O   UNL     4     -11.739  14.466  66.732  1.00  0.00    -0.371 OA 
HETATM    5  C   UNL     4     -11.004  14.923  65.809  1.00  0.00    -0.345 C  
HETATM    6  O   UNL     4     -11.451  15.156  64.634  1.00  0.00    -0.397 OA 
HETATM    7  C   UNL     4      -9.509  15.234  66.022  1.00  0.00    -0.337 C  
ENDROOT
BRANCH   7   8
HETATM    8  N   UNL     4      -8.800  14.611  67.175  1.00  0.00    -0.209 NA 
BRANCH   8   9
HETATM    9  C   UNL     4      -8.584  13.161  67.189  1.00  0.00    -0.192 C  
BRANCH   9  10
HETATM   10  C   UNL     4      -9.008  12.397  68.445  1.00  0.00    -0.133 C  
BRANCH  10  11
HETATM   11  N   UNL     4      -9.453  11.005  68.182  1.00  0.00    -0.166 NA 
BRANCH  11  12
HETATM   12  C   UNL     4      -8.328  10.038  67.980  1.00  0.00    -0.117 C  
HETATM   13  O   UNL     4      -8.672   7.644  67.957  1.00  0.00    -0.125 OA 
HETATM   14  O   UNL     4      -9.861   8.990  66.506  1.00  0.00    -0.223 OA 
HETATM   15  C   UNL     4      -8.968   8.727  67.397  1.00  0.00    -0.133 C  
ENDBRANCH  11  12
BRANCH  11  16
HETATM   16  C   UNL     4     -10.327  10.529  69.316  1.00  0.00    -0.227 C  
HETATM   17  C   UNL     4     -11.700  11.238  69.125  1.00  0.00    -0.341 C  
HETATM   18  O   UNL     4     -12.017  12.055  70.037  1.00  0.00    -0.326 OA 
HETATM   19  O   UNL     4     -12.151  11.098  67.925  1.00  0.00    -0.627 OA 
ENDBRANCH  11  16
ENDBRANCH  10  11
ENDBRANCH   9  10
ENDBRANCH   8   9
BRANCH   8  20
HETATM   20  C   UNL     4      -7.432  15.269  67.272  1.00  0.00    -0.202 C  
HETATM   21  C   UNL     4      -7.242  16.274  68.475  1.00  0.00    -0.159 C  
HETATM   22  O   UNL     4      -6.083  16.269  68.984  1.00  0.00    -0.130 OA 
HETATM   23  O   UNL     4      -8.244  16.988  68.824  1.00  0.00    -0.253 OA 
ENDBRANCH   8  20
ENDBRANCH   7   8
TORSDOF 7
ENDMDL
MODEL      163
REMARK 921   NORMALIZED FREE ENERGY PREDICTED BY IDOCK:   -4.22 KCAL/MOL
REMARK 922        TOTAL FREE ENERGY PREDICTED BY IDOCK:   -7.38 KCAL/MOL
REMARK 923 INTER-LIGAND FREE ENERGY PREDICTED BY IDOCK:   -6.71 KCAL/MOL
REMARK 924 INTRA-LIGAND FREE ENERGY PREDICTED BY IDOCK:   -0.68 KCAL/MOL
REMARK 927      BINDING AFFINITY PREDICTED BY RF-SCORE:    0.00 PKD
ROOT
HETATM    1 NA   UNL     1     -13.429  14.692  67.168  1.00  0.00    -0.158 Na 
HETATM    2 NA   UNL     2     -12.945  14.098  62.624  1.00  0.00    -0.810 Na 
HETATM    3 CA   UNL     3     -11.635   9.610  68.229  1.00  0.00    -0.431 Ca 
HETATM    4  O   UNL     4     -11.687  14.772  66.097  1.00  0.00    -0.342 OA 
HETATM    5  C   UNL     4     -11.224  13.988  65.219  1.00  0.00    -0.319 C  
HETATM    6  O   UNL     4     -11.907  13.626  64.200  1.00  0.00    -0.413 OA 
HETATM    7  C   UNL     4      -9.800  13.403  65.304  1.00  0.00    -0.082 C  
ENDROOT
BRANCH   7   8
HETATM    8  N   UNL     4      -9.098  13.401  66.617  1.00  0.00    -0.210 NA 
BRANCH   8   9
HETATM    9  C   UNL     4      -8.657  14.671  67.201  1.00  0.00    -0.223 C  
BRANCH   9  10
HETATM   10  C   UNL     4      -8.307  15.806  66.237  1.00  0.00    -0.131 C  
BRANCH  10  11
HETATM   11  N   UNL     4      -8.455  17.162  66.823  1.00  0.00    -0.219 NA 
BRANCH  11  12
HETATM   12  C   UNL     4      -9.023  17.165  68.210  1.00  0.00    -0.248 C  
HETATM   13  O   UNL     4     -10.134  19.097  69.147  1.00  0.00    -0.383 OA 
HETATM   14  O   UNL     4     -10.875  18.200  67.152  1.00  0.00    -0.333 OA 
HETATM   15  C   UNL     4     -10.159  18.248  68.223  1.00  0.00    -0.386 C  
ENDBRANCH  11  12
BRANCH  11  16
HETATM   16  C   UNL     4      -7.120  17.863  66.826  1.00  0.00    -0.197 C  
HETATM   17  C   UNL     4      -7.203  18.950  65.715  1.00  0.00    -0.211 C  
HETATM   18  O   UNL     4      -6.422  18.781  64.735  1.00  0.00    -0.506 OA 
HETATM   19  O   UNL     4      -8.259  19.680  65.835  1.00  0.00    -0.380 OA 
ENDBRANCH  11  16
ENDBRANCH  10  11
ENDBRANCH   9  10
ENDBRANCH   8   9
BRANCH   8  20
HETATM   20  C   UNL     4     -10.028  12.744  67.625  1.00  0.00    -0.217 C  
HETATM   21  C   UNL     4      -9.670  11.258  68.018  1.00  0.00    -0.179 C  
HETATM   22  O   UNL     4      -9.907  10.962  69.226  1.00  0.00    -0.185 OA 
HETATM   23  O   UNL     4      -9.186  10.497  67.110  1.00  0.00    -0.143 OA 
ENDBRANCH   8  20
ENDBRANCH   7   8
TORSDOF 7
ENDMDL
MODEL      164
REMARK 921   NORMALIZED FREE ENERGY PREDICTED BY IDOCK:   -4.20 KCAL/MOL
REMARK 922        TOTAL FREE ENERGY PREDICTED BY IDOCK:   -7.37 KCAL/MOL
REMARK 923 INTER-LIGAND FREE ENERGY PREDICTED BY IDOCK:   -6.99 KCAL/MOL
REMARK 924 INTRA-LIGAND FREE ENERGY PREDICTED BY IDOCK:   -0.37 KCAL/MOL
REMARK 927      BINDING AFFINITY PREDICTED BY RF-SCORE:    0.00 PKD
ROOT
HETATM    1 NA   UNL     1     -12.273  10.038  67.852  1.00  0.00    -0.485 Na 
HETATM    2 NA   UNL     2     -14.199  11.922  64.113  1.00  0.00    -0.669 Na 
HETATM    3 CA   UNL     3      -7.490   9.288  65.259  1.00  0.00    -0.087 Ca 
HETATM    4  O   UNL     4     -12.014  11.948  67.167  1.00  0.00    -0.611 OA 
HETATM    5  C   UNL     4     -11.765  12.380  66.003  1.00  0.00    -0.410 C  
HETATM    6  O   UNL     4     -12.466  12.044  64.988  1.00  0.00    -0.414 OA 
HETATM    7  C   UNL     4     -10.597  13.344  65.713  1.00  0.00    -0.282 C  
ENDROOT
BRANCH   7   8
HETATM    8  N   UNL     4      -9.488  13.451  66.701  1.00  0.00    -0.260 NA 
BRANCH   8   9
HETATM    9  C   UNL     4      -9.490  14.550  67.671  1.00  0.00    -0.209 C  
BRANCH   9  10
HETATM   10  C   UNL     4      -8.207  15.372  67.809  1.00  0.00    -0.149 C  
BRANCH  10  11
HETATM   11  N   UNL     4      -8.430  16.839  67.836  1.00  0.00    -0.197 NA 
BRANCH  11  12
HETATM   12  C   UNL     4      -9.348  17.293  68.928  1.00  0.00    -0.191 C  
HETATM   13  O   UNL     4     -10.155  19.568  69.075  1.00  0.00    -0.442 OA 
HETATM   14  O   UNL     4     -10.499  18.350  67.144  1.00  0.00    -0.381 OA 
HETATM   15  C   UNL     4     -10.130  18.534  68.365  1.00  0.00    -0.388 C  
ENDBRANCH  11  12
BRANCH  11  16
HETATM   16  C   UNL     4      -7.107  17.552  67.964  1.00  0.00    -0.201 C  
HETATM   17  C   UNL     4      -6.538  17.664  66.518  1.00  0.00    -0.227 C  
HETATM   18  O   UNL     4      -5.473  17.017  66.306  1.00  0.00    -0.341 OA 
HETATM   19  O   UNL     4      -7.403  18.155  65.698  1.00  0.00    -0.528 OA 
ENDBRANCH  11  16
ENDBRANCH  10  11
ENDBRANCH   9  10
ENDBRANCH   8   9
BRANCH   8  20
HETATM   20  C   UNL     4      -9.463  12.154  67.495  1.00  0.00    -0.180 C  
HETATM   21  C   UNL     4      -8.060  11.437  67.588  1.00  0.00    -0.124 C  
HETATM   22  O   UNL     4      -7.837  10.859  68.693  1.00  0.00    -0.110 OA 
HETATM   23  O   UNL     4      -7.287  11.497  66.570  1.00  0.00    -0.108 OA 
ENDBRANCH   8  20
ENDBRANCH   7   8
TORSDOF 7
ENDMDL
MODEL      165
REMARK 921   NORMALIZED FREE ENERGY PREDICTED BY IDOCK:   -4.19 KCAL/MOL
REMARK 922        TOTAL FREE ENERGY PREDICTED BY IDOCK:   -7.34 KCAL/MOL
REMARK 923 INTER-LIGAND FREE ENERGY PREDICTED BY IDOCK:   -6.72 KCAL/MOL
REMARK 924 INTRA-LIGAND FREE ENERGY PREDICTED BY IDOCK:   -0.62 KCAL/MOL
REMARK 927      BINDING AFFINITY PREDICTED BY RF-SCORE:    0.00 PKD
ROOT
HETATM    1 NA   UNL     1      -9.291   8.236  71.049  1.00  0.00    -0.135 Na 
HETATM    2 NA   UNL     2     -13.629   7.153  72.165  1.00  0.00    -0.303 Na 
HETATM    3 CA   UNL     3     -10.750   9.695  65.959  1.00  0.00    -0.225 Ca 
HETATM    4  O   UNL     4     -10.795   9.535  71.541  1.00  0.00    -0.355 OA 
HETATM    5  C   UNL     4     -11.993   9.598  71.139  1.00  0.00    -0.367 C  
HETATM    6  O   UNL     4     -12.774   8.586  71.165  1.00  0.00    -0.239 OA 
HETATM    7  C   UNL     4     -12.611  10.897  70.585  1.00  0.00    -0.346 C  
ENDROOT
BRANCH   7   8
HETATM    8  N   UNL     4     -11.706  11.982  70.113  1.00  0.00    -0.282 NA 
BRANCH   8   9
HETATM    9  C   UNL     4     -10.926  11.786  68.887  1.00  0.00    -0.239 C  
BRANCH   9  10
HETATM   10  C   UNL     4      -9.832  12.809  68.576  1.00  0.00    -0.143 C  
BRANCH  10  11
HETATM   11  N   UNL     4     -10.241  13.853  67.603  1.00  0.00    -0.239 NA 
BRANCH  11  12
HETATM   12  C   UNL     4      -9.326  15.038  67.563  1.00  0.00    -0.195 C  
HETATM   13  O   UNL     4     -10.018  17.175  66.669  1.00  0.00    -0.270 OA 
HETATM   14  O   UNL     4     -11.235  16.191  68.367  1.00  0.00    -0.345 OA 
HETATM   15  C   UNL     4     -10.245  16.310  67.549  1.00  0.00    -0.270 C  
ENDBRANCH  11  12
BRANCH  11  16
HETATM   16  C   UNL     4     -10.341  13.250  66.224  1.00  0.00    -0.290 C  
HETATM   17  C   UNL     4     -11.863  13.079  65.940  1.00  0.00    -0.416 C  
HETATM   18  O   UNL     4     -12.259  11.885  65.823  1.00  0.00    -0.422 OA 
HETATM   19  O   UNL     4     -12.518  14.167  66.164  1.00  0.00    -0.466 OA 
ENDBRANCH  11  16
ENDBRANCH  10  11
ENDBRANCH   9  10
ENDBRANCH   8   9
BRANCH   8  20
HETATM   20  C   UNL     4     -12.559  13.224  69.907  1.00  0.00     0.068 C  
HETATM   21  C   UNL     4     -13.017  13.963  71.225  1.00  0.00    -0.341 C  
HETATM   22  O   UNL     4     -13.070  15.225  71.128  1.00  0.00    -0.408 OA 
HETATM   23  O   UNL     4     -13.289  13.248  72.250  1.00  0.00    -0.495 OA 
ENDBRANCH   8  20
ENDBRANCH   7   8
TORSDOF 7
ENDMDL
MODEL      166
REMARK 921   NORMALIZED FREE ENERGY PREDICTED BY IDOCK:   -4.19 KCAL/MOL
REMARK 922        TOTAL FREE ENERGY PREDICTED BY IDOCK:   -7.34 KCAL/MOL
REMARK 923 INTER-LIGAND FREE ENERGY PREDICTED BY IDOCK:   -6.48 KCAL/MOL
REMARK 924 INTRA-LIGAND FREE ENERGY PREDICTED BY IDOCK:   -0.86 KCAL/MOL
REMARK 927      BINDING AFFINITY PREDICTED BY RF-SCORE:    0.00 PKD
ROOT
HETATM    1 NA   UNL     1      -9.809   6.127  71.112  1.00  0.00    -0.165 Na 
HETATM    2 NA   UNL     2     -13.348   8.383  73.013  1.00  0.00    -0.519 Na 
HETATM    3 CA   UNL     3     -12.031   6.449  66.100  1.00  0.00    -0.523 Ca 
HETATM    4  O   UNL     4     -10.142   8.145  71.074  1.00  0.00    -0.185 OA 
HETATM    5  C   UNL     4     -11.190   8.803  70.806  1.00  0.00    -0.266 C  
HETATM    6  O   UNL     4     -12.308   8.566  71.380  1.00  0.00    -0.298 OA 
HETATM    7  C   UNL     4     -11.206   9.941  69.767  1.00  0.00    -0.235 C  
ENDROOT
BRANCH   7   8
HETATM    8  N   UNL     4     -10.115  10.010  68.755  1.00  0.00    -0.176 NA 
BRANCH   8   9
HETATM    9  C   UNL     4     -10.392  10.587  67.436  1.00  0.00    -0.224 C  
BRANCH   9  10
HETATM   10  C   UNL     4     -11.594  11.525  67.314  1.00  0.00    -0.199 C  
BRANCH  10  11
HETATM   11  N   UNL     4     -11.376  12.670  66.395  1.00  0.00    -0.313 NA 
BRANCH  11  12
HETATM   12  C   UNL     4     -10.197  13.521  66.755  1.00  0.00    -0.264 C  
HETATM   13  O   UNL     4     -10.196  15.920  66.455  1.00  0.00    -0.270 OA 
HETATM   14  O   UNL     4     -11.852  14.920  67.717  1.00  0.00    -0.345 OA 
HETATM   15  C   UNL     4     -10.757  14.960  67.037  1.00  0.00    -0.307 C  
ENDBRANCH  11  12
BRANCH  11  16
HETATM   16  C   UNL     4     -11.216  12.164  64.983  1.00  0.00    -0.322 C  
HETATM   17  C   UNL     4     -12.435  12.718  64.188  1.00  0.00    -0.369 C  
HETATM   18  O   UNL     4     -13.241  11.844  63.758  1.00  0.00    -0.655 OA 
HETATM   19  O   UNL     4     -12.579  13.989  64.354  1.00  0.00    -0.651 OA 
ENDBRANCH  11  16
ENDBRANCH  10  11
ENDBRANCH   9  10
ENDBRANCH   8   9
BRANCH   8  20
HETATM   20  C   UNL     4      -8.982  10.818  69.368  1.00  0.00     0.041 C  
HETATM   21  C   UNL     4      -7.528  10.257  69.112  1.00  0.00    -0.105 C  
HETATM   22  O   UNL     4      -6.641  11.149  68.961  1.00  0.00    -0.062 OA 
HETATM   23  O   UNL     4      -7.371   8.988  69.080  1.00  0.00    -0.069 OA 
ENDBRANCH   8  20
ENDBRANCH   7   8
TORSDOF 7
ENDMDL
MODEL      167
REMARK 921   NORMALIZED FREE ENERGY PREDICTED BY IDOCK:   -4.18 KCAL/MOL
REMARK 922        TOTAL FREE ENERGY PREDICTED BY IDOCK:   -7.33 KCAL/MOL
REMARK 923 INTER-LIGAND FREE ENERGY PREDICTED BY IDOCK:   -7.28 KCAL/MOL
REMARK 924 INTRA-LIGAND FREE ENERGY PREDICTED BY IDOCK:   -0.05 KCAL/MOL
REMARK 927      BINDING AFFINITY PREDICTED BY RF-SCORE:    0.00 PKD
ROOT
HETATM    1 NA   UNL     1      -9.989   6.753  71.828  1.00  0.00    -0.170 Na 
HETATM    2 NA   UNL     2     -13.533   9.055  73.664  1.00  0.00    -0.736 Na 
HETATM    3 CA   UNL     3     -12.382   6.606  66.887  1.00  0.00    -0.609 Ca 
HETATM    4  O   UNL     4     -10.386   8.752  71.640  1.00  0.00    -0.263 OA 
HETATM    5  C   UNL     4     -11.462   9.355  71.357  1.00  0.00    -0.379 C  
HETATM    6  O   UNL     4     -12.552   9.134  71.987  1.00  0.00    -0.350 OA 
HETATM    7  C   UNL     4     -11.547  10.405  70.231  1.00  0.00    -0.327 C  
ENDROOT
BRANCH   7   8
HETATM    8  N   UNL     4     -10.492  10.423  69.180  1.00  0.00    -0.212 NA 
BRANCH   8   9
HETATM    9  C   UNL     4     -10.304  11.630  68.370  1.00  0.00    -0.204 C  
BRANCH   9  10
HETATM   10  C   UNL     4     -11.517  12.540  68.166  1.00  0.00    -0.319 C  
BRANCH  10  11
HETATM   11  N   UNL     4     -11.380  13.482  67.027  1.00  0.00    -0.312 NA 
BRANCH  11  12
HETATM   12  C   UNL     4     -12.341  13.224  65.908  1.00  0.00    -0.418 C  
HETATM   13  O   UNL     4     -12.418  14.608  63.926  1.00  0.00    -0.813 OA 
HETATM   14  O   UNL     4     -10.434  13.604  64.551  1.00  0.00    -0.430 OA 
HETATM   15  C   UNL     4     -11.699  13.846  64.617  1.00  0.00    -0.397 C  
ENDBRANCH  11  12
BRANCH  11  16
HETATM   16  C   UNL     4     -11.547  14.898  67.517  1.00  0.00    -0.339 C  
HETATM   17  C   UNL     4     -10.157  15.327  68.074  1.00  0.00    -0.229 C  
HETATM   18  O   UNL     4     -10.121  15.552  69.317  1.00  0.00    -0.222 OA 
HETATM   19  O   UNL     4      -9.210  15.095  67.231  1.00  0.00    -0.189 OA 
ENDBRANCH  11  16
ENDBRANCH  10  11
ENDBRANCH   9  10
ENDBRANCH   8   9
BRANCH   8  20
HETATM   20  C   UNL     4      -9.166  10.132  69.865  1.00  0.00    -0.080 C  
HETATM   21  C   UNL     4      -8.102   9.360  68.993  1.00  0.00    -0.106 C  
HETATM   22  O   UNL     4      -6.901   9.707  69.200  1.00  0.00    -0.049 OA 
HETATM   23  O   UNL     4      -8.526   8.473  68.174  1.00  0.00    -0.132 OA 
ENDBRANCH   8  20
ENDBRANCH   7   8
TORSDOF 7
ENDMDL
MODEL      168
REMARK 921   NORMALIZED FREE ENERGY PREDICTED BY IDOCK:   -4.17 KCAL/MOL
REMARK 922        TOTAL FREE ENERGY PREDICTED BY IDOCK:   -7.32 KCAL/MOL
REMARK 923 INTER-LIGAND FREE ENERGY PREDICTED BY IDOCK:   -6.47 KCAL/MOL
REMARK 924 INTRA-LIGAND FREE ENERGY PREDICTED BY IDOCK:   -0.85 KCAL/MOL
REMARK 927      BINDING AFFINITY PREDICTED BY RF-SCORE:    0.00 PKD
ROOT
HETATM    1 NA   UNL     1      -8.006  13.181  69.471  1.00  0.00    -0.317 Na 
HETATM    2 NA   UNL     2     -10.790  16.845  69.238  1.00  0.00    -0.248 Na 
HETATM    3 CA   UNL     3     -12.211   9.695  68.889  1.00  0.00    -0.451 Ca 
HETATM    4  O   UNL     4      -8.825  13.996  67.783  1.00  0.00    -0.169 OA 
HETATM    5  C   UNL     4     -10.012  14.356  67.534  1.00  0.00    -0.224 C  
HETATM    6  O   UNL     4     -10.661  15.144  68.304  1.00  0.00    -0.236 OA 
HETATM    7  C   UNL     4     -10.775  13.874  66.284  1.00  0.00    -0.285 C  
ENDROOT
BRANCH   7   8
HETATM    8  N   UNL     4     -10.300  12.654  65.573  1.00  0.00    -0.282 NA 
BRANCH   8   9
HETATM    9  C   UNL     4     -10.688  11.332  66.074  1.00  0.00    -0.242 C  
BRANCH   9  10
HETATM   10  C   UNL     4     -10.082  10.110  65.382  1.00  0.00    -0.272 C  
BRANCH  10  11
HETATM   11  N   UNL     4      -9.377   9.184  66.302  1.00  0.00    -0.197 NA 
BRANCH  11  12
HETATM   12  C   UNL     4     -10.197   8.002  66.721  1.00  0.00    -0.297 C  
HETATM   13  O   UNL     4      -9.635   6.658  68.651  1.00  0.00    -0.131 OA 
HETATM   14  O   UNL     4      -9.935   8.936  68.884  1.00  0.00    -0.179 OA 
HETATM   15  C   UNL     4      -9.946   7.809  68.259  1.00  0.00    -0.178 C  
ENDBRANCH  11  12
BRANCH  11  16
HETATM   16  C   UNL     4      -8.099   8.705  65.660  1.00  0.00    -0.110 C  
HETATM   17  C   UNL     4      -7.041   9.817  65.928  1.00  0.00    -0.102 C  
HETATM   18  O   UNL     4      -6.614  10.414  64.899  1.00  0.00    -0.121 OA 
HETATM   19  O   UNL     4      -6.996  10.146  67.174  1.00  0.00    -0.085 OA 
ENDBRANCH  11  16
ENDBRANCH  10  11
ENDBRANCH   9  10
ENDBRANCH   8   9
BRANCH   8  20
HETATM   20  C   UNL     4     -10.788  12.750  64.136  1.00  0.00    -0.406 C  
HETATM   21  C   UNL     4     -12.322  13.074  63.956  1.00  0.00    -0.363 C  
HETATM   22  O   UNL     4     -12.590  13.808  62.960  1.00  0.00    -0.721 OA 
HETATM   23  O   UNL     4     -13.143  12.582  64.805  1.00  0.00    -0.853 OA 
ENDBRANCH   8  20
ENDBRANCH   7   8
TORSDOF 7
ENDMDL
MODEL      169
REMARK 921   NORMALIZED FREE ENERGY PREDICTED BY IDOCK:   -4.16 KCAL/MOL
REMARK 922        TOTAL FREE ENERGY PREDICTED BY IDOCK:   -7.31 KCAL/MOL
REMARK 923 INTER-LIGAND FREE ENERGY PREDICTED BY IDOCK:   -6.03 KCAL/MOL
REMARK 924 INTRA-LIGAND FREE ENERGY PREDICTED BY IDOCK:   -1.27 KCAL/MOL
REMARK 927      BINDING AFFINITY PREDICTED BY RF-SCORE:    0.00 PKD
ROOT
HETATM    1 NA   UNL     1     -10.035   9.945  64.448  1.00  0.00    -0.271 Na 
HETATM    2 NA   UNL     2      -5.665   8.576  64.958  1.00  0.00    -0.042 Na 
HETATM    3 CA   UNL     3     -11.581   7.415  69.071  1.00  0.00    -0.426 Ca 
HETATM    4  O   UNL     4      -8.633  10.752  65.701  1.00  0.00    -0.178 OA 
HETATM    5  C   UNL     4      -7.829  10.196  66.505  1.00  0.00    -0.112 C  
HETATM    6  O   UNL     4      -7.052   9.247  66.145  1.00  0.00    -0.088 OA 
HETATM    7  C   UNL     4      -7.722  10.615  67.985  1.00  0.00    -0.100 C  
ENDROOT
BRANCH   7   8
HETATM    8  N   UNL     4      -8.843  11.375  68.603  1.00  0.00    -0.154 NA 
BRANCH   8   9
HETATM    9  C   UNL     4      -9.266  12.647  68.008  1.00  0.00    -0.208 C  
BRANCH   9  10
HETATM   10  C   UNL     4     -10.761  12.843  67.752  1.00  0.00    -0.224 C  
BRANCH  10  11
HETATM   11  N   UNL     4     -11.091  13.197  66.348  1.00  0.00    -0.285 NA 
BRANCH  11  12
HETATM   12  C   UNL     4     -11.974  12.200  65.663  1.00  0.00    -0.208 C  
HETATM   13  O   UNL     4     -12.716  12.487  63.380  1.00  0.00    -0.710 OA 
HETATM   14  O   UNL     4     -10.459  12.508  63.865  1.00  0.00    -0.398 OA 
HETATM   15  C   UNL     4     -11.713  12.360  64.123  1.00  0.00    -0.400 C  
ENDBRANCH  11  12
BRANCH  11  16
HETATM   16  C   UNL     4     -11.743  14.557  66.307  1.00  0.00    -0.358 C  
HETATM   17  C   UNL     4     -10.579  15.591  66.329  1.00  0.00    -0.307 C  
HETATM   18  O   UNL     4     -10.528  16.324  67.358  1.00  0.00    -0.295 OA 
HETATM   19  O   UNL     4      -9.687  15.330  65.435  1.00  0.00    -0.307 OA 
ENDBRANCH  11  16
ENDBRANCH  10  11
ENDBRANCH   9  10
ENDBRANCH   8   9
BRANCH   8  20
HETATM   20  C   UNL     4     -10.058  10.461  68.614  1.00  0.00    -0.176 C  
HETATM   21  C   UNL     4     -10.445   9.855  70.020  1.00  0.00    -0.284 C  
HETATM   22  O   UNL     4     -11.690   9.727  70.211  1.00  0.00    -0.251 OA 
HETATM   23  O   UNL     4      -9.498   9.553  70.824  1.00  0.00    -0.251 OA 
ENDBRANCH   8  20
ENDBRANCH   7   8
TORSDOF 7
ENDMDL
MODEL      170
REMARK 921   NORMALIZED FREE ENERGY PREDICTED BY IDOCK:   -4.14 KCAL/MOL
REMARK 922        TOTAL FREE ENERGY PREDICTED BY IDOCK:   -7.28 KCAL/MOL
REMARK 923 INTER-LIGAND FREE ENERGY PREDICTED BY IDOCK:   -5.84 KCAL/MOL
REMARK 924 INTRA-LIGAND FREE ENERGY PREDICTED BY IDOCK:   -1.44 KCAL/MOL
REMARK 927      BINDING AFFINITY PREDICTED BY RF-SCORE:    0.00 PKD
ROOT
HETATM    1 NA   UNL     1     -11.686   9.709  67.310  1.00  0.00    -0.377 Na 
HETATM    2 NA   UNL     2     -14.277  11.775  64.107  1.00  0.00    -0.665 Na 
HETATM    3 CA   UNL     3      -7.035  11.183  64.788  1.00  0.00    -0.334 Ca 
HETATM    4  O   UNL     4     -12.070  11.712  67.144  1.00  0.00    -0.575 OA 
HETATM    5  C   UNL     4     -12.023  12.480  66.139  1.00  0.00    -0.366 C  
HETATM    6  O   UNL     4     -12.630  12.210  65.047  1.00  0.00    -0.514 OA 
HETATM    7  C   UNL     4     -11.230  13.802  66.148  1.00  0.00    -0.300 C  
ENDROOT
BRANCH   7   8
HETATM    8  N   UNL     4     -10.165  13.998  67.170  1.00  0.00    -0.256 NA 
BRANCH   8   9
HETATM    9  C   UNL     4      -8.973  13.144  67.142  1.00  0.00    -0.228 C  
BRANCH   9  10
HETATM   10  C   UNL     4      -8.577  12.443  68.443  1.00  0.00    -0.129 C  
BRANCH  10  11
HETATM   11  N   UNL     4      -8.112  11.046  68.257  1.00  0.00    -0.121 NA 
BRANCH  11  12
HETATM   12  C   UNL     4      -6.702  10.937  67.763  1.00  0.00    -0.064 C  
HETATM   13  O   UNL     4      -5.628   8.804  67.385  1.00  0.00    -0.038 OA 
HETATM   14  O   UNL     4      -7.625   9.287  66.331  1.00  0.00    -0.092 OA 
HETATM   15  C   UNL     4      -6.587   9.541  67.052  1.00  0.00    -0.068 C  
ENDBRANCH  11  12
BRANCH  11  16
HETATM   16  C   UNL     4      -8.249  10.288  69.554  1.00  0.00    -0.155 C  
HETATM   17  C   UNL     4      -9.676   9.663  69.536  1.00  0.00    -0.203 C  
HETATM   18  O   UNL     4     -10.468  10.102  70.419  1.00  0.00    -0.280 OA 
HETATM   19  O   UNL     4      -9.905   9.020  68.443  1.00  0.00    -0.157 OA 
ENDBRANCH  11  16
ENDBRANCH  10  11
ENDBRANCH   9  10
ENDBRANCH   8   9
BRANCH   8  20
HETATM   20  C   UNL     4      -9.687  15.437  67.054  1.00  0.00    -0.224 C  
HETATM   21  C   UNL     4      -9.694  16.269  68.395  1.00  0.00    -0.222 C  
HETATM   22  O   UNL     4      -8.741  17.096  68.505  1.00  0.00    -0.247 OA 
HETATM   23  O   UNL     4     -10.634  16.047  69.234  1.00  0.00    -0.226 OA 
ENDBRANCH   8  20
ENDBRANCH   7   8
TORSDOF 7
ENDMDL
MODEL      171
REMARK 921   NORMALIZED FREE ENERGY PREDICTED BY IDOCK:   -4.14 KCAL/MOL
REMARK 922        TOTAL FREE ENERGY PREDICTED BY IDOCK:   -7.28 KCAL/MOL
REMARK 923 INTER-LIGAND FREE ENERGY PREDICTED BY IDOCK:   -6.07 KCAL/MOL
REMARK 924 INTRA-LIGAND FREE ENERGY PREDICTED BY IDOCK:   -1.21 KCAL/MOL
REMARK 927      BINDING AFFINITY PREDICTED BY RF-SCORE:    0.00 PKD
ROOT
HETATM    1 NA   UNL     1     -12.291  12.624  66.602  1.00  0.00    -0.360 Na 
HETATM    2 NA   UNL     2     -12.830  15.882  63.388  1.00  0.00    -0.717 Na 
HETATM    3 CA   UNL     3      -7.265  11.369  64.777  1.00  0.00    -0.334 Ca 
HETATM    4  O   UNL     4     -11.499  14.510  66.620  1.00  0.00    -0.347 OA 
HETATM    5  C   UNL     4     -10.892  15.158  65.718  1.00  0.00    -0.353 C  
HETATM    6  O   UNL     4     -11.375  15.304  64.543  1.00  0.00    -0.366 OA 
HETATM    7  C   UNL     4      -9.522  15.822  65.958  1.00  0.00    -0.357 C  
ENDROOT
BRANCH   7   8
HETATM    8  N   UNL     4      -8.689  15.363  67.105  1.00  0.00    -0.204 NA 
BRANCH   8   9
HETATM    9  C   UNL     4      -8.225  13.973  67.148  1.00  0.00    -0.125 C  
BRANCH   9  10
HETATM   10  C   UNL     4      -8.641  13.127  68.352  1.00  0.00    -0.124 C  
BRANCH  10  11
HETATM   11  N   UNL     4      -8.942  11.712  68.020  1.00  0.00    -0.169 NA 
BRANCH  11  12
HETATM   12  C   UNL     4      -9.443  11.511  66.623  1.00  0.00    -0.193 C  
HETATM   13  O   UNL     4     -10.260   9.374  65.840  1.00  0.00    -0.259 OA 
HETATM   14  O   UNL     4     -11.194  10.343  67.716  1.00  0.00    -0.309 OA 
HETATM   15  C   UNL     4     -10.432  10.292  66.677  1.00  0.00    -0.194 C  
ENDBRANCH  11  12
BRANCH  11  16
HETATM   16  C   UNL     4      -7.712  10.867  68.239  1.00  0.00    -0.111 C  
HETATM   17  C   UNL     4      -7.826  10.309  69.688  1.00  0.00    -0.160 C  
HETATM   18  O   UNL     4      -6.941  10.716  70.494  1.00  0.00    -0.280 OA 
HETATM   19  O   UNL     4      -8.973   9.760  69.902  1.00  0.00    -0.206 OA 
ENDBRANCH  11  16
ENDBRANCH  10  11
ENDBRANCH   9  10
ENDBRANCH   8   9
BRANCH   8  20
HETATM   20  C   UNL     4      -7.454  16.250  67.149  1.00  0.00    -0.203 C  
HETATM   21  C   UNL     4      -7.420  17.315  68.314  1.00  0.00    -0.224 C  
HETATM   22  O   UNL     4      -6.268  17.528  68.796  1.00  0.00    -0.174 OA 
HETATM   23  O   UNL     4      -8.524  17.858  68.663  1.00  0.00    -0.299 OA 
ENDBRANCH   8  20
ENDBRANCH   7   8
TORSDOF 7
ENDMDL
MODEL      172
REMARK 921   NORMALIZED FREE ENERGY PREDICTED BY IDOCK:   -4.13 KCAL/MOL
REMARK 922        TOTAL FREE ENERGY PREDICTED BY IDOCK:   -7.26 KCAL/MOL
REMARK 923 INTER-LIGAND FREE ENERGY PREDICTED BY IDOCK:   -6.97 KCAL/MOL
REMARK 924 INTRA-LIGAND FREE ENERGY PREDICTED BY IDOCK:   -0.30 KCAL/MOL
REMARK 927      BINDING AFFINITY PREDICTED BY RF-SCORE:    0.00 PKD
ROOT
HETATM    1 NA   UNL     1      -6.863  12.663  66.409  1.00  0.00    -0.358 Na 
HETATM    2 NA   UNL     2      -6.688   9.776  62.821  1.00  0.00    -0.099 Na 
HETATM    3 CA   UNL     3     -10.747  15.723  64.016  1.00  0.00    -0.608 Ca 
HETATM    4  O   UNL     4      -8.185  11.163  65.973  1.00  0.00    -0.161 OA 
HETATM    5  C   UNL     4      -8.756  10.857  64.886  1.00  0.00    -0.067 C  
HETATM    6  O   UNL     4      -8.104  10.683  63.800  1.00  0.00    -0.089 OA 
HETATM    7  C   UNL     4     -10.282  10.672  64.780  1.00  0.00    -0.331 C  
ENDROOT
BRANCH   7   8
HETATM    8  N   UNL     4     -11.156  11.258  65.834  1.00  0.00    -0.168 NA 
BRANCH   8   9
HETATM    9  C   UNL     4     -10.758  11.152  67.241  1.00  0.00    -0.258 C  
BRANCH   9  10
HETATM   10  C   UNL     4     -11.860  11.258  68.296  1.00  0.00    -0.229 C  
BRANCH  10  11
HETATM   11  N   UNL     4     -11.559  12.216  69.389  1.00  0.00    -0.302 NA 
BRANCH  11  12
HETATM   12  C   UNL     4     -11.997  13.620  69.103  1.00  0.00    -0.351 C  
HETATM   13  O   UNL     4     -10.868  15.542  70.041  1.00  0.00    -0.270 OA 
HETATM   14  O   UNL     4      -9.673  13.992  68.814  1.00  0.00    -0.205 OA 
HETATM   15  C   UNL     4     -10.735  14.531  69.309  1.00  0.00    -0.226 C  
ENDBRANCH  11  12
BRANCH  11  16
HETATM   16  C   UNL     4     -12.198  11.742  70.670  1.00  0.00    -0.349 C  
HETATM   17  C   UNL     4     -11.718  10.275  70.871  1.00  0.00    -0.379 C  
HETATM   18  O   UNL     4     -12.626   9.397  70.813  1.00  0.00    -0.192 OA 
HETATM   19  O   UNL     4     -10.436  10.170  70.769  1.00  0.00    -0.189 OA 
ENDBRANCH  11  16
ENDBRANCH  10  11
ENDBRANCH   9  10
ENDBRANCH   8   9
BRANCH   8  20
HETATM   20  C   UNL     4     -11.308  12.739  65.522  1.00  0.00    -0.312 C  
HETATM   21  C   UNL     4     -12.698  13.169  64.910  1.00  0.00    -0.356 C  
HETATM   22  O   UNL     4     -13.106  14.308  65.283  1.00  0.00    -0.707 OA 
HETATM   23  O   UNL     4     -13.278  12.356  64.111  1.00  0.00    -0.761 OA 
ENDBRANCH   8  20
ENDBRANCH   7   8
TORSDOF 7
ENDMDL
MODEL      173
REMARK 921   NORMALIZED FREE ENERGY PREDICTED BY IDOCK:   -4.12 KCAL/MOL
REMARK 922        TOTAL FREE ENERGY PREDICTED BY IDOCK:   -7.25 KCAL/MOL
REMARK 923 INTER-LIGAND FREE ENERGY PREDICTED BY IDOCK:   -6.12 KCAL/MOL
REMARK 924 INTRA-LIGAND FREE ENERGY PREDICTED BY IDOCK:   -1.13 KCAL/MOL
REMARK 927      BINDING AFFINITY PREDICTED BY RF-SCORE:    0.00 PKD
ROOT
HETATM    1 NA   UNL     1     -13.252   6.306  72.461  1.00  0.00    -0.475 Na 
HETATM    2 NA   UNL     2     -14.219  10.796  72.835  1.00  0.00    -0.607 Na 
HETATM    3 CA   UNL     3     -12.268   6.759  67.077  1.00  0.00    -0.691 Ca 
HETATM    4  O   UNL     4     -11.911   7.850  72.542  1.00  0.00    -0.354 OA 
HETATM    5  C   UNL     4     -11.883   8.951  71.918  1.00  0.00    -0.370 C  
HETATM    6  O   UNL     4     -12.887   9.742  71.888  1.00  0.00    -0.384 OA 
HETATM    7  C   UNL     4     -10.639   9.428  71.143  1.00  0.00    -0.333 C  
ENDROOT
BRANCH   7   8
HETATM    8  N   UNL     4      -9.605   8.431  70.753  1.00  0.00    -0.167 NA 
BRANCH   8   9
HETATM    9  C   UNL     4      -9.331   8.195  69.332  1.00  0.00    -0.155 C  
BRANCH   9  10
HETATM   10  C   UNL     4     -10.411   8.603  68.328  1.00  0.00    -0.207 C  
BRANCH  10  11
HETATM   11  N   UNL     4      -9.970   9.633  67.354  1.00  0.00    -0.175 NA 
BRANCH  11  12
HETATM   12  C   UNL     4      -9.647   9.086  65.998  1.00  0.00    -0.272 C  
HETATM   13  O   UNL     4      -8.557  10.414  64.296  1.00  0.00    -0.180 OA 
HETATM   14  O   UNL     4      -7.565  10.161  66.365  1.00  0.00    -0.101 OA 
HETATM   15  C   UNL     4      -8.445   9.936  65.451  1.00  0.00    -0.147 C  
ENDBRANCH  11  12
BRANCH  11  16
HETATM   16  C   UNL     4     -11.031  10.697  67.226  1.00  0.00    -0.284 C  
HETATM   17  C   UNL     4     -10.664  11.797  68.265  1.00  0.00    -0.214 C  
HETATM   18  O   UNL     4     -11.494  11.948  69.206  1.00  0.00    -0.262 OA 
HETATM   19  O   UNL     4      -9.433  12.166  68.159  1.00  0.00    -0.194 OA 
ENDBRANCH  11  16
ENDBRANCH  10  11
ENDBRANCH   9  10
ENDBRANCH   8   9
BRANCH   8  20
HETATM   20  C   UNL     4      -8.295   8.862  71.395  1.00  0.00    -0.135 C  
HETATM   21  C   UNL     4      -7.905   8.106  72.724  1.00  0.00    -0.145 C  
HETATM   22  O   UNL     4      -6.662   7.905  72.868  1.00  0.00    -0.066 OA 
HETATM   23  O   UNL     4      -8.846   7.768  73.521  1.00  0.00    -0.201 OA 
ENDBRANCH   8  20
ENDBRANCH   7   8
TORSDOF 7
ENDMDL
MODEL      174
REMARK 921   NORMALIZED FREE ENERGY PREDICTED BY IDOCK:   -4.11 KCAL/MOL
REMARK 922        TOTAL FREE ENERGY PREDICTED BY IDOCK:   -7.23 KCAL/MOL
REMARK 923 INTER-LIGAND FREE ENERGY PREDICTED BY IDOCK:   -7.27 KCAL/MOL
REMARK 924 INTRA-LIGAND FREE ENERGY PREDICTED BY IDOCK:    0.04 KCAL/MOL
REMARK 927      BINDING AFFINITY PREDICTED BY RF-SCORE:    0.00 PKD
ROOT
HETATM    1 NA   UNL     1      -9.895  16.069  65.968  1.00  0.00    -0.221 Na 
HETATM    2 NA   UNL     2      -9.089  19.691  68.701  1.00  0.00    -0.296 Na 
HETATM    3 CA   UNL     3      -7.515  12.610  69.510  1.00  0.00    -0.253 Ca 
HETATM    4  O   UNL     4     -10.944  16.603  67.642  1.00  0.00    -0.296 OA 
HETATM    5  C   UNL     4     -10.542  16.937  68.795  1.00  0.00    -0.355 C  
HETATM    6  O   UNL     4      -9.669  17.854  68.973  1.00  0.00    -0.280 OA 
HETATM    7  C   UNL     4     -11.069  16.266  70.079  1.00  0.00    -0.348 C  
ENDROOT
BRANCH   7   8
HETATM    8  N   UNL     4     -11.731  14.935  69.978  1.00  0.00    -0.276 NA 
BRANCH   8   9
HETATM    9  C   UNL     4     -10.995  13.806  69.402  1.00  0.00    -0.097 C  
BRANCH   9  10
HETATM   10  C   UNL     4     -11.805  12.580  68.975  1.00  0.00    -0.296 C  
BRANCH  10  11
HETATM   11  N   UNL     4     -11.697  12.260  67.529  1.00  0.00    -0.459 NA 
BRANCH  11  12
HETATM   12  C   UNL     4     -10.663  13.067  66.805  1.00  0.00    -0.262 C  
HETATM   13  O   UNL     4     -10.726  13.394  64.410  1.00  0.00    -0.396 OA 
HETATM   14  O   UNL     4     -12.551  13.979  65.698  1.00  0.00    -0.497 OA 
HETATM   15  C   UNL     4     -11.344  13.580  65.486  1.00  0.00    -0.296 C  
ENDBRANCH  11  12
BRANCH  11  16
HETATM   16  C   UNL     4     -11.399  10.791  67.356  1.00  0.00    -0.160 C  
HETATM   17  C   UNL     4      -9.861  10.689  67.136  1.00  0.00    -0.175 C  
HETATM   18  O   UNL     4      -9.505  10.268  65.999  1.00  0.00    -0.168 OA 
HETATM   19  O   UNL     4      -9.202  11.328  68.042  1.00  0.00    -0.149 OA 
ENDBRANCH  11  16
ENDBRANCH  10  11
ENDBRANCH   9  10
ENDBRANCH   8   9
BRANCH   8  20
HETATM   20  C   UNL     4     -12.146  14.529  71.384  1.00  0.00    -0.354 C  
HETATM   21  C   UNL     4     -13.694  14.591  71.683  1.00  0.00    -0.407 C  
HETATM   22  O   UNL     4     -14.116  13.681  72.458  1.00  0.00    -0.712 OA 
HETATM   23  O   UNL     4     -14.375  15.525  71.136  1.00  0.00    -0.516 OA 
ENDBRANCH   8  20
ENDBRANCH   7   8
TORSDOF 7
ENDMDL
MODEL      175
REMARK 921   NORMALIZED FREE ENERGY PREDICTED BY IDOCK:   -4.07 KCAL/MOL
REMARK 922        TOTAL FREE ENERGY PREDICTED BY IDOCK:   -7.18 KCAL/MOL
REMARK 923 INTER-LIGAND FREE ENERGY PREDICTED BY IDOCK:   -7.00 KCAL/MOL
REMARK 924 INTRA-LIGAND FREE ENERGY PREDICTED BY IDOCK:   -0.18 KCAL/MOL
REMARK 927      BINDING AFFINITY PREDICTED BY RF-SCORE:    0.00 PKD
ROOT
HETATM    1 NA   UNL     1     -11.924  15.089  63.313  1.00  0.00    -0.781 Na 
HETATM    2 NA   UNL     2     -13.132  10.728  62.441  1.00  0.00    -0.785 Na 
HETATM    3 CA   UNL     3     -13.175  14.584  68.637  1.00  0.00    -0.439 Ca 
HETATM    4  O   UNL     4     -10.827  13.407  63.709  1.00  0.00    -0.177 OA 
HETATM    5  C   UNL     4     -11.160  12.316  64.257  1.00  0.00    -0.348 C  
HETATM    6  O   UNL     4     -12.173  11.640  63.867  1.00  0.00    -0.316 OA 
HETATM    7  C   UNL     4     -10.376  11.713  65.438  1.00  0.00    -0.267 C  
ENDROOT
BRANCH   7   8
HETATM    8  N   UNL     4      -9.478  12.596  66.234  1.00  0.00    -0.234 NA 
BRANCH   8   9
HETATM    9  C   UNL     4      -9.942  13.931  66.626  1.00  0.00    -0.279 C  
BRANCH   9  10
HETATM   10  C   UNL     4      -8.916  14.879  67.249  1.00  0.00    -0.199 C  
BRANCH  10  11
HETATM   11  N   UNL     4      -9.308  16.310  67.196  1.00  0.00    -0.219 NA 
BRANCH  11  12
HETATM   12  C   UNL     4      -8.538  17.185  68.137  1.00  0.00    -0.232 C  
HETATM   13  O   UNL     4      -9.518  19.132  69.185  1.00  0.00    -0.319 OA 
HETATM   14  O   UNL     4     -10.521  17.066  69.432  1.00  0.00    -0.321 OA 
HETATM   15  C   UNL     4      -9.597  17.885  69.061  1.00  0.00    -0.137 C  
ENDBRANCH  11  12
BRANCH  11  16
HETATM   16  C   UNL     4      -9.153  16.827  65.788  1.00  0.00     0.070 C  
HETATM   17  C   UNL     4     -10.516  17.482  65.418  1.00  0.00     0.052 C  
HETATM   18  O   UNL     4     -11.152  16.914  64.485  1.00  0.00    -1.054 OA 
HETATM   19  O   UNL     4     -10.909  18.316  66.320  1.00  0.00    -0.214 OA 
ENDBRANCH  11  16
ENDBRANCH  10  11
ENDBRANCH   9  10
ENDBRANCH   8   9
BRANCH   8  20
HETATM   20  C   UNL     4      -9.128  11.851  67.513  1.00  0.00    -0.178 C  
HETATM   21  C   UNL     4     -10.350  11.231  68.297  1.00  0.00    -0.183 C  
HETATM   22  O   UNL     4     -10.104  10.123  68.861  1.00  0.00    -0.181 OA 
HETATM   23  O   UNL     4     -11.453  11.878  68.298  1.00  0.00    -0.262 OA 
ENDBRANCH   8  20
ENDBRANCH   7   8
TORSDOF 7
ENDMDL
MODEL      176
REMARK 921   NORMALIZED FREE ENERGY PREDICTED BY IDOCK:   -4.06 KCAL/MOL
REMARK 922        TOTAL FREE ENERGY PREDICTED BY IDOCK:   -7.16 KCAL/MOL
REMARK 923 INTER-LIGAND FREE ENERGY PREDICTED BY IDOCK:   -5.97 KCAL/MOL
REMARK 924 INTRA-LIGAND FREE ENERGY PREDICTED BY IDOCK:   -1.20 KCAL/MOL
REMARK 927      BINDING AFFINITY PREDICTED BY RF-SCORE:    0.00 PKD
ROOT
HETATM    1 NA   UNL     1     -13.721   6.897  70.135  1.00  0.00    -0.561 Na 
HETATM    2 NA   UNL     2     -10.240   5.550  72.838  1.00  0.00    -0.163 Na 
HETATM    3 CA   UNL     3     -12.215  12.168  70.477  1.00  0.00    -0.256 Ca 
HETATM    4  O   UNL     4     -11.761   6.672  69.593  1.00  0.00    -0.298 OA 
HETATM    5  C   UNL     4     -10.699   7.069  70.157  1.00  0.00    -0.240 C  
HETATM    6  O   UNL     4     -10.451   6.830  71.388  1.00  0.00    -0.213 OA 
HETATM    7  C   UNL     4      -9.619   7.875  69.408  1.00  0.00    -0.160 C  
ENDROOT
BRANCH   7   8
HETATM    8  N   UNL     4      -9.985   8.567  68.140  1.00  0.00    -0.174 NA 
BRANCH   8   9
HETATM    9  C   UNL     4     -10.420   9.967  68.184  1.00  0.00    -0.215 C  
BRANCH   9  10
HETATM   10  C   UNL     4     -10.861  10.609  66.867  1.00  0.00    -0.205 C  
BRANCH  10  11
HETATM   11  N   UNL     4     -11.078  12.075  66.955  1.00  0.00    -0.280 NA 
BRANCH  11  12
HETATM   12  C   UNL     4     -10.278  12.743  68.030  1.00  0.00    -0.228 C  
HETATM   13  O   UNL     4     -10.572  15.075  68.598  1.00  0.00    -0.225 OA 
HETATM   14  O   UNL     4     -12.382  13.643  68.653  1.00  0.00    -0.258 OA 
HETATM   15  C   UNL     4     -11.137  13.957  68.535  1.00  0.00    -0.265 C  
ENDBRANCH  11  12
BRANCH  11  16
HETATM   16  C   UNL     4     -10.766  12.715  65.625  1.00  0.00    -0.269 C  
HETATM   17  C   UNL     4     -12.118  12.791  64.858  1.00  0.00    -0.438 C  
HETATM   18  O   UNL     4     -12.185  12.086  63.810  1.00  0.00    -0.475 OA 
HETATM   19  O   UNL     4     -13.048  13.326  65.573  1.00  0.00    -0.529 OA 
ENDBRANCH  11  16
ENDBRANCH  10  11
ENDBRANCH   9  10
ENDBRANCH   8   9
BRANCH   8  20
HETATM   20  C   UNL     4      -8.772   8.504  67.225  1.00  0.00    -0.130 C  
HETATM   21  C   UNL     4      -8.912   7.557  65.970  1.00  0.00    -0.127 C  
HETATM   22  O   UNL     4      -8.331   7.979  64.926  1.00  0.00    -0.150 OA 
HETATM   23  O   UNL     4      -9.580   6.475  66.106  1.00  0.00    -0.102 OA 
ENDBRANCH   8  20
ENDBRANCH   7   8
TORSDOF 7
ENDMDL
MODEL      177
REMARK 921   NORMALIZED FREE ENERGY PREDICTED BY IDOCK:   -4.04 KCAL/MOL
REMARK 922        TOTAL FREE ENERGY PREDICTED BY IDOCK:   -7.14 KCAL/MOL
REMARK 923 INTER-LIGAND FREE ENERGY PREDICTED BY IDOCK:   -5.63 KCAL/MOL
REMARK 924 INTRA-LIGAND FREE ENERGY PREDICTED BY IDOCK:   -1.51 KCAL/MOL
REMARK 927      BINDING AFFINITY PREDICTED BY RF-SCORE:    0.00 PKD
ROOT
HETATM    1 NA   UNL     1     -13.469  10.340  69.208  1.00  0.00    -0.515 Na 
HETATM    2 NA   UNL     2     -13.271  13.310  65.690  1.00  0.00    -0.443 Na 
HETATM    3 CA   UNL     3     -11.777   6.176  66.052  1.00  0.00    -0.608 Ca 
HETATM    4  O   UNL     4     -11.791  11.225  68.439  1.00  0.00    -0.482 OA 
HETATM    5  C   UNL     4     -11.404  11.357  67.241  1.00  0.00    -0.275 C  
HETATM    6  O   UNL     4     -12.157  11.851  66.333  1.00  0.00    -0.552 OA 
HETATM    7  C   UNL     4      -9.997  10.932  66.777  1.00  0.00    -0.205 C  
ENDROOT
BRANCH   7   8
HETATM    8  N   UNL     4      -9.220   9.975  67.612  1.00  0.00    -0.137 NA 
BRANCH   8   9
HETATM    9  C   UNL     4      -9.510   8.540  67.522  1.00  0.00    -0.149 C  
BRANCH   9  10
HETATM   10  C   UNL     4     -10.641   7.993  68.394  1.00  0.00    -0.102 C  
BRANCH  10  11
HETATM   11  N   UNL     4     -10.220   7.630  69.770  1.00  0.00    -0.204 NA 
BRANCH  11  12
HETATM   12  C   UNL     4      -8.775   7.250  69.882  1.00  0.00    -0.141 C  
HETATM   13  O   UNL     4      -7.905   6.027  71.778  1.00  0.00    -0.100 OA 
HETATM   14  O   UNL     4      -9.665   5.159  70.560  1.00  0.00    -0.166 OA 
HETATM   15  C   UNL     4      -8.718   5.993  70.822  1.00  0.00    -0.135 C  
ENDBRANCH  11  12
BRANCH  11  16
HETATM   16  C   UNL     4     -10.511   8.774  70.709  1.00  0.00    -0.219 C  
HETATM   17  C   UNL     4     -11.884   8.449  71.368  1.00  0.00    -0.296 C  
HETATM   18  O   UNL     4     -12.822   9.248  71.084  1.00  0.00    -0.299 OA 
HETATM   19  O   UNL     4     -11.912   7.256  71.856  1.00  0.00    -0.287 OA 
ENDBRANCH  11  16
ENDBRANCH  10  11
ENDBRANCH   9  10
ENDBRANCH   8   9
BRANCH   8  20
HETATM   20  C   UNL     4      -7.752  10.157  67.260  1.00  0.00    -0.095 C  
HETATM   21  C   UNL     4      -6.765  10.267  68.487  1.00  0.00    -0.057 C  
HETATM   22  O   UNL     4      -5.631   9.734  68.299  1.00  0.00    -0.040 OA 
HETATM   23  O   UNL     4      -7.178  10.868  69.538  1.00  0.00    -0.127 OA 
ENDBRANCH   8  20
ENDBRANCH   7   8
TORSDOF 7
ENDMDL
MODEL      178
REMARK 921   NORMALIZED FREE ENERGY PREDICTED BY IDOCK:   -4.04 KCAL/MOL
REMARK 922        TOTAL FREE ENERGY PREDICTED BY IDOCK:   -7.13 KCAL/MOL
REMARK 923 INTER-LIGAND FREE ENERGY PREDICTED BY IDOCK:   -6.54 KCAL/MOL
REMARK 924 INTRA-LIGAND FREE ENERGY PREDICTED BY IDOCK:   -0.59 KCAL/MOL
REMARK 927      BINDING AFFINITY PREDICTED BY RF-SCORE:    0.00 PKD
ROOT
HETATM    1 NA   UNL     1      -6.785  12.473  68.304  1.00  0.00    -0.060 Na 
HETATM    2 NA   UNL     2      -9.166   8.747  69.604  1.00  0.00    -0.133 Na 
HETATM    3 CA   UNL     3      -7.873  11.566  62.997  1.00  0.00    -0.379 Ca 
HETATM    4  O   UNL     4      -8.819  12.304  68.451  1.00  0.00    -0.184 OA 
HETATM    5  C   UNL     4      -9.603  11.403  68.034  1.00  0.00    -0.183 C  
HETATM    6  O   UNL     4      -9.419  10.165  68.296  1.00  0.00    -0.138 OA 
HETATM    7  C   UNL     4     -10.844  11.721  67.176  1.00  0.00    -0.258 C  
ENDROOT
BRANCH   7   8
HETATM    8  N   UNL     4     -10.913  13.028  66.464  1.00  0.00    -0.282 NA 
BRANCH   8   9
HETATM    9  C   UNL     4      -9.702  13.845  66.339  1.00  0.00    -0.297 C  
BRANCH   9  10
HETATM   10  C   UNL     4      -9.878  15.364  66.298  1.00  0.00    -0.297 C  
BRANCH  10  11
HETATM   11  N   UNL     4      -9.459  16.054  67.544  1.00  0.00    -0.222 NA 
BRANCH  11  12
HETATM   12  C   UNL     4      -8.338  17.028  67.351  1.00  0.00    -0.191 C  
HETATM   13  O   UNL     4      -6.920  17.742  69.175  1.00  0.00    -0.256 OA 
HETATM   14  O   UNL     4      -7.140  15.492  68.704  1.00  0.00    -0.111 OA 
HETATM   15  C   UNL     4      -7.309  16.754  68.505  1.00  0.00    -0.205 C  
ENDBRANCH  11  12
BRANCH  11  16
HETATM   16  C   UNL     4     -10.642  16.765  68.152  1.00  0.00    -0.350 C  
HETATM   17  C   UNL     4     -11.106  15.881  69.348  1.00  0.00    -0.322 C  
HETATM   18  O   UNL     4     -12.255  15.368  69.226  1.00  0.00    -0.283 OA 
HETATM   19  O   UNL     4     -10.126  15.577  70.129  1.00  0.00    -0.298 OA 
ENDBRANCH  11  16
ENDBRANCH  10  11
ENDBRANCH   9  10
ENDBRANCH   8   9
BRANCH   8  20
HETATM   20  C   UNL     4     -11.412  12.749  65.055  1.00  0.00    -0.321 C  
HETATM   21  C   UNL     4     -12.646  13.613  64.585  1.00  0.00    -0.242 C  
HETATM   22  O   UNL     4     -12.630  13.928  63.358  1.00  0.00    -0.853 OA 
HETATM   23  O   UNL     4     -13.535  13.915  65.455  1.00  0.00    -0.672 OA 
ENDBRANCH   8  20
ENDBRANCH   7   8
TORSDOF 7
ENDMDL
MODEL      179
REMARK 921   NORMALIZED FREE ENERGY PREDICTED BY IDOCK:   -4.02 KCAL/MOL
REMARK 922        TOTAL FREE ENERGY PREDICTED BY IDOCK:   -7.11 KCAL/MOL
REMARK 923 INTER-LIGAND FREE ENERGY PREDICTED BY IDOCK:   -6.23 KCAL/MOL
REMARK 924 INTRA-LIGAND FREE ENERGY PREDICTED BY IDOCK:   -0.88 KCAL/MOL
REMARK 927      BINDING AFFINITY PREDICTED BY RF-SCORE:    0.00 PKD
ROOT
HETATM    1 NA   UNL     1     -11.871   7.368  67.642  1.00  0.00    -0.451 Na 
HETATM    2 NA   UNL     2     -11.662   9.584  71.677  1.00  0.00    -0.260 Na 
HETATM    3 CA   UNL     3     -13.328  11.943  64.975  1.00  0.00    -0.254 Ca 
HETATM    4  O   UNL     4     -10.360   8.580  68.302  1.00  0.00    -0.204 OA 
HETATM    5  C   UNL     4     -10.397   9.727  68.834  1.00  0.00    -0.210 C  
HETATM    6  O   UNL     4     -11.130   9.984  69.850  1.00  0.00    -0.253 OA 
HETATM    7  C   UNL     4      -9.564  10.910  68.303  1.00  0.00    -0.167 C  
ENDROOT
BRANCH   7   8
HETATM    8  N   UNL     4      -9.032  10.852  66.913  1.00  0.00    -0.149 NA 
BRANCH   8   9
HETATM    9  C   UNL     4      -9.491  11.833  65.924  1.00  0.00    -0.223 C  
BRANCH   9  10
HETATM   10  C   UNL     4     -10.857  12.480  66.155  1.00  0.00    -0.272 C  
BRANCH  10  11
HETATM   11  N   UNL     4     -10.831  13.965  66.142  1.00  0.00    -0.289 NA 
BRANCH  11  12
HETATM   12  C   UNL     4     -10.981  14.563  64.778  1.00  0.00    -0.391 C  
HETATM   13  O   UNL     4     -11.646  16.863  64.442  1.00  0.00    -0.916 OA 
HETATM   14  O   UNL     4      -9.804  16.379  65.747  1.00  0.00    -0.421 OA 
HETATM   15  C   UNL     4     -10.778  16.111  64.946  1.00  0.00    -0.274 C  
ENDBRANCH  11  12
BRANCH  11  16
HETATM   16  C   UNL     4     -11.914  14.499  67.046  1.00  0.00    -0.345 C  
HETATM   17  C   UNL     4     -11.445  14.201  68.501  1.00  0.00    -0.300 C  
HETATM   18  O   UNL     4     -12.163  13.382  69.143  1.00  0.00    -0.292 OA 
HETATM   19  O   UNL     4     -10.239  14.608  68.709  1.00  0.00    -0.231 OA 
ENDBRANCH  11  16
ENDBRANCH  10  11
ENDBRANCH   9  10
ENDBRANCH   8   9
BRANCH   8  20
HETATM   20  C   UNL     4      -7.519  10.980  67.002  1.00  0.00    -0.127 C  
HETATM   21  C   UNL     4      -6.705   9.658  66.717  1.00  0.00    -0.075 C  
HETATM   22  O   UNL     4      -5.605   9.839  66.114  1.00  0.00    -0.049 OA 
HETATM   23  O   UNL     4      -7.206   8.548  67.107  1.00  0.00    -0.078 OA 
ENDBRANCH   8  20
ENDBRANCH   7   8
TORSDOF 7
ENDMDL
MODEL      180
REMARK 921   NORMALIZED FREE ENERGY PREDICTED BY IDOCK:   -4.01 KCAL/MOL
REMARK 922        TOTAL FREE ENERGY PREDICTED BY IDOCK:   -7.09 KCAL/MOL
REMARK 923 INTER-LIGAND FREE ENERGY PREDICTED BY IDOCK:   -6.40 KCAL/MOL
REMARK 924 INTRA-LIGAND FREE ENERGY PREDICTED BY IDOCK:   -0.69 KCAL/MOL
REMARK 927      BINDING AFFINITY PREDICTED BY RF-SCORE:    0.00 PKD
ROOT
HETATM    1 NA   UNL     1      -9.466  11.775  63.282  1.00  0.00    -0.246 Na 
HETATM    2 NA   UNL     2     -14.036  12.168  62.841  1.00  0.00    -0.317 Na 
HETATM    3 CA   UNL     3      -9.050  16.766  65.535  1.00  0.00    -0.249 Ca 
HETATM    4  O   UNL     4     -10.867  11.544  64.755  1.00  0.00    -0.305 OA 
HETATM    5  C   UNL     4     -11.860  12.263  65.068  1.00  0.00    -0.357 C  
HETATM    6  O   UNL     4     -12.733  12.630  64.209  1.00  0.00    -0.657 OA 
HETATM    7  C   UNL     4     -12.099  12.758  66.508  1.00  0.00    -0.268 C  
ENDROOT
BRANCH   7   8
HETATM    8  N   UNL     4     -10.960  12.764  67.468  1.00  0.00    -0.241 NA 
BRANCH   8   9
HETATM    9  C   UNL     4     -10.000  13.872  67.439  1.00  0.00    -0.240 C  
BRANCH   9  10
HETATM   10  C   UNL     4     -10.531  15.272  67.753  1.00  0.00    -0.253 C  
BRANCH  10  11
HETATM   11  N   UNL     4      -9.733  16.006  68.768  1.00  0.00    -0.216 NA 
BRANCH  11  12
HETATM   12  C   UNL     4      -8.589  16.784  68.194  1.00  0.00    -0.218 C  
HETATM   13  O   UNL     4      -6.530  17.140  69.411  1.00  0.00    -0.225 OA 
HETATM   14  O   UNL     4      -7.298  14.991  69.056  1.00  0.00    -0.127 OA 
HETATM   15  C   UNL     4      -7.295  16.273  68.922  1.00  0.00    -0.198 C  
ENDBRANCH  11  12
BRANCH  11  16
HETATM   16  C   UNL     4     -10.631  16.934  69.546  1.00  0.00    -0.239 C  
HETATM   17  C   UNL     4     -11.455  16.028  70.509  1.00  0.00    -0.389 C  
HETATM   18  O   UNL     4     -12.699  15.999  70.290  1.00  0.00    -0.287 OA 
HETATM   19  O   UNL     4     -10.698  15.229  71.181  1.00  0.00    -0.213 OA 
ENDBRANCH  11  16
ENDBRANCH  10  11
ENDBRANCH   9  10
ENDBRANCH   8   9
BRANCH   8  20
HETATM   20  C   UNL     4     -11.548  12.718  68.869  1.00  0.00    -0.316 C  
HETATM   21  C   UNL     4     -11.866  11.276  69.428  1.00  0.00    -0.355 C  
HETATM   22  O   UNL     4     -11.668  11.140  70.672  1.00  0.00    -0.319 OA 
HETATM   23  O   UNL     4     -12.285  10.391  68.605  1.00  0.00    -0.163 OA 
ENDBRANCH   8  20
ENDBRANCH   7   8
TORSDOF 7
ENDMDL
MODEL      181
REMARK 921   NORMALIZED FREE ENERGY PREDICTED BY IDOCK:   -3.99 KCAL/MOL
REMARK 922        TOTAL FREE ENERGY PREDICTED BY IDOCK:   -7.07 KCAL/MOL
REMARK 923 INTER-LIGAND FREE ENERGY PREDICTED BY IDOCK:   -6.32 KCAL/MOL
REMARK 924 INTRA-LIGAND FREE ENERGY PREDICTED BY IDOCK:   -0.75 KCAL/MOL
REMARK 927      BINDING AFFINITY PREDICTED BY RF-SCORE:    0.00 PKD
ROOT
HETATM    1 NA   UNL     1     -11.944   5.226  72.497  1.00  0.00    -0.255 Na 
HETATM    2 NA   UNL     2     -14.282   8.944  73.893  1.00  0.00    -0.810 Na 
HETATM    3 CA   UNL     3     -12.231   6.772  67.235  1.00  0.00    -0.647 Ca 
HETATM    4  O   UNL     4     -11.216   7.127  72.715  1.00  0.00    -0.281 OA 
HETATM    5  C   UNL     4     -11.683   8.237  72.328  1.00  0.00    -0.388 C  
HETATM    6  O   UNL     4     -12.881   8.600  72.589  1.00  0.00    -0.361 OA 
HETATM    7  C   UNL     4     -10.849   9.244  71.511  1.00  0.00    -0.372 C  
ENDROOT
BRANCH   7   8
HETATM    8  N   UNL     4      -9.634   8.763  70.797  1.00  0.00    -0.191 NA 
BRANCH   8   9
HETATM    9  C   UNL     4      -9.007   9.619  69.785  1.00  0.00    -0.211 C  
BRANCH   9  10
HETATM   10  C   UNL     4      -9.914  10.577  69.011  1.00  0.00    -0.211 C  
BRANCH  10  11
HETATM   11  N   UNL     4      -9.179  11.597  68.221  1.00  0.00    -0.183 NA 
BRANCH  11  12
HETATM   12  C   UNL     4      -7.693  11.417  68.232  1.00  0.00    -0.124 C  
HETATM   13  O   UNL     4      -6.186  13.066  67.306  1.00  0.00    -0.279 OA 
HETATM   14  O   UNL     4      -7.702  13.682  68.935  1.00  0.00    -0.096 OA 
HETATM   15  C   UNL     4      -7.070  12.857  68.171  1.00  0.00    -0.108 C  
ENDBRANCH  11  12
BRANCH  11  16
HETATM   16  C   UNL     4      -9.676  11.590  66.797  1.00  0.00    -0.199 C  
HETATM   17  C   UNL     4     -10.870  12.587  66.754  1.00  0.00    -0.249 C  
HETATM   18  O   UNL     4     -11.996  12.070  66.502  1.00  0.00    -0.616 OA 
HETATM   19  O   UNL     4     -10.564  13.727  67.273  1.00  0.00    -0.271 OA 
ENDBRANCH  11  16
ENDBRANCH  10  11
ENDBRANCH   9  10
ENDBRANCH   8   9
BRANCH   8  20
HETATM   20  C   UNL     4      -8.578   8.467  71.850  1.00  0.00    -0.188 C  
HETATM   21  C   UNL     4      -7.836   7.082  71.704  1.00  0.00    -0.098 C  
HETATM   22  O   UNL     4      -6.613   7.103  72.034  1.00  0.00    -0.054 OA 
HETATM   23  O   UNL     4      -8.510   6.082  71.277  1.00  0.00    -0.126 OA 
ENDBRANCH   8  20
ENDBRANCH   7   8
TORSDOF 7
ENDMDL
MODEL      182
REMARK 921   NORMALIZED FREE ENERGY PREDICTED BY IDOCK:   -3.99 KCAL/MOL
REMARK 922        TOTAL FREE ENERGY PREDICTED BY IDOCK:   -7.07 KCAL/MOL
REMARK 923 INTER-LIGAND FREE ENERGY PREDICTED BY IDOCK:   -5.94 KCAL/MOL
REMARK 924 INTRA-LIGAND FREE ENERGY PREDICTED BY IDOCK:   -1.12 KCAL/MOL
REMARK 927      BINDING AFFINITY PREDICTED BY RF-SCORE:    0.00 PKD
ROOT
HETATM    1 NA   UNL     1      -7.689   6.510  67.121  1.00  0.00    -0.084 Na 
HETATM    2 NA   UNL     2     -11.605   6.673  69.545  1.00  0.00    -0.256 Na 
HETATM    3 CA   UNL     3      -9.884   9.395  62.996  1.00  0.00    -0.465 Ca 
HETATM    4  O   UNL     4      -8.392   8.089  68.216  1.00  0.00    -0.122 OA 
HETATM    5  C   UNL     4      -9.541   8.618  68.256  1.00  0.00    -0.147 C  
HETATM    6  O   UNL     4     -10.600   7.930  68.452  1.00  0.00    -0.188 OA 
HETATM    7  C   UNL     4      -9.759  10.133  68.070  1.00  0.00    -0.142 C  
ENDROOT
BRANCH   7   8
HETATM    8  N   UNL     4      -8.690  10.941  67.421  1.00  0.00    -0.130 NA 
BRANCH   8   9
HETATM    9  C   UNL     4      -9.028  11.797  66.279  1.00  0.00    -0.176 C  
BRANCH   9  10
HETATM   10  C   UNL     4      -9.609  13.179  66.581  1.00  0.00    -0.260 C  
BRANCH  10  11
HETATM   11  N   UNL     4     -10.806  13.520  65.771  1.00  0.00    -0.273 NA 
BRANCH  11  12
HETATM   12  C   UNL     4     -11.675  12.344  65.448  1.00  0.00    -0.402 C  
HETATM   13  O   UNL     4     -13.106  12.292  63.499  1.00  0.00    -0.766 OA 
HETATM   14  O   UNL     4     -10.843  12.684  63.253  1.00  0.00    -0.357 OA 
HETATM   15  C   UNL     4     -11.919  12.385  63.897  1.00  0.00    -0.486 C  
ENDBRANCH  11  12
BRANCH  11  16
HETATM   16  C   UNL     4     -11.623  14.566  66.487  1.00  0.00    -0.371 C  
HETATM   17  C   UNL     4     -11.032  15.941  66.057  1.00  0.00    -0.139 C  
HETATM   18  O   UNL     4     -10.491  16.610  66.984  1.00  0.00    -0.305 OA 
HETATM   19  O   UNL     4     -10.928  16.040  64.776  1.00  0.00    -0.551 OA 
ENDBRANCH  11  16
ENDBRANCH  10  11
ENDBRANCH   9  10
ENDBRANCH   8   9
BRANCH   8  20
HETATM   20  C   UNL     4      -8.090  11.840  68.491  1.00  0.00    -0.140 C  
HETATM   21  C   UNL     4      -6.548  11.640  68.764  1.00  0.00    -0.072 C  
HETATM   22  O   UNL     4      -5.922  12.705  69.045  1.00  0.00    -0.067 OA 
HETATM   23  O   UNL     4      -6.072  10.455  68.682  1.00  0.00    -0.044 OA 
ENDBRANCH   8  20
ENDBRANCH   7   8
TORSDOF 7
ENDMDL
MODEL      183
REMARK 921   NORMALIZED FREE ENERGY PREDICTED BY IDOCK:   -3.99 KCAL/MOL
REMARK 922        TOTAL FREE ENERGY PREDICTED BY IDOCK:   -7.06 KCAL/MOL
REMARK 923 INTER-LIGAND FREE ENERGY PREDICTED BY IDOCK:   -5.89 KCAL/MOL
REMARK 924 INTRA-LIGAND FREE ENERGY PREDICTED BY IDOCK:   -1.17 KCAL/MOL
REMARK 927      BINDING AFFINITY PREDICTED BY RF-SCORE:    0.00 PKD
ROOT
HETATM    1 NA   UNL     1     -13.472  10.690  68.976  1.00  0.00    -0.219 Na 
HETATM    2 NA   UNL     2     -13.717  13.480  65.318  1.00  0.00    -0.704 Na 
HETATM    3 CA   UNL     3     -11.070   6.718  66.041  1.00  0.00    -0.474 Ca 
HETATM    4  O   UNL     4     -11.953  11.802  68.175  1.00  0.00    -0.521 OA 
HETATM    5  C   UNL     4     -11.576  11.939  66.975  1.00  0.00    -0.291 C  
HETATM    6  O   UNL     4     -12.387  12.258  66.039  1.00  0.00    -0.609 OA 
HETATM    7  C   UNL     4     -10.112  11.732  66.541  1.00  0.00    -0.203 C  
ENDROOT
BRANCH   7   8
HETATM    8  N   UNL     4      -9.199  10.958  67.427  1.00  0.00    -0.147 NA 
BRANCH   8   9
HETATM    9  C   UNL     4      -9.284   9.494  67.446  1.00  0.00    -0.133 C  
BRANCH   9  10
HETATM   10  C   UNL     4     -10.536   8.868  68.064  1.00  0.00    -0.208 C  
BRANCH  10  11
HETATM   11  N   UNL     4     -10.298   8.214  69.375  1.00  0.00    -0.215 NA 
BRANCH  11  12
HETATM   12  C   UNL     4     -10.911   8.937  70.535  1.00  0.00    -0.236 C  
HETATM   13  O   UNL     4     -10.258   8.499  72.822  1.00  0.00    -0.256 OA 
HETATM   14  O   UNL     4      -8.661   9.101  71.266  1.00  0.00    -0.270 OA 
HETATM   15  C   UNL     4      -9.857   8.887  71.698  1.00  0.00    -0.317 C  
ENDBRANCH  11  12
BRANCH  11  16
HETATM   16  C   UNL     4     -10.815   6.797  69.337  1.00  0.00    -0.271 C  
HETATM   17  C   UNL     4      -9.706   5.955  68.639  1.00  0.00    -0.127 C  
HETATM   18  O   UNL     4     -10.031   5.453  67.525  1.00  0.00    -0.144 OA 
HETATM   19  O   UNL     4      -8.548   6.152  69.170  1.00  0.00    -0.118 OA 
ENDBRANCH  11  16
ENDBRANCH  10  11
ENDBRANCH   9  10
ENDBRANCH   8   9
BRANCH   8  20
HETATM   20  C   UNL     4      -7.775  11.318  67.034  1.00  0.00    -0.147 C  
HETATM   21  C   UNL     4      -7.040  12.338  67.990  1.00  0.00    -0.099 C  
HETATM   22  O   UNL     4      -5.800  12.123  68.133  1.00  0.00    -0.050 OA 
HETATM   23  O   UNL     4      -7.737  13.268  68.523  1.00  0.00    -0.131 OA 
ENDBRANCH   8  20
ENDBRANCH   7   8
TORSDOF 7
ENDMDL
MODEL      184
REMARK 921   NORMALIZED FREE ENERGY PREDICTED BY IDOCK:   -3.98 KCAL/MOL
REMARK 922        TOTAL FREE ENERGY PREDICTED BY IDOCK:   -7.05 KCAL/MOL
REMARK 923 INTER-LIGAND FREE ENERGY PREDICTED BY IDOCK:   -6.26 KCAL/MOL
REMARK 924 INTRA-LIGAND FREE ENERGY PREDICTED BY IDOCK:   -0.79 KCAL/MOL
REMARK 927      BINDING AFFINITY PREDICTED BY RF-SCORE:    0.00 PKD
ROOT
HETATM    1 NA   UNL     1     -10.651  19.252  66.324  1.00  0.00    -0.317 Na 
HETATM    2 NA   UNL     2      -7.095  21.241  64.171  1.00  0.00    -0.449 Na 
HETATM    3 CA   UNL     3      -9.177  14.257  64.578  1.00  0.00    -0.428 Ca 
HETATM    4  O   UNL     4      -8.702  19.292  66.948  1.00  0.00    -0.279 OA 
HETATM    5  C   UNL     4      -7.631  19.050  66.320  1.00  0.00    -0.273 C  
HETATM    6  O   UNL     4      -7.351  19.615  65.208  1.00  0.00    -0.400 OA 
HETATM    7  C   UNL     4      -6.575  18.055  66.842  1.00  0.00    -0.182 C  
ENDROOT
BRANCH   7   8
HETATM    8  N   UNL     4      -6.976  17.046  67.862  1.00  0.00    -0.156 NA 
BRANCH   8   9
HETATM    9  C   UNL     4      -7.277  15.675  67.439  1.00  0.00    -0.208 C  
BRANCH   9  10
HETATM   10  C   UNL     4      -8.560  15.450  66.636  1.00  0.00    -0.283 C  
BRANCH  10  11
HETATM   11  N   UNL     4      -9.351  14.275  67.081  1.00  0.00    -0.219 NA 
BRANCH  11  12
HETATM   12  C   UNL     4      -8.584  12.988  67.072  1.00  0.00    -0.162 C  
HETATM   13  O   UNL     4      -9.679  10.832  67.051  1.00  0.00    -0.171 OA 
HETATM   14  O   UNL     4     -10.159  12.381  65.407  1.00  0.00    -0.271 OA 
HETATM   15  C   UNL     4      -9.529  11.912  66.429  1.00  0.00    -0.228 C  
ENDBRANCH  11  12
BRANCH  11  16
HETATM   16  C   UNL     4      -9.897  14.525  68.464  1.00  0.00    -0.231 C  
HETATM   17  C   UNL     4     -11.301  15.167  68.262  1.00  0.00    -0.327 C  
HETATM   18  O   UNL     4     -11.412  16.359  68.669  1.00  0.00    -0.349 OA 
HETATM   19  O   UNL     4     -12.030  14.482  67.448  1.00  0.00    -0.394 OA 
ENDBRANCH  11  16
ENDBRANCH  10  11
ENDBRANCH   9  10
ENDBRANCH   8   9
BRANCH   8  20
HETATM   20  C   UNL     4      -5.852  16.963  68.882  1.00  0.00    -0.154 C  
HETATM   21  C   UNL     4      -5.758  18.171  69.894  1.00  0.00    -0.249 C  
HETATM   22  O   UNL     4      -5.390  17.849  71.063  1.00  0.00    -0.276 OA 
HETATM   23  O   UNL     4      -6.052  19.339  69.464  1.00  0.00    -0.254 OA 
ENDBRANCH   8  20
ENDBRANCH   7   8
TORSDOF 7
ENDMDL
MODEL      185
REMARK 921   NORMALIZED FREE ENERGY PREDICTED BY IDOCK:   -3.96 KCAL/MOL
REMARK 922        TOTAL FREE ENERGY PREDICTED BY IDOCK:   -7.02 KCAL/MOL
REMARK 923 INTER-LIGAND FREE ENERGY PREDICTED BY IDOCK:   -7.07 KCAL/MOL
REMARK 924 INTRA-LIGAND FREE ENERGY PREDICTED BY IDOCK:    0.04 KCAL/MOL
REMARK 927      BINDING AFFINITY PREDICTED BY RF-SCORE:    0.00 PKD
ROOT
HETATM    1 NA   UNL     1      -8.631  12.990  65.624  1.00  0.00    -0.387 Na 
HETATM    2 NA   UNL     2      -9.297   8.691  64.103  1.00  0.00    -0.416 Na 
HETATM    3 CA   UNL     3     -13.993  14.142  65.324  1.00  0.00    -0.783 Ca 
HETATM    4  O   UNL     4      -9.329  11.399  66.704  1.00  0.00    -0.176 OA 
HETATM    5  C   UNL     4     -10.222  10.544  66.430  1.00  0.00    -0.237 C  
HETATM    6  O   UNL     4     -10.216   9.880  65.338  1.00  0.00    -0.273 OA 
HETATM    7  C   UNL     4     -11.389  10.235  67.388  1.00  0.00     0.126 C  
ENDROOT
BRANCH   7   8
HETATM    8  N   UNL     4     -11.734  11.222  68.449  1.00  0.00    -0.474 NA 
BRANCH   8   9
HETATM    9  C   UNL     4     -11.736  10.799  69.853  1.00  0.00    -0.333 C  
BRANCH   9  10
HETATM   10  C   UNL     4     -10.631   9.842  70.303  1.00  0.00    -0.301 C  
BRANCH  10  11
HETATM   11  N   UNL     4     -11.116   8.485  70.658  1.00  0.00    -0.251 NA 
BRANCH  11  12
HETATM   12  C   UNL     4     -10.079   7.414  70.519  1.00  0.00    -0.191 C  
HETATM   13  O   UNL     4     -10.653   5.110  70.060  1.00  0.00    -0.285 OA 
HETATM   14  O   UNL     4     -11.382   6.781  68.642  1.00  0.00    -0.135 OA 
HETATM   15  C   UNL     4     -10.718   6.288  69.631  1.00  0.00    -0.306 C  
ENDBRANCH  11  12
BRANCH  11  16
HETATM   16  C   UNL     4     -11.647   8.489  72.070  1.00  0.00    -0.362 C  
HETATM   17  C   UNL     4     -13.180   8.238  71.952  1.00  0.00    -0.344 C  
HETATM   18  O   UNL     4     -13.913   9.197  72.326  1.00  0.00    -0.450 OA 
HETATM   19  O   UNL     4     -13.444   7.211  71.218  1.00  0.00    -0.362 OA 
ENDBRANCH  11  16
ENDBRANCH  10  11
ENDBRANCH   9  10
ENDBRANCH   8   9
BRANCH   8  20
HETATM   20  C   UNL     4     -10.749  12.375  68.330  1.00  0.00    -0.235 C  
HETATM   21  C   UNL     4     -11.374  13.768  67.930  1.00  0.00    -0.299 C  
HETATM   22  O   UNL     4     -10.821  14.768  68.476  1.00  0.00    -0.238 OA 
HETATM   23  O   UNL     4     -12.357  13.772  67.112  1.00  0.00    -0.357 OA 
ENDBRANCH   8  20
ENDBRANCH   7   8
TORSDOF 7
ENDMDL
MODEL      186
REMARK 921   NORMALIZED FREE ENERGY PREDICTED BY IDOCK:   -3.95 KCAL/MOL
REMARK 922        TOTAL FREE ENERGY PREDICTED BY IDOCK:   -7.01 KCAL/MOL
REMARK 923 INTER-LIGAND FREE ENERGY PREDICTED BY IDOCK:   -5.56 KCAL/MOL
REMARK 924 INTRA-LIGAND FREE ENERGY PREDICTED BY IDOCK:   -1.44 KCAL/MOL
REMARK 927      BINDING AFFINITY PREDICTED BY RF-SCORE:    0.00 PKD
ROOT
HETATM    1 NA   UNL     1      -8.343  13.916  69.859  1.00  0.00    -0.314 Na 
HETATM    2 NA   UNL     2     -11.624  16.054  67.430  1.00  0.00    -0.299 Na 
HETATM    3 CA   UNL     3     -11.944  10.341  71.961  1.00  0.00    -0.351 Ca 
HETATM    4  O   UNL     4      -9.181  13.284  68.102  1.00  0.00    -0.203 OA 
HETATM    5  C   UNL     4     -10.393  13.210  67.747  1.00  0.00    -0.230 C  
HETATM    6  O   UNL     4     -11.193  14.203  67.843  1.00  0.00    -0.260 OA 
HETATM    7  C   UNL     4     -11.007  11.918  67.171  1.00  0.00    -0.269 C  
ENDROOT
BRANCH   7   8
HETATM    8  N   UNL     4     -10.317  10.621  67.414  1.00  0.00    -0.207 NA 
BRANCH   8   9
HETATM    9  C   UNL     4     -10.903   9.658  68.352  1.00  0.00    -0.167 C  
BRANCH   9  10
HETATM   10  C   UNL     4     -10.122   8.370  68.621  1.00  0.00    -0.193 C  
BRANCH  10  11
HETATM   11  N   UNL     4     -10.309   7.827  69.990  1.00  0.00    -0.215 NA 
BRANCH  11  12
HETATM   12  C   UNL     4     -11.176   6.608  70.045  1.00  0.00    -0.369 C  
HETATM   13  O   UNL     4     -12.397   5.981  72.037  1.00  0.00    -0.219 OA 
HETATM   14  O   UNL     4     -12.697   8.077  71.117  1.00  0.00    -0.250 OA 
HETATM   15  C   UNL     4     -12.243   6.872  71.167  1.00  0.00    -0.379 C  
ENDBRANCH  11  12
BRANCH  11  16
HETATM   16  C   UNL     4      -8.965   7.515  70.599  1.00  0.00    -0.154 C  
HETATM   17  C   UNL     4      -8.644   8.698  71.559  1.00  0.00    -0.195 C  
HETATM   18  O   UNL     4      -7.646   9.403  71.232  1.00  0.00    -0.333 OA 
HETATM   19  O   UNL     4      -9.621   8.943  72.364  1.00  0.00    -0.278 OA 
ENDBRANCH  11  16
ENDBRANCH  10  11
ENDBRANCH   9  10
ENDBRANCH   8   9
BRANCH   8  20
HETATM   20  C   UNL     4     -10.192   9.917  66.072  1.00  0.00    -0.198 C  
HETATM   21  C   UNL     4      -8.717   9.686  65.557  1.00  0.00    -0.153 C  
HETATM   22  O   UNL     4      -8.545   8.602  64.925  1.00  0.00    -0.179 OA 
HETATM   23  O   UNL     4      -7.845  10.587  65.812  1.00  0.00    -0.149 OA 
ENDBRANCH   8  20
ENDBRANCH   7   8
TORSDOF 7
ENDMDL
MODEL      187
REMARK 921   NORMALIZED FREE ENERGY PREDICTED BY IDOCK:   -3.95 KCAL/MOL
REMARK 922        TOTAL FREE ENERGY PREDICTED BY IDOCK:   -7.00 KCAL/MOL
REMARK 923 INTER-LIGAND FREE ENERGY PREDICTED BY IDOCK:   -6.14 KCAL/MOL
REMARK 924 INTRA-LIGAND FREE ENERGY PREDICTED BY IDOCK:   -0.87 KCAL/MOL
REMARK 927      BINDING AFFINITY PREDICTED BY RF-SCORE:    0.00 PKD
ROOT
HETATM    1 NA   UNL     1      -9.412  13.319  63.996  1.00  0.00    -0.578 Na 
HETATM    2 NA   UNL     2     -13.719  14.236  65.354  1.00  0.00    -0.738 Na 
HETATM    3 CA   UNL     3      -7.407  14.281  69.019  1.00  0.00    -0.094 Ca 
HETATM    4  O   UNL     4     -10.659  12.082  65.046  1.00  0.00    -0.268 OA 
HETATM    5  C   UNL     4     -11.378  12.307  66.063  1.00  0.00    -0.350 C  
HETATM    6  O   UNL     4     -12.202  13.283  66.113  1.00  0.00    -0.420 OA 
HETATM    7  C   UNL     4     -11.318  11.426  67.327  1.00  0.00    -0.275 C  
ENDROOT
BRANCH   7   8
HETATM    8  N   UNL     4     -10.126  10.560  67.548  1.00  0.00    -0.182 NA 
BRANCH   8   9
HETATM    9  C   UNL     4      -9.869  10.016  68.885  1.00  0.00    -0.184 C  
BRANCH   9  10
HETATM   10  C   UNL     4     -10.371   8.602  69.179  1.00  0.00    -0.217 C  
BRANCH  10  11
HETATM   11  N   UNL     4      -9.997   8.098  70.525  1.00  0.00    -0.186 NA 
BRANCH  11  12
HETATM   12  C   UNL     4      -8.562   7.686  70.641  1.00  0.00    -0.135 C  
HETATM   13  O   UNL     4      -7.784   6.186  72.370  1.00  0.00    -0.098 OA 
HETATM   14  O   UNL     4      -9.493   5.530  70.963  1.00  0.00    -0.156 OA 
HETATM   15  C   UNL     4      -8.554   6.304  71.386  1.00  0.00    -0.131 C  
ENDBRANCH  11  12
BRANCH  11  16
HETATM   16  C   UNL     4     -10.304   9.147  71.564  1.00  0.00    -0.344 C  
HETATM   17  C   UNL     4     -11.753   8.853  72.054  1.00  0.00    -0.367 C  
HETATM   18  O   UNL     4     -12.605   9.748  71.786  1.00  0.00    -0.373 OA 
HETATM   19  O   UNL     4     -11.905   7.618  72.391  1.00  0.00    -0.310 OA 
ENDBRANCH  11  16
ENDBRANCH  10  11
ENDBRANCH   9  10
ENDBRANCH   8   9
BRANCH   8  20
HETATM   20  C   UNL     4     -10.244   9.378  66.599  1.00  0.00    -0.249 C  
HETATM   21  C   UNL     4      -8.942   9.030  65.777  1.00  0.00    -0.197 C  
HETATM   22  O   UNL     4      -8.763   7.792  65.576  1.00  0.00    -0.147 OA 
HETATM   23  O   UNL     4      -8.199   9.997  65.392  1.00  0.00    -0.136 OA 
ENDBRANCH   8  20
ENDBRANCH   7   8
TORSDOF 7
ENDMDL
MODEL      188
REMARK 921   NORMALIZED FREE ENERGY PREDICTED BY IDOCK:   -3.94 KCAL/MOL
REMARK 922        TOTAL FREE ENERGY PREDICTED BY IDOCK:   -6.99 KCAL/MOL
REMARK 923 INTER-LIGAND FREE ENERGY PREDICTED BY IDOCK:   -6.41 KCAL/MOL
REMARK 924 INTRA-LIGAND FREE ENERGY PREDICTED BY IDOCK:   -0.59 KCAL/MOL
REMARK 927      BINDING AFFINITY PREDICTED BY RF-SCORE:    0.00 PKD
ROOT
HETATM    1 NA   UNL     1     -11.679   9.864  69.497  1.00  0.00    -0.233 Na 
HETATM    2 NA   UNL     2     -10.266   8.633  65.287  1.00  0.00    -0.438 Na 
HETATM    3 CA   UNL     3      -7.175  12.892  70.344  1.00  0.00    -0.328 Ca 
HETATM    4  O   UNL     4     -11.765  10.993  67.793  1.00  0.00    -0.573 OA 
HETATM    5  C   UNL     4     -10.889  11.219  66.908  1.00  0.00    -0.282 C  
HETATM    6  O   UNL     4     -10.249  10.277  66.327  1.00  0.00    -0.231 OA 
HETATM    7  C   UNL     4     -10.517  12.647  66.461  1.00  0.00    -0.247 C  
ENDROOT
BRANCH   7   8
HETATM    8  N   UNL     4     -10.863  13.794  67.346  1.00  0.00    -0.274 NA 
BRANCH   8   9
HETATM    9  C   UNL     4      -9.790  14.634  67.887  1.00  0.00    -0.217 C  
BRANCH   9  10
HETATM   10  C   UNL     4     -10.102  16.114  68.117  1.00  0.00    -0.237 C  
BRANCH  10  11
HETATM   11  N   UNL     4      -8.909  16.997  68.066  1.00  0.00    -0.218 NA 
BRANCH  11  12
HETATM   12  C   UNL     4      -9.216  18.409  67.674  1.00  0.00    -0.266 C  
HETATM   13  O   UNL     4      -7.538  19.890  66.759  1.00  0.00    -0.251 OA 
HETATM   14  O   UNL     4      -7.952  17.856  65.745  1.00  0.00    -0.540 OA 
HETATM   15  C   UNL     4      -8.155  18.810  66.589  1.00  0.00    -0.275 C  
ENDBRANCH  11  12
BRANCH  11  16
HETATM   16  C   UNL     4      -8.213  16.987  69.404  1.00  0.00     0.277 C  
HETATM   17  C   UNL     4      -6.897  16.180  69.196  1.00  0.00    -0.196 C  
HETATM   18  O   UNL     4      -6.824  15.094  69.839  1.00  0.00    -0.181 OA 
HETATM   19  O   UNL     4      -6.229  16.605  68.179  1.00  0.00    -0.125 OA 
ENDBRANCH  11  16
ENDBRANCH  10  11
ENDBRANCH   9  10
ENDBRANCH   8   9
BRANCH   8  20
HETATM   20  C   UNL     4     -11.794  14.706  66.562  1.00  0.00    -0.304 C  
HETATM   21  C   UNL     4     -11.404  14.941  65.050  1.00  0.00    -0.398 C  
HETATM   22  O   UNL     4     -12.392  15.048  64.264  1.00  0.00    -0.561 OA 
HETATM   23  O   UNL     4     -10.162  15.004  64.753  1.00  0.00    -0.308 OA 
ENDBRANCH   8  20
ENDBRANCH   7   8
TORSDOF 7
ENDMDL
MODEL      189
REMARK 921   NORMALIZED FREE ENERGY PREDICTED BY IDOCK:   -3.94 KCAL/MOL
REMARK 922        TOTAL FREE ENERGY PREDICTED BY IDOCK:   -6.99 KCAL/MOL
REMARK 923 INTER-LIGAND FREE ENERGY PREDICTED BY IDOCK:   -5.87 KCAL/MOL
REMARK 924 INTRA-LIGAND FREE ENERGY PREDICTED BY IDOCK:   -1.12 KCAL/MOL
REMARK 927      BINDING AFFINITY PREDICTED BY RF-SCORE:    0.00 PKD
ROOT
HETATM    1 NA   UNL     1     -11.053  18.217  65.744  1.00  0.00    -0.361 Na 
HETATM    2 NA   UNL     2      -7.393  19.327  68.314  1.00  0.00    -0.233 Na 
HETATM    3 CA   UNL     3      -9.152  13.139  64.868  1.00  0.00    -0.433 Ca 
HETATM    4  O   UNL     4     -10.716  17.695  67.694  1.00  0.00    -0.374 OA 
HETATM    5  C   UNL     4      -9.685  17.219  68.253  1.00  0.00    -0.294 C  
HETATM    6  O   UNL     4      -8.534  17.763  68.135  1.00  0.00    -0.246 OA 
HETATM    7  C   UNL     4      -9.731  15.946  69.122  1.00  0.00    -0.249 C  
ENDROOT
BRANCH   7   8
HETATM    8  N   UNL     4     -10.884  15.015  68.977  1.00  0.00    -0.232 NA 
BRANCH   8   9
HETATM    9  C   UNL     4     -10.779  13.876  68.059  1.00  0.00    -0.247 C  
BRANCH   9  10
HETATM   10  C   UNL     4      -9.398  13.243  67.876  1.00  0.00    -0.214 C  
BRANCH  10  11
HETATM   11  N   UNL     4      -9.418  11.760  67.812  1.00  0.00    -0.176 NA 
BRANCH  11  12
HETATM   12  C   UNL     4      -8.064  11.141  67.652  1.00  0.00    -0.117 C  
HETATM   13  O   UNL     4      -7.694   9.176  66.292  1.00  0.00    -0.094 OA 
HETATM   14  O   UNL     4      -8.682  11.046  65.365  1.00  0.00    -0.184 OA 
HETATM   15  C   UNL     4      -8.086  10.368  66.285  1.00  0.00    -0.136 C  
ENDBRANCH  11  12
BRANCH  11  16
HETATM   16  C   UNL     4     -10.080  11.207  69.049  1.00  0.00    -0.155 C  
HETATM   17  C   UNL     4     -11.362  10.472  68.559  1.00  0.00    -0.257 C  
HETATM   18  O   UNL     4     -12.454  10.977  68.945  1.00  0.00    -0.460 OA 
HETATM   19  O   UNL     4     -11.106   9.648  67.601  1.00  0.00    -0.214 OA 
ENDBRANCH  11  16
ENDBRANCH  10  11
ENDBRANCH   9  10
ENDBRANCH   8   9
BRANCH   8  20
HETATM   20  C   UNL     4     -11.186  14.451  70.357  1.00  0.00    -0.010 C  
HETATM   21  C   UNL     4     -12.650  14.701  70.890  1.00  0.00    -0.342 C  
HETATM   22  O   UNL     4     -13.126  13.753  71.583  1.00  0.00    -0.342 OA 
HETATM   23  O   UNL     4     -13.218  15.807  70.590  1.00  0.00    -0.501 OA 
ENDBRANCH   8  20
ENDBRANCH   7   8
TORSDOF 7
ENDMDL
MODEL      190
REMARK 921   NORMALIZED FREE ENERGY PREDICTED BY IDOCK:   -3.93 KCAL/MOL
REMARK 922        TOTAL FREE ENERGY PREDICTED BY IDOCK:   -6.98 KCAL/MOL
REMARK 923 INTER-LIGAND FREE ENERGY PREDICTED BY IDOCK:   -5.67 KCAL/MOL
REMARK 924 INTRA-LIGAND FREE ENERGY PREDICTED BY IDOCK:   -1.31 KCAL/MOL
REMARK 927      BINDING AFFINITY PREDICTED BY RF-SCORE:    0.00 PKD
ROOT
HETATM    1 NA   UNL     1     -10.569   3.628  71.695  1.00  0.00    -0.162 Na 
HETATM    2 NA   UNL     2      -6.366   4.906  73.085  1.00  0.00    -0.031 Na 
HETATM    3 CA   UNL     3     -12.790   8.357  73.389  1.00  0.00    -0.622 Ca 
HETATM    4  O   UNL     4      -9.293   4.906  70.734  1.00  0.00    -0.137 OA 
HETATM    5  C   UNL     4      -8.622   5.885  71.173  1.00  0.00    -0.129 C  
HETATM    6  O   UNL     4      -7.853   5.783  72.190  1.00  0.00    -0.101 OA 
HETATM    7  C   UNL     4      -8.675   7.281  70.520  1.00  0.00    -0.148 C  
ENDROOT
BRANCH   7   8
HETATM    8  N   UNL     4      -9.826   7.621  69.637  1.00  0.00    -0.179 NA 
BRANCH   8   9
HETATM    9  C   UNL     4     -10.702   8.740  69.995  1.00  0.00    -0.228 C  
BRANCH   9  10
HETATM   10  C   UNL     4     -10.135  10.154  69.853  1.00  0.00    -0.222 C  
BRANCH  10  11
HETATM   11  N   UNL     4     -11.126  11.157  69.390  1.00  0.00    -0.244 NA 
BRANCH  11  12
HETATM   12  C   UNL     4     -11.062  11.439  67.920  1.00  0.00    -0.261 C  
HETATM   13  O   UNL     4     -12.040  13.422  66.942  1.00  0.00    -0.388 OA 
HETATM   14  O   UNL     4     -10.495  13.624  68.645  1.00  0.00    -0.240 OA 
HETATM   15  C   UNL     4     -11.190  12.996  67.760  1.00  0.00    -0.279 C  
ENDBRANCH  11  12
BRANCH  11  16
HETATM   16  C   UNL     4     -12.518  10.702  69.753  1.00  0.00    -0.119 C  
HETATM   17  C   UNL     4     -12.833  11.347  71.135  1.00  0.00    -0.341 C  
HETATM   18  O   UNL     4     -12.979  10.532  72.090  1.00  0.00    -0.435 OA 
HETATM   19  O   UNL     4     -12.601  12.615  71.137  1.00  0.00    -0.366 OA 
ENDBRANCH  11  16
ENDBRANCH  10  11
ENDBRANCH   9  10
ENDBRANCH   8   9
BRANCH   8  20
HETATM   20  C   UNL     4      -9.263   7.918  68.256  1.00  0.00    -0.137 C  
HETATM   21  C   UNL     4     -10.260   7.704  67.052  1.00  0.00    -0.300 C  
HETATM   22  O   UNL     4     -10.124   8.533  66.103  1.00  0.00    -0.221 OA 
HETATM   23  O   UNL     4     -11.098   6.741  67.130  1.00  0.00    -0.384 OA 
ENDBRANCH   8  20
ENDBRANCH   7   8
TORSDOF 7
ENDMDL
MODEL      191
REMARK 921   NORMALIZED FREE ENERGY PREDICTED BY IDOCK:   -3.92 KCAL/MOL
REMARK 922        TOTAL FREE ENERGY PREDICTED BY IDOCK:   -6.97 KCAL/MOL
REMARK 923 INTER-LIGAND FREE ENERGY PREDICTED BY IDOCK:   -5.83 KCAL/MOL
REMARK 924 INTRA-LIGAND FREE ENERGY PREDICTED BY IDOCK:   -1.14 KCAL/MOL
REMARK 927      BINDING AFFINITY PREDICTED BY RF-SCORE:    0.00 PKD
ROOT
HETATM    1 NA   UNL     1     -11.277  18.678  65.768  1.00  0.00    -0.348 Na 
HETATM    2 NA   UNL     2      -7.455  19.876  68.046  1.00  0.00    -0.242 Na 
HETATM    3 CA   UNL     3      -9.364  13.620  64.809  1.00  0.00    -0.508 Ca 
HETATM    4  O   UNL     4     -10.788  18.185  67.693  1.00  0.00    -0.392 OA 
HETATM    5  C   UNL     4      -9.711  17.732  68.180  1.00  0.00    -0.313 C  
HETATM    6  O   UNL     4      -8.581  18.292  67.969  1.00  0.00    -0.257 OA 
HETATM    7  C   UNL     4      -9.671  16.470  69.063  1.00  0.00    -0.258 C  
ENDROOT
BRANCH   7   8
HETATM    8  N   UNL     4     -10.816  15.518  69.014  1.00  0.00    -0.236 NA 
BRANCH   8   9
HETATM    9  C   UNL     4     -10.756  14.364  68.113  1.00  0.00    -0.236 C  
BRANCH   9  10
HETATM   10  C   UNL     4      -9.371  13.827  67.746  1.00  0.00    -0.213 C  
BRANCH  10  11
HETATM   11  N   UNL     4      -9.286  12.345  67.723  1.00  0.00    -0.185 NA 
BRANCH  11  12
HETATM   12  C   UNL     4     -10.317  11.692  66.855  1.00  0.00    -0.220 C  
HETATM   13  O   UNL     4     -10.884   9.350  67.061  1.00  0.00    -0.187 OA 
HETATM   14  O   UNL     4     -11.034  10.735  68.902  1.00  0.00    -0.206 OA 
HETATM   15  C   UNL     4     -10.855  10.454  67.657  1.00  0.00    -0.306 C  
ENDBRANCH  11  12
BRANCH  11  16
HETATM   16  C   UNL     4      -7.910  11.922  67.271  1.00  0.00    -0.168 C  
HETATM   17  C   UNL     4      -7.101  11.637  68.571  1.00  0.00    -0.089 C  
HETATM   18  O   UNL     4      -6.125  12.413  68.780  1.00  0.00    -0.062 OA 
HETATM   19  O   UNL     4      -7.736  10.847  69.368  1.00  0.00    -0.134 OA 
ENDBRANCH  11  16
ENDBRANCH  10  11
ENDBRANCH   9  10
ENDBRANCH   8   9
BRANCH   8  20
HETATM   20  C   UNL     4     -11.014  14.977  70.422  1.00  0.00    -0.190 C  
HETATM   21  C   UNL     4     -12.510  14.903  70.920  1.00  0.00    -0.330 C  
HETATM   22  O   UNL     4     -12.767  13.909  71.662  1.00  0.00    -0.332 OA 
HETATM   23  O   UNL     4     -13.314  15.825  70.546  1.00  0.00    -0.418 OA 
ENDBRANCH   8  20
ENDBRANCH   7   8
TORSDOF 7
ENDMDL
MODEL      192
REMARK 921   NORMALIZED FREE ENERGY PREDICTED BY IDOCK:   -3.91 KCAL/MOL
REMARK 922        TOTAL FREE ENERGY PREDICTED BY IDOCK:   -6.95 KCAL/MOL
REMARK 923 INTER-LIGAND FREE ENERGY PREDICTED BY IDOCK:   -6.62 KCAL/MOL
REMARK 924 INTRA-LIGAND FREE ENERGY PREDICTED BY IDOCK:   -0.33 KCAL/MOL
REMARK 927      BINDING AFFINITY PREDICTED BY RF-SCORE:    0.00 PKD
ROOT
HETATM    1 NA   UNL     1     -10.478  15.307  66.970  1.00  0.00    -0.252 Na 
HETATM    2 NA   UNL     2     -13.881  16.024  69.992  1.00  0.00    -0.794 Na 
HETATM    3 CA   UNL     3      -7.057  13.608  70.917  1.00  0.00    -0.358 Ca 
HETATM    4  O   UNL     4     -11.691  13.891  67.813  1.00  0.00    -0.325 OA 
HETATM    5  C   UNL     4     -12.034  13.712  69.018  1.00  0.00    -0.353 C  
HETATM    6  O   UNL     4     -12.528  14.651  69.732  1.00  0.00    -0.291 OA 
HETATM    7  C   UNL     4     -11.885  12.351  69.725  1.00  0.00    -0.317 C  
ENDROOT
BRANCH   7   8
HETATM    8  N   UNL     4     -10.950  11.341  69.155  1.00  0.00    -0.227 NA 
BRANCH   8   9
HETATM    9  C   UNL     4     -10.921   9.987  69.719  1.00  0.00    -0.276 C  
BRANCH   9  10
HETATM   10  C   UNL     4      -9.619   9.524  70.374  1.00  0.00    -0.269 C  
BRANCH  10  11
HETATM   11  N   UNL     4      -9.784   8.371  71.294  1.00  0.00    -0.176 NA 
BRANCH  11  12
HETATM   12  C   UNL     4     -10.803   7.372  70.838  1.00  0.00    -0.240 C  
HETATM   13  O   UNL     4     -11.954   5.906  72.379  1.00  0.00    -0.298 OA 
HETATM   14  O   UNL     4     -12.032   8.193  72.692  1.00  0.00    -0.381 OA 
HETATM   15  C   UNL     4     -11.743   7.103  72.067  1.00  0.00    -0.289 C  
ENDBRANCH  11  12
BRANCH  11  16
HETATM   16  C   UNL     4      -8.457   7.682  71.488  1.00  0.00    -0.115 C  
HETATM   17  C   UNL     4      -7.950   8.115  72.896  1.00  0.00    -0.156 C  
HETATM   18  O   UNL     4      -6.895   8.811  72.898  1.00  0.00    -0.298 OA 
HETATM   19  O   UNL     4      -8.849   7.944  73.804  1.00  0.00    -0.247 OA 
ENDBRANCH  11  16
ENDBRANCH  10  11
ENDBRANCH   9  10
ENDBRANCH   8   9
BRANCH   8  20
HETATM   20  C   UNL     4     -11.279  11.203  67.677  1.00  0.00    -0.297 C  
HETATM   21  C   UNL     4     -10.040  11.205  66.699  1.00  0.00    -0.217 C  
HETATM   22  O   UNL     4     -10.165  10.445  65.692  1.00  0.00    -0.267 OA 
HETATM   23  O   UNL     4      -9.044  11.951  66.993  1.00  0.00    -0.179 OA 
ENDBRANCH   8  20
ENDBRANCH   7   8
TORSDOF 7
ENDMDL
MODEL      193
REMARK 921   NORMALIZED FREE ENERGY PREDICTED BY IDOCK:   -3.89 KCAL/MOL
REMARK 922        TOTAL FREE ENERGY PREDICTED BY IDOCK:   -6.93 KCAL/MOL
REMARK 923 INTER-LIGAND FREE ENERGY PREDICTED BY IDOCK:   -7.74 KCAL/MOL
REMARK 924 INTRA-LIGAND FREE ENERGY PREDICTED BY IDOCK:    0.82 KCAL/MOL
REMARK 927      BINDING AFFINITY PREDICTED BY RF-SCORE:    0.00 PKD
ROOT
HETATM    1 NA   UNL     1     -11.459  18.661  67.465  1.00  0.00    -0.414 Na 
HETATM    2 NA   UNL     2     -12.682  16.789  71.495  1.00  0.00    -0.560 Na 
HETATM    3 CA   UNL     3      -6.243  19.236  69.084  1.00  0.00    -0.209 Ca 
HETATM    4  O   UNL     4     -11.133  16.735  68.075  1.00  0.00    -0.336 OA 
HETATM    5  C   UNL     4     -10.677  16.282  69.165  1.00  0.00    -0.305 C  
HETATM    6  O   UNL     4     -11.156  16.627  70.299  1.00  0.00    -0.297 OA 
HETATM    7  C   UNL     4      -9.506  15.281  69.217  1.00  0.00    -0.242 C  
ENDROOT
BRANCH   7   8
HETATM    8  N   UNL     4      -8.613  15.153  68.031  1.00  0.00    -0.153 NA 
BRANCH   8   9
HETATM    9  C   UNL     4      -9.202  14.965  66.702  1.00  0.00    -0.276 C  
BRANCH   9  10
HETATM   10  C   UNL     4      -9.676  13.558  66.333  1.00  0.00    -0.289 C  
BRANCH  10  11
HETATM   11  N   UNL     4     -10.866  13.536  65.446  1.00  0.00    -0.287 NA 
BRANCH  11  12
HETATM   12  C   UNL     4     -11.709  12.307  65.594  1.00  0.00    -0.382 C  
HETATM   13  O   UNL     4     -11.577  10.876  67.539  1.00  0.00    -0.526 OA 
HETATM   14  O   UNL     4     -12.028  13.126  67.796  1.00  0.00    -0.350 OA 
HETATM   15  C   UNL     4     -11.835  12.036  67.135  1.00  0.00    -0.178 C  
ENDBRANCH  11  12
BRANCH  11  16
HETATM   16  C   UNL     4     -11.712  14.758  65.701  1.00  0.00    -0.257 C  
HETATM   17  C   UNL     4     -12.060  15.338  64.298  1.00  0.00    -0.208 C  
HETATM   18  O   UNL     4     -11.574  16.479  64.051  1.00  0.00    -1.154 OA 
HETATM   19  O   UNL     4     -12.537  14.436  63.510  1.00  0.00    -0.784 OA 
ENDBRANCH  11  16
ENDBRANCH  10  11
ENDBRANCH   9  10
ENDBRANCH   8   9
BRANCH   8  20
HETATM   20  C   UNL     4      -7.761  16.412  67.969  1.00  0.00    -0.153 C  
HETATM   21  C   UNL     4      -6.217  16.180  67.742  1.00  0.00    -0.137 C  
HETATM   22  O   UNL     4      -5.653  17.061  67.027  1.00  0.00    -0.142 OA 
HETATM   23  O   UNL     4      -5.677  15.153  68.282  1.00  0.00    -0.105 OA 
ENDBRANCH   8  20
ENDBRANCH   7   8
TORSDOF 7
ENDMDL
MODEL      194
REMARK 921   NORMALIZED FREE ENERGY PREDICTED BY IDOCK:   -3.89 KCAL/MOL
REMARK 922        TOTAL FREE ENERGY PREDICTED BY IDOCK:   -6.92 KCAL/MOL
REMARK 923 INTER-LIGAND FREE ENERGY PREDICTED BY IDOCK:   -6.67 KCAL/MOL
REMARK 924 INTRA-LIGAND FREE ENERGY PREDICTED BY IDOCK:   -0.25 KCAL/MOL
REMARK 927      BINDING AFFINITY PREDICTED BY RF-SCORE:    0.00 PKD
ROOT
HETATM    1 NA   UNL     1      -8.091   9.216  69.739  1.00  0.00    -0.077 Na 
HETATM    2 NA   UNL     2     -11.830  10.339  72.188  1.00  0.00    -0.339 Na 
HETATM    3 CA   UNL     3     -11.082   6.430  66.071  1.00  0.00    -0.474 Ca 
HETATM    4  O   UNL     4      -9.452  10.682  69.303  1.00  0.00    -0.197 OA 
HETATM    5  C   UNL     4     -10.717  10.656  69.296  1.00  0.00    -0.238 C  
HETATM    6  O   UNL     4     -11.395  10.236  70.295  1.00  0.00    -0.277 OA 
HETATM    7  C   UNL     4     -11.545  11.125  68.083  1.00  0.00    -0.280 C  
ENDROOT
BRANCH   7   8
HETATM    8  N   UNL     4     -10.886  11.215  66.750  1.00  0.00    -0.274 NA 
BRANCH   8   9
HETATM    9  C   UNL     4     -10.095  12.404  66.416  1.00  0.00    -0.236 C  
BRANCH   9  10
HETATM   10  C   UNL     4     -10.225  13.619  67.337  1.00  0.00    -0.241 C  
BRANCH  10  11
HETATM   11  N   UNL     4     -10.911  14.778  66.712  1.00  0.00    -0.321 NA 
BRANCH  11  12
HETATM   12  C   UNL     4     -11.131  14.631  65.238  1.00  0.00    -0.360 C  
HETATM   13  O   UNL     4     -12.156  16.368  63.905  1.00  0.00    -0.977 OA 
HETATM   14  O   UNL     4     -10.284  16.844  65.171  1.00  0.00    -0.595 OA 
HETATM   15  C   UNL     4     -11.186  16.085  64.649  1.00  0.00    -0.330 C  
ENDBRANCH  11  12
BRANCH  11  16
HETATM   16  C   UNL     4     -12.235  15.013  67.396  1.00  0.00     0.286 C  
HETATM   17  C   UNL     4     -11.894  15.546  68.819  1.00  0.00    -0.317 C  
HETATM   18  O   UNL     4     -12.231  14.790  69.774  1.00  0.00    -0.311 OA 
HETATM   19  O   UNL     4     -11.062  16.530  68.776  1.00  0.00    -0.332 OA 
ENDBRANCH  11  16
ENDBRANCH  10  11
ENDBRANCH   9  10
ENDBRANCH   8   9
BRANCH   8  20
HETATM   20  C   UNL     4      -9.962  10.013  66.621  1.00  0.00    -0.216 C  
HETATM   21  C   UNL     4      -9.326   9.792  65.194  1.00  0.00    -0.260 C  
HETATM   22  O   UNL     4      -8.142   9.341  65.211  1.00  0.00    -0.112 OA 
HETATM   23  O   UNL     4     -10.036  10.078  64.169  1.00  0.00    -0.194 OA 
ENDBRANCH   8  20
ENDBRANCH   7   8
TORSDOF 7
ENDMDL
MODEL      195
REMARK 921   NORMALIZED FREE ENERGY PREDICTED BY IDOCK:   -3.88 KCAL/MOL
REMARK 922        TOTAL FREE ENERGY PREDICTED BY IDOCK:   -6.91 KCAL/MOL
REMARK 923 INTER-LIGAND FREE ENERGY PREDICTED BY IDOCK:   -6.09 KCAL/MOL
REMARK 924 INTRA-LIGAND FREE ENERGY PREDICTED BY IDOCK:   -0.82 KCAL/MOL
REMARK 927      BINDING AFFINITY PREDICTED BY RF-SCORE:    0.00 PKD
ROOT
HETATM    1 NA   UNL     1     -13.512   9.973  69.655  1.00  0.00    -0.593 Na 
HETATM    2 NA   UNL     2     -12.774  13.348  66.606  1.00  0.00    -0.350 Na 
HETATM    3 CA   UNL     3     -12.027   6.109  66.045  1.00  0.00    -0.565 Ca 
HETATM    4  O   UNL     4     -11.705  10.765  69.112  1.00  0.00    -0.292 OA 
HETATM    5  C   UNL     4     -11.225  11.013  67.968  1.00  0.00    -0.309 C  
HETATM    6  O   UNL     4     -11.859  11.703  67.098  1.00  0.00    -0.608 OA 
HETATM    7  C   UNL     4      -9.838  10.505  67.528  1.00  0.00    -0.168 C  
ENDROOT
BRANCH   7   8
HETATM    8  N   UNL     4      -9.220   9.365  68.262  1.00  0.00    -0.131 NA 
BRANCH   8   9
HETATM    9  C   UNL     4      -9.419   9.249  69.710  1.00  0.00    -0.191 C  
BRANCH   9  10
HETATM   10  C   UNL     4      -9.179   7.879  70.347  1.00  0.00    -0.158 C  
BRANCH  10  11
HETATM   11  N   UNL     4     -10.284   7.421  71.226  1.00  0.00    -0.189 NA 
BRANCH  11  12
HETATM   12  C   UNL     4     -11.572   7.173  70.502  1.00  0.00    -0.290 C  
HETATM   13  O   UNL     4     -13.700   7.082  71.648  1.00  0.00    -0.351 OA 
HETATM   14  O   UNL     4     -12.357   8.948  71.864  1.00  0.00    -0.326 OA 
HETATM   15  C   UNL     4     -12.707   7.803  71.386  1.00  0.00    -0.308 C  
ENDBRANCH  11  12
BRANCH  11  16
HETATM   16  C   UNL     4      -9.868   6.166  71.952  1.00  0.00    -0.156 C  
HETATM   17  C   UNL     4      -9.440   6.619  73.380  1.00  0.00    -0.144 C  
HETATM   18  O   UNL     4      -8.218   6.450  73.655  1.00  0.00    -0.112 OA 
HETATM   19  O   UNL     4     -10.335   7.362  73.936  1.00  0.00    -0.317 OA 
ENDBRANCH  11  16
ENDBRANCH  10  11
ENDBRANCH   9  10
ENDBRANCH   8   9
BRANCH   8  20
HETATM   20  C   UNL     4      -9.746   8.084  67.633  1.00  0.00    -0.158 C  
HETATM   21  C   UNL     4      -8.795   7.405  66.572  1.00  0.00    -0.148 C  
HETATM   22  O   UNL     4      -8.822   6.139  66.577  1.00  0.00    -0.124 OA 
HETATM   23  O   UNL     4      -8.098   8.167  65.816  1.00  0.00    -0.102 OA 
ENDBRANCH   8  20
ENDBRANCH   7   8
TORSDOF 7
ENDMDL
MODEL      196
REMARK 921   NORMALIZED FREE ENERGY PREDICTED BY IDOCK:   -3.87 KCAL/MOL
REMARK 922        TOTAL FREE ENERGY PREDICTED BY IDOCK:   -6.90 KCAL/MOL
REMARK 923 INTER-LIGAND FREE ENERGY PREDICTED BY IDOCK:   -5.51 KCAL/MOL
REMARK 924 INTRA-LIGAND FREE ENERGY PREDICTED BY IDOCK:   -1.40 KCAL/MOL
REMARK 927      BINDING AFFINITY PREDICTED BY RF-SCORE:    0.00 PKD
ROOT
HETATM    1 NA   UNL     1     -13.901  10.334  69.389  1.00  0.00    -0.440 Na 
HETATM    2 NA   UNL     2     -13.249  13.895  66.538  1.00  0.00    -0.347 Na 
HETATM    3 CA   UNL     3     -11.061   6.945  66.131  1.00  0.00    -0.475 Ca 
HETATM    4  O   UNL     4     -12.205  11.466  69.203  1.00  0.00    -0.344 OA 
HETATM    5  C   UNL     4     -11.574  11.840  68.173  1.00  0.00    -0.323 C  
HETATM    6  O   UNL     4     -12.151  12.432  67.197  1.00  0.00    -0.532 OA 
HETATM    7  C   UNL     4     -10.058  11.613  68.007  1.00  0.00    -0.189 C  
ENDROOT
BRANCH   7   8
HETATM    8  N   UNL     4      -9.386  10.582  68.846  1.00  0.00    -0.179 NA 
BRANCH   8   9
HETATM    9  C   UNL     4      -9.813   9.182  68.747  1.00  0.00    -0.167 C  
BRANCH   9  10
HETATM   10  C   UNL     4     -10.374   8.525  70.009  1.00  0.00    -0.210 C  
BRANCH  10  11
HETATM   11  N   UNL     4      -9.864   7.152  70.251  1.00  0.00    -0.176 NA 
BRANCH  11  12
HETATM   12  C   UNL     4      -8.834   6.704  69.260  1.00  0.00    -0.133 C  
HETATM   13  O   UNL     4      -8.729   4.429  68.445  1.00  0.00    -0.096 OA 
HETATM   14  O   UNL     4     -10.686   5.636  68.234  1.00  0.00    -0.214 OA 
HETATM   15  C   UNL     4      -9.442   5.460  68.519  1.00  0.00    -0.123 C  
ENDBRANCH  11  12
BRANCH  11  16
HETATM   16  C   UNL     4      -9.294   7.061  71.644  1.00  0.00    -0.156 C  
HETATM   17  C   UNL     4     -10.460   6.575  72.554  1.00  0.00    -0.205 C  
HETATM   18  O   UNL     4     -10.844   7.404  73.427  1.00  0.00    -0.388 OA 
HETATM   19  O   UNL     4     -11.037   5.525  72.077  1.00  0.00    -0.239 OA 
ENDBRANCH  11  16
ENDBRANCH  10  11
ENDBRANCH   9  10
ENDBRANCH   8   9
BRANCH   8  20
HETATM   20  C   UNL     4      -7.904  10.622  68.511  1.00  0.00    -0.115 C  
HETATM   21  C   UNL     4      -6.944   9.974  69.584  1.00  0.00    -0.096 C  
HETATM   22  O   UNL     4      -5.936   9.380  69.096  1.00  0.00    -0.041 OA 
HETATM   23  O   UNL     4      -7.253  10.098  70.819  1.00  0.00    -0.320 OA 
ENDBRANCH   8  20
ENDBRANCH   7   8
TORSDOF 7
ENDMDL
MODEL      197
REMARK 921   NORMALIZED FREE ENERGY PREDICTED BY IDOCK:   -3.84 KCAL/MOL
REMARK 922        TOTAL FREE ENERGY PREDICTED BY IDOCK:   -6.86 KCAL/MOL
REMARK 923 INTER-LIGAND FREE ENERGY PREDICTED BY IDOCK:   -6.13 KCAL/MOL
REMARK 924 INTRA-LIGAND FREE ENERGY PREDICTED BY IDOCK:   -0.73 KCAL/MOL
REMARK 927      BINDING AFFINITY PREDICTED BY RF-SCORE:    0.00 PKD
ROOT
HETATM    1 NA   UNL     1     -13.171  10.205  73.127  1.00  0.00    -0.485 Na 
HETATM    2 NA   UNL     2     -14.317   5.785  72.508  1.00  0.00    -0.471 Na 
HETATM    3 CA   UNL     3      -7.921   8.918  74.100  1.00  0.00    -0.203 Ca 
HETATM    4  O   UNL     4     -12.838   9.071  71.456  1.00  0.00    -0.320 OA 
HETATM    5  C   UNL     4     -12.361   7.906  71.333  1.00  0.00    -0.312 C  
HETATM    6  O   UNL     4     -12.816   6.910  71.994  1.00  0.00    -0.279 OA 
HETATM    7  C   UNL     4     -11.192   7.589  70.379  1.00  0.00    -0.253 C  
ENDROOT
BRANCH   7   8
HETATM    8  N   UNL     4     -10.324   8.704  69.907  1.00  0.00    -0.204 NA 
BRANCH   8   9
HETATM    9  C   UNL     4     -10.939   9.895  69.315  1.00  0.00    -0.211 C  
BRANCH   9  10
HETATM   10  C   UNL     4     -10.952   9.998  67.788  1.00  0.00    -0.249 C  
BRANCH  10  11
HETATM   11  N   UNL     4     -10.467  11.301  67.268  1.00  0.00    -0.204 NA 
BRANCH  11  12
HETATM   12  C   UNL     4      -9.894  12.199  68.320  1.00  0.00    -0.212 C  
HETATM   13  O   UNL     4      -9.956  14.610  68.134  1.00  0.00    -0.215 OA 
HETATM   14  O   UNL     4     -11.917  13.397  68.006  1.00  0.00    -0.350 OA 
HETATM   15  C   UNL     4     -10.654  13.568  68.197  1.00  0.00    -0.245 C  
ENDBRANCH  11  12
BRANCH  11  16
HETATM   16  C   UNL     4      -9.435  11.066  66.193  1.00  0.00    -0.203 C  
HETATM   17  C   UNL     4     -10.089  11.537  64.860  1.00  0.00    -0.268 C  
HETATM   18  O   UNL     4     -10.292  10.626  64.007  1.00  0.00    -0.339 OA 
HETATM   19  O   UNL     4     -10.585  12.723  64.962  1.00  0.00    -0.290 OA 
ENDBRANCH  11  16
ENDBRANCH  10  11
ENDBRANCH   9  10
ENDBRANCH   8   9
BRANCH   8  20
HETATM   20  C   UNL     4      -9.500   9.170  71.097  1.00  0.00    -0.261 C  
HETATM   21  C   UNL     4      -8.051   8.555  71.208  1.00  0.00    -0.136 C  
HETATM   22  O   UNL     4      -7.176   9.351  71.663  1.00  0.00    -0.328 OA 
HETATM   23  O   UNL     4      -7.884   7.342  70.840  1.00  0.00    -0.091 OA 
ENDBRANCH   8  20
ENDBRANCH   7   8
TORSDOF 7
ENDMDL
MODEL      198
REMARK 921   NORMALIZED FREE ENERGY PREDICTED BY IDOCK:   -3.83 KCAL/MOL
REMARK 922        TOTAL FREE ENERGY PREDICTED BY IDOCK:   -6.83 KCAL/MOL
REMARK 923 INTER-LIGAND FREE ENERGY PREDICTED BY IDOCK:   -7.32 KCAL/MOL
REMARK 924 INTRA-LIGAND FREE ENERGY PREDICTED BY IDOCK:    0.48 KCAL/MOL
REMARK 927      BINDING AFFINITY PREDICTED BY RF-SCORE:    0.00 PKD
ROOT
HETATM    1 NA   UNL     1      -5.168  16.482  66.230  1.00  0.00    -0.106 Na 
HETATM    2 NA   UNL     2      -6.415  16.362  70.664  1.00  0.00    -0.128 Na 
HETATM    3 CA   UNL     3      -8.804  12.589  64.892  1.00  0.00    -0.390 Ca 
HETATM    4  O   UNL     4      -6.829  17.340  67.063  1.00  0.00    -0.160 OA 
HETATM    5  C   UNL     4      -7.686  16.867  67.865  1.00  0.00    -0.173 C  
HETATM    6  O   UNL     4      -7.352  16.299  68.961  1.00  0.00    -0.189 OA 
HETATM    7  C   UNL     4      -9.201  16.935  67.588  1.00  0.00    -0.228 C  
ENDROOT
BRANCH   7   8
HETATM    8  N   UNL     4      -9.669  17.167  66.194  1.00  0.00    -0.426 NA 
BRANCH   8   9
HETATM    9  C   UNL     4     -10.374  16.095  65.483  1.00  0.00    -0.367 C  
BRANCH   9  10
HETATM   10  C   UNL     4     -10.242  14.676  66.037  1.00  0.00    -0.311 C  
BRANCH  10  11
HETATM   11  N   UNL     4     -11.442  13.829  65.820  1.00  0.00    -0.312 NA 
BRANCH  11  12
HETATM   12  C   UNL     4     -11.248  12.753  64.797  1.00  0.00    -0.305 C  
HETATM   13  O   UNL     4     -13.057  11.953  63.405  1.00  0.00    -0.710 OA 
HETATM   14  O   UNL     4     -12.534  14.202  63.431  1.00  0.00    -0.797 OA 
HETATM   15  C   UNL     4     -12.371  12.956  63.718  1.00  0.00    -0.417 C  
ENDBRANCH  11  12
BRANCH  11  16
HETATM   16  C   UNL     4     -11.869  13.209  67.127  1.00  0.00    -0.369 C  
HETATM   17  C   UNL     4     -10.948  11.971  67.335  1.00  0.00    -0.261 C  
HETATM   18  O   UNL     4     -11.536  10.852  67.317  1.00  0.00    -0.475 OA 
HETATM   19  O   UNL     4      -9.702  12.270  67.196  1.00  0.00    -0.196 OA 
ENDBRANCH  11  16
ENDBRANCH  10  11
ENDBRANCH   9  10
ENDBRANCH   8   9
BRANCH   8  20
HETATM   20  C   UNL     4     -10.599  18.370  66.224  1.00  0.00    -0.311 C  
HETATM   21  C   UNL     4      -9.938  19.752  65.841  1.00  0.00    -0.373 C  
HETATM   22  O   UNL     4     -10.699  20.538  65.201  1.00  0.00     0.050 OA 
HETATM   23  O   UNL     4      -8.727  19.958  66.198  1.00  0.00    -0.363 OA 
ENDBRANCH   8  20
ENDBRANCH   7   8
TORSDOF 7
ENDMDL
MODEL      199
REMARK 921   NORMALIZED FREE ENERGY PREDICTED BY IDOCK:   -3.82 KCAL/MOL
REMARK 922        TOTAL FREE ENERGY PREDICTED BY IDOCK:   -6.82 KCAL/MOL
REMARK 923 INTER-LIGAND FREE ENERGY PREDICTED BY IDOCK:   -5.29 KCAL/MOL
REMARK 924 INTRA-LIGAND FREE ENERGY PREDICTED BY IDOCK:   -1.53 KCAL/MOL
REMARK 927      BINDING AFFINITY PREDICTED BY RF-SCORE:    0.00 PKD
ROOT
HETATM    1 NA   UNL     1      -5.806   6.691  67.878  1.00  0.00    -0.014 Na 
HETATM    2 NA   UNL     2      -7.909   2.599  68.129  1.00  0.00    -0.055 Na 
HETATM    3 CA   UNL     3      -9.522   8.610  64.318  1.00  0.00    -0.426 Ca 
HETATM    4  O   UNL     4      -7.490   6.239  68.948  1.00  0.00    -0.083 OA 
HETATM    5  C   UNL     4      -8.537   5.612  68.611  1.00  0.00    -0.104 C  
HETATM    6  O   UNL     4      -8.492   4.453  68.072  1.00  0.00    -0.094 OA 
HETATM    7  C   UNL     4      -9.949   6.192  68.821  1.00  0.00    -0.145 C  
ENDROOT
BRANCH   7   8
HETATM    8  N   UNL     4     -10.105   7.659  69.025  1.00  0.00    -0.192 NA 
BRANCH   8   9
HETATM    9  C   UNL     4     -10.666   8.480  67.948  1.00  0.00    -0.082 C  
BRANCH   9  10
HETATM   10  C   UNL     4      -9.743   9.509  67.292  1.00  0.00    -0.167 C  
BRANCH  10  11
HETATM   11  N   UNL     4     -10.291  10.888  67.278  1.00  0.00    -0.205 NA 
BRANCH  11  12
HETATM   12  C   UNL     4      -9.984  11.676  68.514  1.00  0.00    -0.194 C  
HETATM   13  O   UNL     4     -11.407  13.471  69.288  1.00  0.00    -0.259 OA 
HETATM   14  O   UNL     4     -12.294  11.366  68.951  1.00  0.00    -0.446 OA 
HETATM   15  C   UNL     4     -11.353  12.244  69.031  1.00  0.00    -0.280 C  
ENDBRANCH  11  12
BRANCH  11  16
HETATM   16  C   UNL     4      -9.773  11.628  66.069  1.00  0.00    -0.232 C  
HETATM   17  C   UNL     4     -10.936  11.624  65.033  1.00  0.00    -0.273 C  
HETATM   18  O   UNL     4     -10.710  10.977  63.971  1.00  0.00    -0.379 OA 
HETATM   19  O   UNL     4     -12.043  12.032  65.553  1.00  0.00    -0.479 OA 
ENDBRANCH  11  16
ENDBRANCH  10  11
ENDBRANCH   9  10
ENDBRANCH   8   9
BRANCH   8  20
HETATM   20  C   UNL     4     -10.991   7.854  70.245  1.00  0.00    -0.248 C  
HETATM   21  C   UNL     4     -10.603   9.062  71.185  1.00  0.00    -0.290 C  
HETATM   22  O   UNL     4     -11.590   9.657  71.711  1.00  0.00    -0.378 OA 
HETATM   23  O   UNL     4      -9.361   9.331  71.334  1.00  0.00    -0.263 OA 
ENDBRANCH   8  20
ENDBRANCH   7   8
TORSDOF 7
ENDMDL
MODEL      200
REMARK 921   NORMALIZED FREE ENERGY PREDICTED BY IDOCK:   -3.81 KCAL/MOL
REMARK 922        TOTAL FREE ENERGY PREDICTED BY IDOCK:   -6.82 KCAL/MOL
REMARK 923 INTER-LIGAND FREE ENERGY PREDICTED BY IDOCK:   -5.38 KCAL/MOL
REMARK 924 INTRA-LIGAND FREE ENERGY PREDICTED BY IDOCK:   -1.43 KCAL/MOL
REMARK 927      BINDING AFFINITY PREDICTED BY RF-SCORE:    0.00 PKD
ROOT
HETATM    1 NA   UNL     1     -11.357  12.179  70.640  1.00  0.00    -0.455 Na 
HETATM    2 NA   UNL     2     -12.879  13.209  66.414  1.00  0.00    -0.348 Na 
HETATM    3 CA   UNL     3     -13.182   7.012  70.258  1.00  0.00    -0.608 Ca 
HETATM    4  O   UNL     4     -10.470  11.690  68.862  1.00  0.00    -0.212 OA 
HETATM    5  C   UNL     4     -10.959  11.189  67.807  1.00  0.00    -0.262 C  
HETATM    6  O   UNL     4     -11.987  11.685  67.230  1.00  0.00    -0.627 OA 
HETATM    7  C   UNL     4     -10.358   9.940  67.133  1.00  0.00    -0.243 C  
ENDROOT
BRANCH   7   8
HETATM    8  N   UNL     4      -9.466   9.050  67.926  1.00  0.00    -0.140 NA 
BRANCH   8   9
HETATM    9  C   UNL     4      -9.984   8.402  69.135  1.00  0.00    -0.196 C  
BRANCH   9  10
HETATM   10  C   UNL     4      -9.162   8.541  70.417  1.00  0.00    -0.160 C  
BRANCH  10  11
HETATM   11  N   UNL     4      -9.186   7.335  71.282  1.00  0.00    -0.150 NA 
BRANCH  11  12
HETATM   12  C   UNL     4      -9.233   6.045  70.523  1.00  0.00    -0.156 C  
HETATM   13  O   UNL     4     -10.077   4.001  71.501  1.00  0.00    -0.173 OA 
HETATM   14  O   UNL     4     -11.404   5.891  71.464  1.00  0.00    -0.264 OA 
HETATM   15  C   UNL     4     -10.365   5.181  71.184  1.00  0.00    -0.206 C  
ENDBRANCH  11  12
BRANCH  11  16
HETATM   16  C   UNL     4      -7.982   7.339  72.191  1.00  0.00    -0.093 C  
HETATM   17  C   UNL     4      -8.487   7.861  73.569  1.00  0.00    -0.228 C  
HETATM   18  O   UNL     4      -8.002   8.969  73.936  1.00  0.00    -0.237 OA 
HETATM   19  O   UNL     4      -9.534   7.225  73.969  1.00  0.00    -0.249 OA 
ENDBRANCH  11  16
ENDBRANCH  10  11
ENDBRANCH   9  10
ENDBRANCH   8   9
BRANCH   8  20
HETATM   20  C   UNL     4      -8.988   7.945  66.997  1.00  0.00    -0.128 C  
HETATM   21  C   UNL     4      -7.560   7.353  67.319  1.00  0.00    -0.108 C  
HETATM   22  O   UNL     4      -7.445   6.111  67.097  1.00  0.00    -0.079 OA 
HETATM   23  O   UNL     4      -6.665   8.151  67.763  1.00  0.00    -0.062 OA 
ENDBRANCH   8  20
ENDBRANCH   7   8
TORSDOF 7
ENDMDL
MODEL      201
REMARK 921   NORMALIZED FREE ENERGY PREDICTED BY IDOCK:   -3.81 KCAL/MOL
REMARK 922        TOTAL FREE ENERGY PREDICTED BY IDOCK:   -6.81 KCAL/MOL
REMARK 923 INTER-LIGAND FREE ENERGY PREDICTED BY IDOCK:   -7.40 KCAL/MOL
REMARK 924 INTRA-LIGAND FREE ENERGY PREDICTED BY IDOCK:    0.58 KCAL/MOL
REMARK 927      BINDING AFFINITY PREDICTED BY RF-SCORE:    0.00 PKD
ROOT
HETATM    1 NA   UNL     1      -8.535  11.045  70.005  1.00  0.00    -0.361 Na 
HETATM    2 NA   UNL     2      -7.084  10.040  65.749  1.00  0.00    -0.083 Na 
HETATM    3 CA   UNL     3      -7.272  16.356  69.401  1.00  0.00    -0.164 Ca 
HETATM    4  O   UNL     4      -9.538  11.383  68.253  1.00  0.00    -0.179 OA 
HETATM    5  C   UNL     4      -9.146  11.897  67.166  1.00  0.00    -0.178 C  
HETATM    6  O   UNL     4      -8.096  11.490  66.560  1.00  0.00    -0.164 OA 
HETATM    7  C   UNL     4      -9.898  13.056  66.483  1.00  0.00    -0.263 C  
ENDROOT
BRANCH   7   8
HETATM    8  N   UNL     4     -10.846  13.875  67.288  1.00  0.00    -0.284 NA 
BRANCH   8   9
HETATM    9  C   UNL     4     -10.714  15.335  67.290  1.00  0.00    -0.311 C  
BRANCH   9  10
HETATM   10  C   UNL     4      -9.375  15.923  66.842  1.00  0.00    -0.225 C  
BRANCH  10  11
HETATM   11  N   UNL     4      -9.077  17.256  67.423  1.00  0.00    -0.225 NA 
BRANCH  11  12
HETATM   12  C   UNL     4      -8.088  18.055  66.632  1.00  0.00    -0.260 C  
HETATM   13  O   UNL     4      -7.442  20.299  67.260  1.00  0.00    -0.270 OA 
HETATM   14  O   UNL     4      -7.209  18.571  68.773  1.00  0.00    -0.283 OA 
HETATM   15  C   UNL     4      -7.463  19.099  67.625  1.00  0.00    -0.237 C  
ENDBRANCH  11  12
BRANCH  11  16
HETATM   16  C   UNL     4     -10.356  18.043  67.568  1.00  0.00    -0.385 C  
HETATM   17  C   UNL     4     -10.648  18.651  66.164  1.00  0.00    -0.363 C  
HETATM   18  O   UNL     4     -10.599  19.912  66.102  1.00  0.00    -0.467 OA 
HETATM   19  O   UNL     4     -10.599  17.758  65.235  1.00  0.00    -0.651 OA 
ENDBRANCH  11  16
ENDBRANCH  10  11
ENDBRANCH   9  10
ENDBRANCH   8   9
BRANCH   8  20
HETATM   20  C   UNL     4     -12.250  13.553  66.799  1.00  0.00    -0.340 C  
HETATM   21  C   UNL     4     -12.472  13.666  65.240  1.00  0.00    -0.479 C  
HETATM   22  O   UNL     4     -13.272  12.809  64.760  1.00  0.00    -0.812 OA 
HETATM   23  O   UNL     4     -11.846  14.586  64.610  1.00  0.00    -0.413 OA 
ENDBRANCH   8  20
ENDBRANCH   7   8
TORSDOF 7
ENDMDL
MODEL      202
REMARK 921   NORMALIZED FREE ENERGY PREDICTED BY IDOCK:   -3.80 KCAL/MOL
REMARK 922        TOTAL FREE ENERGY PREDICTED BY IDOCK:   -6.80 KCAL/MOL
REMARK 923 INTER-LIGAND FREE ENERGY PREDICTED BY IDOCK:   -5.77 KCAL/MOL
REMARK 924 INTRA-LIGAND FREE ENERGY PREDICTED BY IDOCK:   -1.04 KCAL/MOL
REMARK 927      BINDING AFFINITY PREDICTED BY RF-SCORE:    0.00 PKD
ROOT
HETATM    1 NA   UNL     1     -12.134   4.760  65.418  1.00  0.00    -0.598 Na 
HETATM    2 NA   UNL     2      -9.055   2.104  67.587  1.00  0.00    -0.087 Na 
HETATM    3 CA   UNL     3     -13.804   7.026  70.133  1.00  0.00    -0.570 Ca 
HETATM    4  O   UNL     4     -10.302   5.331  66.128  1.00  0.00    -0.214 OA 
HETATM    5  C   UNL     4      -9.750   5.122  67.247  1.00  0.00    -0.155 C  
HETATM    6  O   UNL     4      -9.648   3.950  67.748  1.00  0.00    -0.182 OA 
HETATM    7  C   UNL     4      -9.158   6.261  68.101  1.00  0.00    -0.112 C  
ENDROOT
BRANCH   7   8
HETATM    8  N   UNL     4      -9.594   7.661  67.839  1.00  0.00    -0.142 NA 
BRANCH   8   9
HETATM    9  C   UNL     4     -10.342   8.387  68.870  1.00  0.00    -0.215 C  
BRANCH   9  10
HETATM   10  C   UNL     4     -11.087   7.557  69.917  1.00  0.00    -0.171 C  
BRANCH  10  11
HETATM   11  N   UNL     4     -10.786   7.944  71.318  1.00  0.00    -0.232 NA 
BRANCH  11  12
HETATM   12  C   UNL     4      -9.378   7.653  71.739  1.00  0.00    -0.145 C  
HETATM   13  O   UNL     4      -8.459   8.467  73.822  1.00  0.00    -0.337 OA 
HETATM   14  O   UNL     4     -10.392   7.204  73.835  1.00  0.00    -0.358 OA 
HETATM   15  C   UNL     4      -9.353   7.754  73.306  1.00  0.00    -0.270 C  
ENDBRANCH  11  12
BRANCH  11  16
HETATM   16  C   UNL     4     -11.075   9.412  71.512  1.00  0.00    -0.376 C  
HETATM   17  C   UNL     4     -12.625   9.539  71.581  1.00  0.00    -0.388 C  
HETATM   18  O   UNL     4     -13.156  10.187  70.635  1.00  0.00    -0.341 OA 
HETATM   19  O   UNL     4     -13.138   8.713  72.428  1.00  0.00    -0.373 OA 
ENDBRANCH  11  16
ENDBRANCH  10  11
ENDBRANCH   9  10
ENDBRANCH   8   9
BRANCH   8  20
HETATM   20  C   UNL     4      -8.345   8.474  67.536  1.00  0.00    -0.128 C  
HETATM   21  C   UNL     4      -8.228   9.021  66.060  1.00  0.00    -0.113 C  
HETATM   22  O   UNL     4      -7.686  10.162  65.964  1.00  0.00    -0.109 OA 
HETATM   23  O   UNL     4      -8.674   8.288  65.111  1.00  0.00    -0.149 OA 
ENDBRANCH   8  20
ENDBRANCH   7   8
TORSDOF 7
ENDMDL
MODEL      203
REMARK 921   NORMALIZED FREE ENERGY PREDICTED BY IDOCK:   -3.80 KCAL/MOL
REMARK 922        TOTAL FREE ENERGY PREDICTED BY IDOCK:   -6.80 KCAL/MOL
REMARK 923 INTER-LIGAND FREE ENERGY PREDICTED BY IDOCK:   -6.07 KCAL/MOL
REMARK 924 INTRA-LIGAND FREE ENERGY PREDICTED BY IDOCK:   -0.73 KCAL/MOL
REMARK 927      BINDING AFFINITY PREDICTED BY RF-SCORE:    0.00 PKD
ROOT
HETATM    1 NA   UNL     1     -12.463   6.734  69.452  1.00  0.00    -0.602 Na 
HETATM    2 NA   UNL     2      -8.075   6.412  70.819  1.00  0.00    -0.099 Na 
HETATM    3 CA   UNL     3     -13.416  10.963  72.826  1.00  0.00    -0.612 Ca 
HETATM    4  O   UNL     4     -10.904   7.925  68.870  1.00  0.00    -0.122 OA 
HETATM    5  C   UNL     4     -10.008   8.501  69.552  1.00  0.00    -0.193 C  
HETATM    6  O   UNL     4      -9.291   7.872  70.404  1.00  0.00    -0.158 OA 
HETATM    7  C   UNL     4      -9.706  10.006  69.415  1.00  0.00    -0.225 C  
ENDROOT
BRANCH   7   8
HETATM    8  N   UNL     4     -10.732  10.895  68.802  1.00  0.00    -0.193 NA 
BRANCH   8   9
HETATM    9  C   UNL     4     -11.254  12.030  69.570  1.00  0.00    -0.150 C  
BRANCH   9  10
HETATM   10  C   UNL     4     -11.906  13.171  68.787  1.00  0.00    -0.324 C  
BRANCH  10  11
HETATM   11  N   UNL     4     -11.765  14.501  69.431  1.00  0.00    -0.298 NA 
BRANCH  11  12
HETATM   12  C   UNL     4     -11.501  15.617  68.467  1.00  0.00    -0.375 C  
HETATM   13  O   UNL     4     -10.404  17.666  69.133  1.00  0.00    -0.353 OA 
HETATM   14  O   UNL     4      -9.368  15.636  69.502  1.00  0.00    -0.264 OA 
HETATM   15  C   UNL     4     -10.281  16.421  69.041  1.00  0.00    -0.269 C  
ENDBRANCH  11  12
BRANCH  11  16
HETATM   16  C   UNL     4     -13.005  14.812  70.231  1.00  0.00    -0.135 C  
HETATM   17  C   UNL     4     -12.632  14.551  71.720  1.00  0.00    -0.346 C  
HETATM   18  O   UNL     4     -13.255  13.601  72.274  1.00  0.00    -0.422 OA 
HETATM   19  O   UNL     4     -11.541  15.151  72.054  1.00  0.00    -0.407 OA 
ENDBRANCH  11  16
ENDBRANCH  10  11
ENDBRANCH   9  10
ENDBRANCH   8   9
BRANCH   8  20
HETATM   20  C   UNL     4     -10.135  11.458  67.521  1.00  0.00    -0.183 C  
HETATM   21  C   UNL     4      -8.640  11.953  67.626  1.00  0.00    -0.156 C  
HETATM   22  O   UNL     4      -7.946  11.752  66.585  1.00  0.00    -0.148 OA 
HETATM   23  O   UNL     4      -8.264  12.501  68.719  1.00  0.00    -0.032 OA 
ENDBRANCH   8  20
ENDBRANCH   7   8
TORSDOF 7
ENDMDL
MODEL      204
REMARK 921   NORMALIZED FREE ENERGY PREDICTED BY IDOCK:   -3.80 KCAL/MOL
REMARK 922        TOTAL FREE ENERGY PREDICTED BY IDOCK:   -6.80 KCAL/MOL
REMARK 923 INTER-LIGAND FREE ENERGY PREDICTED BY IDOCK:   -6.72 KCAL/MOL
REMARK 924 INTRA-LIGAND FREE ENERGY PREDICTED BY IDOCK:   -0.08 KCAL/MOL
REMARK 927      BINDING AFFINITY PREDICTED BY RF-SCORE:    0.00 PKD
ROOT
HETATM    1 NA   UNL     1      -7.192  11.787  68.115  1.00  0.00    -0.067 Na 
HETATM    2 NA   UNL     2     -10.466   8.681  69.046  1.00  0.00    -0.185 Na 
HETATM    3 CA   UNL     3      -8.892  12.321  62.919  1.00  0.00    -0.479 Ca 
HETATM    4  O   UNL     4      -9.168  12.161  68.495  1.00  0.00    -0.179 OA 
HETATM    5  C   UNL     4     -10.213  11.616  68.033  1.00  0.00    -0.190 C  
HETATM    6  O   UNL     4     -10.384  10.349  68.049  1.00  0.00    -0.162 OA 
HETATM    7  C   UNL     4     -11.363  12.433  67.413  1.00  0.00    -0.321 C  
ENDROOT
BRANCH   7   8
HETATM    8  N   UNL     4     -11.095  13.825  66.954  1.00  0.00    -0.297 NA 
BRANCH   8   9
HETATM    9  C   UNL     4      -9.869  14.502  67.387  1.00  0.00    -0.227 C  
BRANCH   9  10
HETATM   10  C   UNL     4     -10.022  15.804  68.175  1.00  0.00    -0.214 C  
BRANCH  10  11
HETATM   11  N   UNL     4      -9.257  16.944  67.611  1.00  0.00    -0.227 NA 
BRANCH  11  12
HETATM   12  C   UNL     4      -8.607  16.646  66.295  1.00  0.00    -0.324 C  
HETATM   13  O   UNL     4      -6.535  17.689  65.613  1.00  0.00    -0.170 OA 
HETATM   14  O   UNL     4      -6.636  16.532  67.608  1.00  0.00    -0.126 OA 
HETATM   15  C   UNL     4      -7.078  16.956  66.474  1.00  0.00    -0.246 C  
ENDBRANCH  11  12
BRANCH  11  16
HETATM   16  C   UNL     4     -10.164  18.140  67.463  1.00  0.00    -0.371 C  
HETATM   17  C   UNL     4      -9.533  19.267  68.334  1.00  0.00    -0.376 C  
HETATM   18  O   UNL     4     -10.226  19.634  69.325  1.00  0.00    -0.365 OA 
HETATM   19  O   UNL     4      -8.282  19.432  68.073  1.00  0.00    -0.299 OA 
ENDBRANCH  11  16
ENDBRANCH  10  11
ENDBRANCH   9  10
ENDBRANCH   8   9
BRANCH   8  20
HETATM   20  C   UNL     4     -11.083  13.805  65.434  1.00  0.00    -0.302 C  
HETATM   21  C   UNL     4     -12.445  14.189  64.735  1.00  0.00    -0.373 C  
HETATM   22  O   UNL     4     -12.317  14.837  63.654  1.00  0.00    -0.637 OA 
HETATM   23  O   UNL     4     -13.533  13.825  65.301  1.00  0.00    -0.586 OA 
ENDBRANCH   8  20
ENDBRANCH   7   8
TORSDOF 7
ENDMDL
MODEL      205
REMARK 921   NORMALIZED FREE ENERGY PREDICTED BY IDOCK:   -3.78 KCAL/MOL
REMARK 922        TOTAL FREE ENERGY PREDICTED BY IDOCK:   -6.77 KCAL/MOL
REMARK 923 INTER-LIGAND FREE ENERGY PREDICTED BY IDOCK:   -5.92 KCAL/MOL
REMARK 924 INTRA-LIGAND FREE ENERGY PREDICTED BY IDOCK:   -0.85 KCAL/MOL
REMARK 927      BINDING AFFINITY PREDICTED BY RF-SCORE:    0.00 PKD
ROOT
HETATM    1 NA   UNL     1      -9.324  13.383  64.475  1.00  0.00    -0.516 Na 
HETATM    2 NA   UNL     2     -13.818  13.793  65.409  1.00  0.00    -0.716 Na 
HETATM    3 CA   UNL     3      -7.949  14.217  69.727  1.00  0.00    -0.313 Ca 
HETATM    4  O   UNL     4     -10.538  11.968  65.319  1.00  0.00    -0.267 OA 
HETATM    5  C   UNL     4     -11.376  12.058  66.264  1.00  0.00    -0.357 C  
HETATM    6  O   UNL     4     -12.296  12.945  66.275  1.00  0.00    -0.477 OA 
HETATM    7  C   UNL     4     -11.355  11.109  67.478  1.00  0.00    -0.278 C  
ENDROOT
BRANCH   7   8
HETATM    8  N   UNL     4     -10.109  10.351  67.780  1.00  0.00    -0.174 NA 
BRANCH   8   9
HETATM    9  C   UNL     4      -9.957   9.707  69.088  1.00  0.00    -0.185 C  
BRANCH   9  10
HETATM   10  C   UNL     4     -10.417   8.253  69.217  1.00  0.00    -0.210 C  
BRANCH  10  11
HETATM   11  N   UNL     4      -9.916   7.568  70.434  1.00  0.00    -0.184 NA 
BRANCH  11  12
HETATM   12  C   UNL     4     -10.616   7.977  71.693  1.00  0.00    -0.227 C  
HETATM   13  O   UNL     4      -9.654   7.617  73.882  1.00  0.00    -0.274 OA 
HETATM   14  O   UNL     4      -8.474   8.800  72.289  1.00  0.00    -0.375 OA 
HETATM   15  C   UNL     4      -9.498   8.188  72.775  1.00  0.00    -0.279 C  
ENDBRANCH  11  12
BRANCH  11  16
HETATM   16  C   UNL     4     -10.031   6.074  70.259  1.00  0.00    -0.187 C  
HETATM   17  C   UNL     4      -8.607   5.576  69.871  1.00  0.00    -0.120 C  
HETATM   18  O   UNL     4      -8.504   5.088  68.710  1.00  0.00    -0.087 OA 
HETATM   19  O   UNL     4      -7.707   6.014  70.685  1.00  0.00    -0.096 OA 
ENDBRANCH  11  16
ENDBRANCH  10  11
ENDBRANCH   9  10
ENDBRANCH   8   9
BRANCH   8  20
HETATM   20  C   UNL     4      -9.976   9.262  66.727  1.00  0.00    -0.245 C  
HETATM   21  C   UNL     4      -8.528   9.060  66.132  1.00  0.00    -0.127 C  
HETATM   22  O   UNL     4      -8.234   7.858  65.861  1.00  0.00    -0.111 OA 
HETATM   23  O   UNL     4      -7.794  10.096  65.975  1.00  0.00    -0.112 OA 
ENDBRANCH   8  20
ENDBRANCH   7   8
TORSDOF 7
ENDMDL
MODEL      206
REMARK 921   NORMALIZED FREE ENERGY PREDICTED BY IDOCK:   -3.77 KCAL/MOL
REMARK 922        TOTAL FREE ENERGY PREDICTED BY IDOCK:   -6.76 KCAL/MOL
REMARK 923 INTER-LIGAND FREE ENERGY PREDICTED BY IDOCK:   -6.55 KCAL/MOL
REMARK 924 INTRA-LIGAND FREE ENERGY PREDICTED BY IDOCK:   -0.20 KCAL/MOL
REMARK 927      BINDING AFFINITY PREDICTED BY RF-SCORE:    0.00 PKD
ROOT
HETATM    1 NA   UNL     1      -9.458   7.965  67.778  1.00  0.00    -0.136 Na 
HETATM    2 NA   UNL     2      -8.103   7.864  63.374  1.00  0.00    -0.117 Na 
HETATM    3 CA   UNL     3      -6.862  12.721  68.679  1.00  0.00    -0.065 Ca 
HETATM    4  O   UNL     4     -10.255   9.028  66.222  1.00  0.00    -0.284 OA 
HETATM    5  C   UNL     4      -9.693   9.710  65.315  1.00  0.00    -0.260 C  
HETATM    6  O   UNL     4      -8.753   9.235  64.591  1.00  0.00    -0.185 OA 
HETATM    7  C   UNL     4     -10.094  11.167  65.011  1.00  0.00    -0.283 C  
ENDROOT
BRANCH   7   8
HETATM    8  N   UNL     4     -10.841  11.940  66.041  1.00  0.00    -0.288 NA 
BRANCH   8   9
HETATM    9  C   UNL     4     -10.170  13.035  66.748  1.00  0.00    -0.246 C  
BRANCH   9  10
HETATM   10  C   UNL     4     -10.915  14.367  66.855  1.00  0.00    -0.308 C  
BRANCH  10  11
HETATM   11  N   UNL     4     -10.043  15.520  67.194  1.00  0.00    -0.250 NA 
BRANCH  11  12
HETATM   12  C   UNL     4      -9.405  16.169  66.005  1.00  0.00    -0.333 C  
HETATM   13  O   UNL     4      -7.394  17.501  66.183  1.00  0.00    -0.290 OA 
HETATM   14  O   UNL     4      -7.406  15.327  66.963  1.00  0.00    -0.182 OA 
HETATM   15  C   UNL     4      -7.888  16.361  66.362  1.00  0.00    -0.262 C  
ENDBRANCH  11  12
BRANCH  11  16
HETATM   16  C   UNL     4     -10.836  16.548  67.962  1.00  0.00    -0.337 C  
HETATM   17  C   UNL     4     -10.723  16.144  69.462  1.00  0.00    -0.313 C  
HETATM   18  O   UNL     4     -11.807  15.795  70.010  1.00  0.00    -0.344 OA 
HETATM   19  O   UNL     4      -9.498  15.950  69.816  1.00  0.00    -0.221 OA 
ENDBRANCH  11  16
ENDBRANCH  10  11
ENDBRANCH   9  10
ENDBRANCH   8   9
BRANCH   8  20
HETATM   20  C   UNL     4     -12.067  12.531  65.362  1.00  0.00    -0.435 C  
HETATM   21  C   UNL     4     -12.008  12.596  63.785  1.00  0.00    -0.510 C  
HETATM   22  O   UNL     4     -13.119  12.395  63.210  1.00  0.00    -0.630 OA 
HETATM   23  O   UNL     4     -10.879  12.840  63.236  1.00  0.00    -0.275 OA 
ENDBRANCH   8  20
ENDBRANCH   7   8
TORSDOF 7
ENDMDL
MODEL      207
REMARK 921   NORMALIZED FREE ENERGY PREDICTED BY IDOCK:   -3.77 KCAL/MOL
REMARK 922        TOTAL FREE ENERGY PREDICTED BY IDOCK:   -6.75 KCAL/MOL
REMARK 923 INTER-LIGAND FREE ENERGY PREDICTED BY IDOCK:   -5.02 KCAL/MOL
REMARK 924 INTRA-LIGAND FREE ENERGY PREDICTED BY IDOCK:   -1.73 KCAL/MOL
REMARK 927      BINDING AFFINITY PREDICTED BY RF-SCORE:    0.00 PKD
ROOT
HETATM    1 NA   UNL     1      -6.370   7.683  68.361  1.00  0.00    -0.030 Na 
HETATM    2 NA   UNL     2      -8.029   3.444  67.644  1.00  0.00    -0.073 Na 
HETATM    3 CA   UNL     3     -10.616  10.003  65.762  1.00  0.00    -0.241 Ca 
HETATM    4  O   UNL     4      -7.879   6.763  69.394  1.00  0.00    -0.109 OA 
HETATM    5  C   UNL     4      -8.889   6.123  68.980  1.00  0.00    -0.123 C  
HETATM    6  O   UNL     4      -8.792   5.162  68.143  1.00  0.00    -0.102 OA 
HETATM    7  C   UNL     4     -10.321   6.450  69.450  1.00  0.00    -0.209 C  
ENDROOT
BRANCH   7   8
HETATM    8  N   UNL     4     -10.594   7.782  70.059  1.00  0.00    -0.235 NA 
BRANCH   8   9
HETATM    9  C   UNL     4     -10.859   8.931  69.188  1.00  0.00    -0.070 C  
BRANCH   9  10
HETATM   10  C   UNL     4      -9.690   9.872  68.888  1.00  0.00    -0.175 C  
BRANCH  10  11
HETATM   11  N   UNL     4     -10.079  11.097  68.145  1.00  0.00    -0.173 NA 
BRANCH  11  12
HETATM   12  C   UNL     4     -11.255  11.815  68.731  1.00  0.00    -0.251 C  
HETATM   13  O   UNL     4     -12.071  13.907  67.833  1.00  0.00    -0.366 OA 
HETATM   14  O   UNL     4     -11.887  12.060  66.459  1.00  0.00    -0.585 OA 
HETATM   15  C   UNL     4     -11.858  12.696  67.579  1.00  0.00    -0.334 C  
ENDBRANCH  11  12
BRANCH  11  16
HETATM   16  C   UNL     4      -8.903  12.039  68.069  1.00  0.00    -0.179 C  
HETATM   17  C   UNL     4      -8.066  11.582  66.838  1.00  0.00    -0.164 C  
HETATM   18  O   UNL     4      -6.912  11.141  67.104  1.00  0.00    -0.095 OA 
HETATM   19  O   UNL     4      -8.796  11.453  65.782  1.00  0.00    -0.189 OA 
ENDBRANCH  11  16
ENDBRANCH  10  11
ENDBRANCH   9  10
ENDBRANCH   8   9
BRANCH   8  20
HETATM   20  C   UNL     4     -11.802   7.623  70.969  1.00  0.00    -0.285 C  
HETATM   21  C   UNL     4     -11.621   8.158  72.443  1.00  0.00    -0.399 C  
HETATM   22  O   UNL     4     -12.662   8.675  72.946  1.00  0.00    -0.289 OA 
HETATM   23  O   UNL     4     -10.473   8.028  72.992  1.00  0.00    -0.342 OA 
ENDBRANCH   8  20
ENDBRANCH   7   8
TORSDOF 7
ENDMDL
MODEL      208
REMARK 921   NORMALIZED FREE ENERGY PREDICTED BY IDOCK:   -3.77 KCAL/MOL
REMARK 922        TOTAL FREE ENERGY PREDICTED BY IDOCK:   -6.75 KCAL/MOL
REMARK 923 INTER-LIGAND FREE ENERGY PREDICTED BY IDOCK:   -6.09 KCAL/MOL
REMARK 924 INTRA-LIGAND FREE ENERGY PREDICTED BY IDOCK:   -0.66 KCAL/MOL
REMARK 927      BINDING AFFINITY PREDICTED BY RF-SCORE:    0.00 PKD
ROOT
HETATM    1 NA   UNL     1     -10.572  14.427  66.969  1.00  0.00    -0.253 Na 
HETATM    2 NA   UNL     2     -13.754  15.907  69.956  1.00  0.00    -0.735 Na 
HETATM    3 CA   UNL     3      -7.011  13.316  71.001  1.00  0.00    -0.302 Ca 
HETATM    4  O   UNL     4     -11.800  13.272  68.129  1.00  0.00    -0.335 OA 
HETATM    5  C   UNL     4     -12.081  13.347  69.361  1.00  0.00    -0.269 C  
HETATM    6  O   UNL     4     -12.486  14.432  69.902  1.00  0.00    -0.327 OA 
HETATM    7  C   UNL     4     -11.956  12.139  70.310  1.00  0.00    -0.305 C  
ENDROOT
BRANCH   7   8
HETATM    8  N   UNL     4     -11.105  10.986  69.903  1.00  0.00    -0.241 NA 
BRANCH   8   9
HETATM    9  C   UNL     4     -11.051   9.795  70.756  1.00  0.00    -0.345 C  
BRANCH   9  10
HETATM   10  C   UNL     4      -9.733   9.020  70.802  1.00  0.00    -0.246 C  
BRANCH  10  11
HETATM   11  N   UNL     4      -9.885   7.558  70.595  1.00  0.00    -0.179 NA 
BRANCH  11  12
HETATM   12  C   UNL     4      -9.150   7.035  69.399  1.00  0.00    -0.145 C  
HETATM   13  O   UNL     4      -9.579   4.842  68.477  1.00  0.00    -0.140 OA 
HETATM   14  O   UNL     4     -11.313   6.348  68.716  1.00  0.00    -0.327 OA 
HETATM   15  C   UNL     4     -10.084   5.961  68.738  1.00  0.00    -0.172 C  
ENDBRANCH  11  12
BRANCH  11  16
HETATM   16  C   UNL     4      -9.426   6.820  71.828  1.00  0.00    -0.150 C  
HETATM   17  C   UNL     4     -10.703   6.585  72.687  1.00  0.00    -0.231 C  
HETATM   18  O   UNL     4     -10.723   7.184  73.800  1.00  0.00    -0.361 OA 
HETATM   19  O   UNL     4     -11.656   6.058  71.997  1.00  0.00    -0.300 OA 
ENDBRANCH  11  16
ENDBRANCH  10  11
ENDBRANCH   9  10
ENDBRANCH   8   9
BRANCH   8  20
HETATM   20  C   UNL     4     -11.584  10.534  68.532  1.00  0.00    -0.148 C  
HETATM   21  C   UNL     4     -10.452  10.087  67.527  1.00  0.00    -0.254 C  
HETATM   22  O   UNL     4     -10.775   9.128  66.765  1.00  0.00    -0.177 OA 
HETATM   23  O   UNL     4      -9.336  10.712  67.563  1.00  0.00    -0.146 OA 
ENDBRANCH   8  20
ENDBRANCH   7   8
TORSDOF 7
ENDMDL
MODEL      209
REMARK 921   NORMALIZED FREE ENERGY PREDICTED BY IDOCK:   -3.76 KCAL/MOL
REMARK 922        TOTAL FREE ENERGY PREDICTED BY IDOCK:   -6.74 KCAL/MOL
REMARK 923 INTER-LIGAND FREE ENERGY PREDICTED BY IDOCK:   -5.27 KCAL/MOL
REMARK 924 INTRA-LIGAND FREE ENERGY PREDICTED BY IDOCK:   -1.47 KCAL/MOL
REMARK 927      BINDING AFFINITY PREDICTED BY RF-SCORE:    0.00 PKD
ROOT
HETATM    1 NA   UNL     1     -12.431  12.976  67.281  1.00  0.00    -0.329 Na 
HETATM    2 NA   UNL     2     -13.578  12.318  71.695  1.00  0.00    -0.369 Na 
HETATM    3 CA   UNL     3      -7.079  13.198  68.494  1.00  0.00    -0.070 Ca 
HETATM    4  O   UNL     4     -12.302  11.228  68.337  1.00  0.00    -0.545 OA 
HETATM    5  C   UNL     4     -11.827  10.992  69.486  1.00  0.00    -0.333 C  
HETATM    6  O   UNL     4     -12.176  11.662  70.517  1.00  0.00    -0.356 OA 
HETATM    7  C   UNL     4     -10.789   9.881  69.737  1.00  0.00    -0.269 C  
ENDROOT
BRANCH   7   8
HETATM    8  N   UNL     4     -10.008   9.349  68.586  1.00  0.00    -0.167 NA 
BRANCH   8   9
HETATM    9  C   UNL     4      -8.754  10.005  68.202  1.00  0.00    -0.122 C  
BRANCH   9  10
HETATM   10  C   UNL     4      -8.802  10.989  67.032  1.00  0.00    -0.143 C  
BRANCH  10  11
HETATM   11  N   UNL     4      -8.814  10.339  65.697  1.00  0.00    -0.161 NA 
BRANCH  11  12
HETATM   12  C   UNL     4      -8.061   9.045  65.646  1.00  0.00    -0.115 C  
HETATM   13  O   UNL     4      -7.626   7.884  63.570  1.00  0.00    -0.114 OA 
HETATM   14  O   UNL     4      -6.955  10.079  63.822  1.00  0.00    -0.123 OA 
HETATM   15  C   UNL     4      -7.439   8.949  64.208  1.00  0.00    -0.106 C  
ENDBRANCH  11  12
BRANCH  11  16
HETATM   16  C   UNL     4     -10.238  10.108  65.257  1.00  0.00    -0.191 C  
HETATM   17  C   UNL     4     -10.723  11.458  64.650  1.00  0.00    -0.314 C  
HETATM   18  O   UNL     4     -11.657  12.029  65.282  1.00  0.00    -0.336 OA 
HETATM   19  O   UNL     4      -9.895  11.916  63.774  1.00  0.00    -0.310 OA 
ENDBRANCH  11  16
ENDBRANCH  10  11
ENDBRANCH   9  10
ENDBRANCH   8   9
BRANCH   8  20
HETATM   20  C   UNL     4      -9.676   7.898  68.897  1.00  0.00    -0.158 C  
HETATM   21  C   UNL     4     -10.043   6.857  67.768  1.00  0.00    -0.161 C  
HETATM   22  O   UNL     4      -9.227   5.894  67.656  1.00  0.00    -0.107 OA 
HETATM   23  O   UNL     4     -11.101   7.065  67.080  1.00  0.00    -0.373 OA 
ENDBRANCH   8  20
ENDBRANCH   7   8
TORSDOF 7
ENDMDL
MODEL      210
REMARK 921   NORMALIZED FREE ENERGY PREDICTED BY IDOCK:   -3.76 KCAL/MOL
REMARK 922        TOTAL FREE ENERGY PREDICTED BY IDOCK:   -6.74 KCAL/MOL
REMARK 923 INTER-LIGAND FREE ENERGY PREDICTED BY IDOCK:   -7.19 KCAL/MOL
REMARK 924 INTRA-LIGAND FREE ENERGY PREDICTED BY IDOCK:    0.45 KCAL/MOL
REMARK 927      BINDING AFFINITY PREDICTED BY RF-SCORE:    0.00 PKD
ROOT
HETATM    1 NA   UNL     1      -5.160  16.513  65.926  1.00  0.00     0.011 Na 
HETATM    2 NA   UNL     2      -6.195  16.824  70.406  1.00  0.00    -0.211 Na 
HETATM    3 CA   UNL     3      -8.911  12.582  65.124  1.00  0.00    -0.407 Ca 
HETATM    4  O   UNL     4      -6.766  17.475  66.752  1.00  0.00    -0.165 OA 
HETATM    5  C   UNL     4      -7.590  17.093  67.634  1.00  0.00    -0.167 C  
HETATM    6  O   UNL     4      -7.213  16.622  68.761  1.00  0.00    -0.181 OA 
HETATM    7  C   UNL     4      -9.116  17.163  67.422  1.00  0.00    -0.224 C  
ENDROOT
BRANCH   7   8
HETATM    8  N   UNL     4      -9.647  17.275  66.035  1.00  0.00    -0.500 NA 
BRANCH   8   9
HETATM    9  C   UNL     4     -10.468  16.190  65.488  1.00  0.00    -0.386 C  
BRANCH   9  10
HETATM   10  C   UNL     4     -10.108  14.760  65.895  1.00  0.00    -0.321 C  
BRANCH  10  11
HETATM   11  N   UNL     4     -11.239  13.996  66.478  1.00  0.00    -0.314 NA 
BRANCH  11  12
HETATM   12  C   UNL     4     -11.471  14.269  67.932  1.00  0.00    -0.315 C  
HETATM   13  O   UNL     4     -12.033  12.518  69.502  1.00  0.00    -0.303 OA 
HETATM   14  O   UNL     4     -10.116  12.345  68.225  1.00  0.00    -0.217 OA 
HETATM   15  C   UNL     4     -11.168  12.928  68.690  1.00  0.00    -0.281 C  
ENDBRANCH  11  12
BRANCH  11  16
HETATM   16  C   UNL     4     -12.501  14.288  65.705  1.00  0.00    -0.417 C  
HETATM   17  C   UNL     4     -12.526  13.274  64.524  1.00  0.00    -0.319 C  
HETATM   18  O   UNL     4     -12.431  13.785  63.371  1.00  0.00    -0.817 OA 
HETATM   19  O   UNL     4     -12.340  12.063  64.927  1.00  0.00    -0.367 OA 
ENDBRANCH  11  16
ENDBRANCH  10  11
ENDBRANCH   9  10
ENDBRANCH   8   9
BRANCH   8  20
HETATM   20  C   UNL     4     -10.484  18.544  65.973  1.00  0.00    -0.400 C  
HETATM   21  C   UNL     4     -10.485  19.426  67.282  1.00  0.00    -0.467 C  
HETATM   22  O   UNL     4     -10.528  20.674  67.074  1.00  0.00    -0.089 OA 
HETATM   23  O   UNL     4     -10.444  18.825  68.410  1.00  0.00    -0.333 OA 
ENDBRANCH   8  20
ENDBRANCH   7   8
TORSDOF 7
ENDMDL
MODEL      211
REMARK 921   NORMALIZED FREE ENERGY PREDICTED BY IDOCK:   -3.75 KCAL/MOL
REMARK 922        TOTAL FREE ENERGY PREDICTED BY IDOCK:   -6.73 KCAL/MOL
REMARK 923 INTER-LIGAND FREE ENERGY PREDICTED BY IDOCK:   -4.96 KCAL/MOL
REMARK 924 INTRA-LIGAND FREE ENERGY PREDICTED BY IDOCK:   -1.77 KCAL/MOL
REMARK 927      BINDING AFFINITY PREDICTED BY RF-SCORE:    0.00 PKD
ROOT
HETATM    1 NA   UNL     1     -12.282   6.490  69.550  1.00  0.00    -0.519 Na 
HETATM    2 NA   UNL     2     -12.054   5.103  65.162  1.00  0.00    -0.747 Na 
HETATM    3 CA   UNL     3      -7.498   4.083  70.772  1.00  0.00    -0.036 Ca 
HETATM    4  O   UNL     4     -11.153   7.317  68.057  1.00  0.00    -0.059 OA 
HETATM    5  C   UNL     4     -10.395   6.776  67.200  1.00  0.00    -0.258 C  
HETATM    6  O   UNL     4     -10.787   5.813  66.456  1.00  0.00    -0.276 OA 
HETATM    7  C   UNL     4      -8.938   7.229  66.984  1.00  0.00    -0.130 C  
ENDROOT
BRANCH   7   8
HETATM    8  N   UNL     4      -8.259   8.012  68.054  1.00  0.00    -0.128 NA 
BRANCH   8   9
HETATM    9  C   UNL     4      -8.102   7.424  69.388  1.00  0.00    -0.129 C  
BRANCH   9  10
HETATM   10  C   UNL     4      -8.572   8.252  70.585  1.00  0.00    -0.136 C  
BRANCH  10  11
HETATM   11  N   UNL     4      -9.690   7.636  71.343  1.00  0.00    -0.163 NA 
BRANCH  11  12
HETATM   12  C   UNL     4      -9.285   6.452  72.166  1.00  0.00    -0.140 C  
HETATM   13  O   UNL     4     -10.864   4.755  72.854  1.00  0.00    -0.216 OA 
HETATM   14  O   UNL     4     -10.624   5.262  70.614  1.00  0.00    -0.253 OA 
HETATM   15  C   UNL     4     -10.334   5.323  71.868  1.00  0.00    -0.215 C  
ENDBRANCH  11  12
BRANCH  11  16
HETATM   16  C   UNL     4     -10.332   8.671  72.232  1.00  0.00    -0.306 C  
HETATM   17  C   UNL     4     -11.604   9.157  71.477  1.00  0.00    -0.368 C  
HETATM   18  O   UNL     4     -11.586  10.369  71.116  1.00  0.00    -0.333 OA 
HETATM   19  O   UNL     4     -12.336   8.171  71.085  1.00  0.00    -0.294 OA 
ENDBRANCH  11  16
ENDBRANCH  10  11
ENDBRANCH   9  10
ENDBRANCH   8   9
BRANCH   8  20
HETATM   20  C   UNL     4      -6.867   8.356  67.549  1.00  0.00    -0.070 C  
HETATM   21  C   UNL     4      -6.409   9.850  67.771  1.00  0.00    -0.055 C  
HETATM   22  O   UNL     4      -5.177   9.989  68.030  1.00  0.00    -0.036 OA 
HETATM   23  O   UNL     4      -7.294  10.769  67.673  1.00  0.00    -0.091 OA 
ENDBRANCH   8  20
ENDBRANCH   7   8
TORSDOF 7
ENDMDL
MODEL      212
REMARK 921   NORMALIZED FREE ENERGY PREDICTED BY IDOCK:   -3.75 KCAL/MOL
REMARK 922        TOTAL FREE ENERGY PREDICTED BY IDOCK:   -6.73 KCAL/MOL
REMARK 923 INTER-LIGAND FREE ENERGY PREDICTED BY IDOCK:   -6.52 KCAL/MOL
REMARK 924 INTRA-LIGAND FREE ENERGY PREDICTED BY IDOCK:   -0.21 KCAL/MOL
REMARK 927      BINDING AFFINITY PREDICTED BY RF-SCORE:    0.00 PKD
ROOT
HETATM    1 NA   UNL     1     -11.376  19.991  65.668  1.00  0.00    -0.387 Na 
HETATM    2 NA   UNL     2     -11.349  21.183  70.120  1.00  0.00    -0.874 Na 
HETATM    3 CA   UNL     3      -5.906  20.352  65.329  1.00  0.00    -0.168 Ca 
HETATM    4  O   UNL     4     -10.909  18.792  67.259  1.00  0.00    -0.443 OA 
HETATM    5  C   UNL     4     -10.151  18.997  68.251  1.00  0.00    -0.396 C  
HETATM    6  O   UNL     4     -10.260  20.037  68.987  1.00  0.00    -0.401 OA 
HETATM    7  C   UNL     4      -9.035  18.014  68.654  1.00  0.00    -0.268 C  
ENDROOT
BRANCH   7   8
HETATM    8  N   UNL     4      -8.544  17.028  67.651  1.00  0.00    -0.208 NA 
BRANCH   8   9
HETATM    9  C   UNL     4      -9.032  17.103  66.270  1.00  0.00    -0.228 C  
BRANCH   9  10
HETATM   10  C   UNL     4      -9.920  15.961  65.773  1.00  0.00    -0.360 C  
BRANCH  10  11
HETATM   11  N   UNL     4     -10.095  14.862  66.756  1.00  0.00    -0.247 NA 
BRANCH  11  12
HETATM   12  C   UNL     4     -11.507  14.376  66.878  1.00  0.00    -0.366 C  
HETATM   13  O   UNL     4     -12.402  13.515  68.953  1.00  0.00    -0.248 OA 
HETATM   14  O   UNL     4     -11.472  15.628  68.891  1.00  0.00    -0.316 OA 
HETATM   15  C   UNL     4     -11.897  14.518  68.392  1.00  0.00    -0.316 C  
ENDBRANCH  11  12
BRANCH  11  16
HETATM   16  C   UNL     4      -9.196  13.707  66.391  1.00  0.00    -0.122 C  
HETATM   17  C   UNL     4      -8.097  13.654  67.493  1.00  0.00    -0.184 C  
HETATM   18  O   UNL     4      -6.922  13.897  67.094  1.00  0.00    -0.125 OA 
HETATM   19  O   UNL     4      -8.604  13.664  68.678  1.00  0.00    -0.134 OA 
ENDBRANCH  11  16
ENDBRANCH  10  11
ENDBRANCH   9  10
ENDBRANCH   8   9
BRANCH   8  20
HETATM   20  C   UNL     4      -7.030  17.153  67.598  1.00  0.00    -0.142 C  
HETATM   21  C   UNL     4      -6.466  18.627  67.596  1.00  0.00    -0.205 C  
HETATM   22  O   UNL     4      -5.378  18.774  68.228  1.00  0.00    -0.177 OA 
HETATM   23  O   UNL     4      -7.133  19.524  66.975  1.00  0.00    -0.202 OA 
ENDBRANCH   8  20
ENDBRANCH   7   8
TORSDOF 7
ENDMDL
MODEL      213
REMARK 921   NORMALIZED FREE ENERGY PREDICTED BY IDOCK:   -3.75 KCAL/MOL
REMARK 922        TOTAL FREE ENERGY PREDICTED BY IDOCK:   -6.73 KCAL/MOL
REMARK 923 INTER-LIGAND FREE ENERGY PREDICTED BY IDOCK:   -5.91 KCAL/MOL
REMARK 924 INTRA-LIGAND FREE ENERGY PREDICTED BY IDOCK:   -0.81 KCAL/MOL
REMARK 927      BINDING AFFINITY PREDICTED BY RF-SCORE:    0.00 PKD
ROOT
HETATM    1 NA   UNL     1      -9.527   6.932  67.323  1.00  0.00    -0.125 Na 
HETATM    2 NA   UNL     2      -7.682   8.737  63.505  1.00  0.00    -0.100 Na 
HETATM    3 CA   UNL     3      -7.693  11.083  70.416  1.00  0.00    -0.342 Ca 
HETATM    4  O   UNL     4     -10.276   8.475  66.207  1.00  0.00    -0.237 OA 
HETATM    5  C   UNL     4      -9.709   9.507  65.743  1.00  0.00    -0.287 C  
HETATM    6  O   UNL     4      -8.639   9.440  65.046  1.00  0.00    -0.150 OA 
HETATM    7  C   UNL     4     -10.260  10.927  65.978  1.00  0.00    -0.254 C  
ENDROOT
BRANCH   7   8
HETATM    8  N   UNL     4     -11.213  11.155  67.099  1.00  0.00    -0.371 NA 
BRANCH   8   9
HETATM    9  C   UNL     4     -11.434  10.092  68.085  1.00  0.00     0.041 C  
BRANCH   9  10
HETATM   10  C   UNL     4     -10.567  10.108  69.345  1.00  0.00    -0.237 C  
BRANCH  10  11
HETATM   11  N   UNL     4     -10.826   8.976  70.269  1.00  0.00    -0.232 NA 
BRANCH  11  12
HETATM   12  C   UNL     4      -9.706   7.985  70.345  1.00  0.00    -0.178 C  
HETATM   13  O   UNL     4     -10.059   5.682  70.991  1.00  0.00    -0.189 OA 
HETATM   14  O   UNL     4     -11.246   6.574  69.222  1.00  0.00    -0.328 OA 
HETATM   15  C   UNL     4     -10.352   6.567  70.151  1.00  0.00    -0.201 C  
ENDBRANCH  11  12
BRANCH  11  16
HETATM   16  C   UNL     4     -11.122   9.505  71.650  1.00  0.00    -0.266 C  
HETATM   17  C   UNL     4     -12.668   9.429  71.818  1.00  0.00    -0.390 C  
HETATM   18  O   UNL     4     -13.254  10.543  71.932  1.00  0.00    -0.446 OA 
HETATM   19  O   UNL     4     -13.126   8.262  71.516  1.00  0.00    -0.325 OA 
ENDBRANCH  11  16
ENDBRANCH  10  11
ENDBRANCH   9  10
ENDBRANCH   8   9
BRANCH   8  20
HETATM   20  C   UNL     4     -10.730  12.379  67.862  1.00  0.00    -0.220 C  
HETATM   21  C   UNL     4     -11.686  13.634  67.814  1.00  0.00    -0.362 C  
HETATM   22  O   UNL     4     -11.713  14.314  68.883  1.00  0.00    -0.289 OA 
HETATM   23  O   UNL     4     -12.333  13.855  66.733  1.00  0.00    -0.422 OA 
ENDBRANCH   8  20
ENDBRANCH   7   8
TORSDOF 7
ENDMDL
MODEL      214
REMARK 921   NORMALIZED FREE ENERGY PREDICTED BY IDOCK:   -3.74 KCAL/MOL
REMARK 922        TOTAL FREE ENERGY PREDICTED BY IDOCK:   -6.72 KCAL/MOL
REMARK 923 INTER-LIGAND FREE ENERGY PREDICTED BY IDOCK:   -5.81 KCAL/MOL
REMARK 924 INTRA-LIGAND FREE ENERGY PREDICTED BY IDOCK:   -0.91 KCAL/MOL
REMARK 927      BINDING AFFINITY PREDICTED BY RF-SCORE:    0.00 PKD
ROOT
HETATM    1 NA   UNL     1     -13.318  10.418  69.588  1.00  0.00    -0.545 Na 
HETATM    2 NA   UNL     2     -13.837  14.432  71.789  1.00  0.00    -0.310 Na 
HETATM    3 CA   UNL     3     -13.691  12.834  64.670  1.00  0.00    -0.706 Ca 
HETATM    4  O   UNL     4     -11.893  11.860  69.866  1.00  0.00    -0.319 OA 
HETATM    5  C   UNL     4     -11.944  13.113  69.696  1.00  0.00    -0.306 C  
HETATM    6  O   UNL     4     -12.864  13.833  70.215  1.00  0.00    -0.204 OA 
HETATM    7  C   UNL     4     -10.905  13.874  68.849  1.00  0.00    -0.255 C  
ENDROOT
BRANCH   7   8
HETATM    8  N   UNL     4     -10.076  13.115  67.871  1.00  0.00    -0.226 NA 
BRANCH   8   9
HETATM    9  C   UNL     4      -9.549  11.798  68.242  1.00  0.00    -0.199 C  
BRANCH   9  10
HETATM   10  C   UNL     4      -8.254  11.342  67.568  1.00  0.00    -0.124 C  
BRANCH  10  11
HETATM   11  N   UNL     4      -8.424  10.175  66.665  1.00  0.00    -0.126 NA 
BRANCH  11  12
HETATM   12  C   UNL     4      -8.087  10.463  65.234  1.00  0.00    -0.152 C  
HETATM   13  O   UNL     4      -8.768   9.004  63.430  1.00  0.00    -0.183 OA 
HETATM   14  O   UNL     4     -10.353   9.865  64.870  1.00  0.00    -0.058 OA 
HETATM   15  C   UNL     4      -9.174   9.733  64.367  1.00  0.00    -0.245 C  
ENDBRANCH  11  12
BRANCH  11  16
HETATM   16  C   UNL     4      -7.581   9.026  67.157  1.00  0.00    -0.091 C  
HETATM   17  C   UNL     4      -8.546   8.094  67.948  1.00  0.00    -0.132 C  
HETATM   18  O   UNL     4      -8.309   7.997  69.186  1.00  0.00    -0.128 OA 
HETATM   19  O   UNL     4      -9.604   7.809  67.267  1.00  0.00    -0.146 OA 
ENDBRANCH  11  16
ENDBRANCH  10  11
ENDBRANCH   9  10
ENDBRANCH   8   9
BRANCH   8  20
HETATM   20  C   UNL     4     -10.917  12.925  66.618  1.00  0.00    -0.276 C  
HETATM   21  C   UNL     4     -10.462  13.759  65.358  1.00  0.00    -0.331 C  
HETATM   22  O   UNL     4     -10.619  13.164  64.250  1.00  0.00    -0.403 OA 
HETATM   23  O   UNL     4      -9.988  14.931  65.553  1.00  0.00    -0.341 OA 
ENDBRANCH   8  20
ENDBRANCH   7   8
TORSDOF 7
ENDMDL
MODEL      215
REMARK 921   NORMALIZED FREE ENERGY PREDICTED BY IDOCK:   -3.73 KCAL/MOL
REMARK 922        TOTAL FREE ENERGY PREDICTED BY IDOCK:   -6.69 KCAL/MOL
REMARK 923 INTER-LIGAND FREE ENERGY PREDICTED BY IDOCK:   -5.98 KCAL/MOL
REMARK 924 INTRA-LIGAND FREE ENERGY PREDICTED BY IDOCK:   -0.72 KCAL/MOL
REMARK 927      BINDING AFFINITY PREDICTED BY RF-SCORE:    0.00 PKD
ROOT
HETATM    1 NA   UNL     1     -12.351  11.703  66.308  1.00  0.00    -0.244 Na 
HETATM    2 NA   UNL     2     -13.325  14.290  62.622  1.00  0.00    -0.550 Na 
HETATM    3 CA   UNL     3      -6.993  11.640  65.103  1.00  0.00    -0.306 Ca 
HETATM    4  O   UNL     4     -12.076  13.721  66.116  1.00  0.00    -0.391 OA 
HETATM    5  C   UNL     4     -11.553  14.396  65.182  1.00  0.00    -0.361 C  
HETATM    6  O   UNL     4     -11.916  14.267  63.963  1.00  0.00    -0.403 OA 
HETATM    7  C   UNL     4     -10.436  15.428  65.434  1.00  0.00    -0.402 C  
ENDROOT
BRANCH   7   8
HETATM    8  N   UNL     4      -9.654  15.350  66.700  1.00  0.00    -0.242 NA 
BRANCH   8   9
HETATM    9  C   UNL     4      -8.793  14.189  66.945  1.00  0.00    -0.203 C  
BRANCH   9  10
HETATM   10  C   UNL     4      -8.766  13.618  68.363  1.00  0.00    -0.153 C  
BRANCH  10  11
HETATM   11  N   UNL     4      -9.585  12.392  68.536  1.00  0.00    -0.166 NA 
BRANCH  11  12
HETATM   12  C   UNL     4     -11.036  12.663  68.793  1.00  0.00    -0.249 C  
HETATM   13  O   UNL     4     -12.686  10.898  68.869  1.00  0.00    -0.200 OA 
HETATM   14  O   UNL     4     -10.839  10.804  70.252  1.00  0.00    -0.199 OA 
HETATM   15  C   UNL     4     -11.636  11.342  69.392  1.00  0.00    -0.321 C  
ENDBRANCH  11  12
BRANCH  11  16
HETATM   16  C   UNL     4      -9.448  11.514  67.317  1.00  0.00    -0.169 C  
HETATM   17  C   UNL     4      -8.268  10.544  67.618  1.00  0.00    -0.111 C  
HETATM   18  O   UNL     4      -7.253  10.682  66.877  1.00  0.00    -0.099 OA 
HETATM   19  O   UNL     4      -8.404   9.961  68.760  1.00  0.00    -0.107 OA 
ENDBRANCH  11  16
ENDBRANCH  10  11
ENDBRANCH   9  10
ENDBRANCH   8   9
BRANCH   8  20
HETATM   20  C   UNL     4      -8.769  16.585  66.760  1.00  0.00    -0.226 C  
HETATM   21  C   UNL     4      -9.483  17.915  67.221  1.00  0.00    -0.263 C  
HETATM   22  O   UNL     4      -8.759  18.685  67.920  1.00  0.00    -0.278 OA 
HETATM   23  O   UNL     4     -10.696  18.102  66.860  1.00  0.00    -0.337 OA 
ENDBRANCH   8  20
ENDBRANCH   7   8
TORSDOF 7
ENDMDL
MODEL      216
REMARK 921   NORMALIZED FREE ENERGY PREDICTED BY IDOCK:   -3.72 KCAL/MOL
REMARK 922        TOTAL FREE ENERGY PREDICTED BY IDOCK:   -6.68 KCAL/MOL
REMARK 923 INTER-LIGAND FREE ENERGY PREDICTED BY IDOCK:   -6.12 KCAL/MOL
REMARK 924 INTRA-LIGAND FREE ENERGY PREDICTED BY IDOCK:   -0.56 KCAL/MOL
REMARK 927      BINDING AFFINITY PREDICTED BY RF-SCORE:    0.00 PKD
ROOT
HETATM    1 NA   UNL     1     -12.786  11.703  69.100  1.00  0.00    -0.247 Na 
HETATM    2 NA   UNL     2     -13.603  13.511  64.941  1.00  0.00    -0.686 Na 
HETATM    3 CA   UNL     3     -12.169   6.661  67.012  1.00  0.00    -0.696 Ca 
HETATM    4  O   UNL     4     -11.401  12.154  67.663  1.00  0.00    -0.271 OA 
HETATM    5  C   UNL     4     -11.387  11.899  66.423  1.00  0.00    -0.339 C  
HETATM    6  O   UNL     4     -12.369  12.189  65.657  1.00  0.00    -0.560 OA 
HETATM    7  C   UNL     4     -10.188  11.217  65.735  1.00  0.00    -0.257 C  
ENDROOT
BRANCH   7   8
HETATM    8  N   UNL     4      -9.211  10.462  66.568  1.00  0.00    -0.158 NA 
BRANCH   8   9
HETATM    9  C   UNL     4      -9.516   9.085  66.967  1.00  0.00    -0.163 C  
BRANCH   9  10
HETATM   10  C   UNL     4     -10.296   8.883  68.268  1.00  0.00    -0.206 C  
BRANCH  10  11
HETATM   11  N   UNL     4      -9.648   7.946  69.219  1.00  0.00    -0.156 NA 
BRANCH  11  12
HETATM   12  C   UNL     4      -9.830   6.502  68.867  1.00  0.00    -0.134 C  
HETATM   13  O   UNL     4     -10.335   4.820  70.529  1.00  0.00    -0.218 OA 
HETATM   14  O   UNL     4     -11.700   6.669  70.315  1.00  0.00    -0.389 OA 
HETATM   15  C   UNL     4     -10.734   5.880  69.990  1.00  0.00    -0.326 C  
ENDBRANCH  11  12
BRANCH  11  16
HETATM   16  C   UNL     4      -8.176   8.257  69.316  1.00  0.00    -0.118 C  
HETATM   17  C   UNL     4      -8.049   9.417  70.347  1.00  0.00    -0.175 C  
HETATM   18  O   UNL     4      -7.624  10.512  69.878  1.00  0.00    -0.146 OA 
HETATM   19  O   UNL     4      -8.677   9.156  71.443  1.00  0.00    -0.309 OA 
ENDBRANCH  11  16
ENDBRANCH  10  11
ENDBRANCH   9  10
ENDBRANCH   8   9
BRANCH   8  20
HETATM   20  C   UNL     4      -7.897  10.426  65.803  1.00  0.00    -0.150 C  
HETATM   21  C   UNL     4      -7.973   9.820  64.347  1.00  0.00    -0.145 C  
HETATM   22  O   UNL     4      -7.204  10.375  63.507  1.00  0.00    -0.113 OA 
HETATM   23  O   UNL     4      -8.779   8.848  64.142  1.00  0.00    -0.158 OA 
ENDBRANCH   8  20
ENDBRANCH   7   8
TORSDOF 7
ENDMDL
MODEL      217
REMARK 921   NORMALIZED FREE ENERGY PREDICTED BY IDOCK:   -3.71 KCAL/MOL
REMARK 922        TOTAL FREE ENERGY PREDICTED BY IDOCK:   -6.67 KCAL/MOL
REMARK 923 INTER-LIGAND FREE ENERGY PREDICTED BY IDOCK:   -6.45 KCAL/MOL
REMARK 924 INTRA-LIGAND FREE ENERGY PREDICTED BY IDOCK:   -0.23 KCAL/MOL
REMARK 927      BINDING AFFINITY PREDICTED BY RF-SCORE:    0.00 PKD
ROOT
HETATM    1 NA   UNL     1      -7.059   8.686  70.344  1.00  0.00    -0.037 Na 
HETATM    2 NA   UNL     2      -9.973   6.260  72.963  1.00  0.00    -0.159 Na 
HETATM    3 CA   UNL     3     -10.136   7.924  65.859  1.00  0.00    -0.370 Ca 
HETATM    4  O   UNL     4      -8.846   9.324  71.109  1.00  0.00    -0.257 OA 
HETATM    5  C   UNL     4      -9.984   8.770  71.118  1.00  0.00    -0.248 C  
HETATM    6  O   UNL     4     -10.157   7.577  71.543  1.00  0.00    -0.182 OA 
HETATM    7  C   UNL     4     -11.254   9.485  70.615  1.00  0.00    -0.302 C  
ENDROOT
BRANCH   7   8
HETATM    8  N   UNL     4     -11.110  10.668  69.722  1.00  0.00    -0.277 NA 
BRANCH   8   9
HETATM    9  C   UNL     4     -11.463  10.547  68.304  1.00  0.00    -0.199 C  
BRANCH   9  10
HETATM   10  C   UNL     4     -10.350  10.770  67.278  1.00  0.00    -0.220 C  
BRANCH  10  11
HETATM   11  N   UNL     4     -10.711  11.718  66.194  1.00  0.00    -0.267 NA 
BRANCH  11  12
HETATM   12  C   UNL     4     -11.289  13.009  66.685  1.00  0.00    -0.325 C  
HETATM   13  O   UNL     4     -12.236  14.653  65.186  1.00  0.00    -0.356 OA 
HETATM   14  O   UNL     4     -13.033  12.486  65.166  1.00  0.00    -0.700 OA 
HETATM   15  C   UNL     4     -12.327  13.473  65.602  1.00  0.00    -0.476 C  
ENDBRANCH  11  12
BRANCH  11  16
HETATM   16  C   UNL     4      -9.497  12.003  65.345  1.00  0.00    -0.066 C  
HETATM   17  C   UNL     4      -9.575  11.017  64.142  1.00  0.00    -0.266 C  
HETATM   18  O   UNL     4      -8.650  10.156  64.090  1.00  0.00    -0.163 OA 
HETATM   19  O   UNL     4     -10.728  11.052  63.566  1.00  0.00    -0.329 OA 
ENDBRANCH  11  16
ENDBRANCH  10  11
ENDBRANCH   9  10
ENDBRANCH   8   9
BRANCH   8  20
HETATM   20  C   UNL     4     -11.969  11.780  70.303  1.00  0.00    -0.343 C  
HETATM   21  C   UNL     4     -13.102  11.318  71.300  1.00  0.00    -0.219 C  
HETATM   22  O   UNL     4     -13.318  12.119  72.257  1.00  0.00    -0.500 OA 
HETATM   23  O   UNL     4     -13.690  10.206  71.066  1.00  0.00    -0.189 OA 
ENDBRANCH   8  20
ENDBRANCH   7   8
TORSDOF 7
ENDMDL
MODEL      218
REMARK 921   NORMALIZED FREE ENERGY PREDICTED BY IDOCK:   -3.71 KCAL/MOL
REMARK 922        TOTAL FREE ENERGY PREDICTED BY IDOCK:   -6.67 KCAL/MOL
REMARK 923 INTER-LIGAND FREE ENERGY PREDICTED BY IDOCK:   -5.78 KCAL/MOL
REMARK 924 INTRA-LIGAND FREE ENERGY PREDICTED BY IDOCK:   -0.89 KCAL/MOL
REMARK 927      BINDING AFFINITY PREDICTED BY RF-SCORE:    0.00 PKD
ROOT
HETATM    1 NA   UNL     1     -10.443  10.521  71.155  1.00  0.00    -0.318 Na 
HETATM    2 NA   UNL     2      -6.838   7.733  70.472  1.00  0.00    -0.039 Na 
HETATM    3 CA   UNL     3      -7.393  15.009  70.302  1.00  0.00    -0.178 Ca 
HETATM    4  O   UNL     4      -9.631   9.981  69.356  1.00  0.00    -0.197 OA 
HETATM    5  C   UNL     4      -8.427   9.954  68.971  1.00  0.00    -0.136 C  
HETATM    6  O   UNL     4      -7.512   9.354  69.634  1.00  0.00    -0.070 OA 
HETATM    7  C   UNL     4      -7.960  10.641  67.672  1.00  0.00    -0.106 C  
ENDROOT
BRANCH   7   8
HETATM    8  N   UNL     4      -8.815  11.702  67.070  1.00  0.00    -0.171 NA 
BRANCH   8   9
HETATM    9  C   UNL     4      -8.417  13.108  67.199  1.00  0.00    -0.169 C  
BRANCH   9  10
HETATM   10  C   UNL     4      -9.505  14.168  67.021  1.00  0.00    -0.251 C  
BRANCH  10  11
HETATM   11  N   UNL     4     -10.789  13.831  67.684  1.00  0.00    -0.252 NA 
BRANCH  11  12
HETATM   12  C   UNL     4     -10.933  14.412  69.058  1.00  0.00    -0.256 C  
HETATM   13  O   UNL     4     -13.006  14.297  70.298  1.00  0.00    -0.261 OA 
HETATM   14  O   UNL     4     -12.030  12.359  69.510  1.00  0.00    -0.298 OA 
HETATM   15  C   UNL     4     -12.098  13.623  69.754  1.00  0.00    -0.334 C  
ENDBRANCH  11  12
BRANCH  11  16
HETATM   16  C   UNL     4     -11.940  14.288  66.823  1.00  0.00    -0.436 C  
HETATM   17  C   UNL     4     -12.168  13.157  65.777  1.00  0.00    -0.456 C  
HETATM   18  O   UNL     4     -11.942  13.480  64.576  1.00  0.00    -0.376 OA 
HETATM   19  O   UNL     4     -12.264  11.999  66.335  1.00  0.00    -0.551 OA 
ENDBRANCH  11  16
ENDBRANCH  10  11
ENDBRANCH   9  10
ENDBRANCH   8   9
BRANCH   8  20
HETATM   20  C   UNL     4      -8.926  11.404  65.583  1.00  0.00    -0.123 C  
HETATM   21  C   UNL     4      -9.958  10.276  65.189  1.00  0.00    -0.325 C  
HETATM   22  O   UNL     4     -10.565  10.478  64.096  1.00  0.00    -0.177 OA 
HETATM   23  O   UNL     4     -10.091   9.281  65.982  1.00  0.00    -0.297 OA 
ENDBRANCH   8  20
ENDBRANCH   7   8
TORSDOF 7
ENDMDL
MODEL      219
REMARK 921   NORMALIZED FREE ENERGY PREDICTED BY IDOCK:   -3.71 KCAL/MOL
REMARK 922        TOTAL FREE ENERGY PREDICTED BY IDOCK:   -6.67 KCAL/MOL
REMARK 923 INTER-LIGAND FREE ENERGY PREDICTED BY IDOCK:   -6.48 KCAL/MOL
REMARK 924 INTRA-LIGAND FREE ENERGY PREDICTED BY IDOCK:   -0.19 KCAL/MOL
REMARK 927      BINDING AFFINITY PREDICTED BY RF-SCORE:    0.00 PKD
ROOT
HETATM    1 NA   UNL     1     -11.837  15.463  68.393  1.00  0.00    -0.283 Na 
HETATM    2 NA   UNL     2      -7.334  15.866  67.500  1.00  0.00    -0.106 Na 
HETATM    3 CA   UNL     3     -13.012  14.562  63.104  1.00  0.00    -0.854 Ca 
HETATM    4  O   UNL     4     -10.509  13.942  68.057  1.00  0.00    -0.234 OA 
HETATM    5  C   UNL     4      -9.636  13.795  67.154  1.00  0.00    -0.244 C  
HETATM    6  O   UNL     4      -8.765  14.695  66.896  1.00  0.00    -0.225 OA 
HETATM    7  C   UNL     4      -9.548  12.522  66.290  1.00  0.00    -0.245 C  
ENDROOT
BRANCH   7   8
HETATM    8  N   UNL     4     -10.736  11.627  66.202  1.00  0.00    -0.269 NA 
BRANCH   8   9
HETATM    9  C   UNL     4     -11.365  11.141  67.434  1.00  0.00    -0.255 C  
BRANCH   9  10
HETATM   10  C   UNL     4     -10.944   9.762  67.945  1.00  0.00    -0.188 C  
BRANCH  10  11
HETATM   11  N   UNL     4     -10.120   9.803  69.180  1.00  0.00    -0.181 NA 
BRANCH  11  12
HETATM   12  C   UNL     4      -8.772  10.425  68.990  1.00  0.00    -0.168 C  
HETATM   13  O   UNL     4      -6.744   9.111  68.892  1.00  0.00    -0.051 OA 
HETATM   14  O   UNL     4      -8.480   8.656  67.438  1.00  0.00    -0.121 OA 
HETATM   15  C   UNL     4      -7.858   9.320  68.351  1.00  0.00    -0.094 C  
ENDBRANCH  11  12
BRANCH  11  16
HETATM   16  C   UNL     4     -10.866  10.541  70.263  1.00  0.00    -0.174 C  
HETATM   17  C   UNL     4     -11.828   9.500  70.908  1.00  0.00    -0.309 C  
HETATM   18  O   UNL     4     -13.060   9.734  70.751  1.00  0.00    -0.261 OA 
HETATM   19  O   UNL     4     -11.211   8.418  71.241  1.00  0.00    -0.243 OA 
ENDBRANCH  11  16
ENDBRANCH  10  11
ENDBRANCH   9  10
ENDBRANCH   8   9
BRANCH   8  20
HETATM   20  C   UNL     4     -11.805  12.370  65.416  1.00  0.00    -0.406 C  
HETATM   21  C   UNL     4     -11.907  12.000  63.885  1.00  0.00    -0.448 C  
HETATM   22  O   UNL     4     -13.085  12.011  63.420  1.00  0.00    -0.747 OA 
HETATM   23  O   UNL     4     -10.825  11.730  63.259  1.00  0.00    -0.374 OA 
ENDBRANCH   8  20
ENDBRANCH   7   8
TORSDOF 7
ENDMDL
MODEL      220
REMARK 921   NORMALIZED FREE ENERGY PREDICTED BY IDOCK:   -3.70 KCAL/MOL
REMARK 922        TOTAL FREE ENERGY PREDICTED BY IDOCK:   -6.66 KCAL/MOL
REMARK 923 INTER-LIGAND FREE ENERGY PREDICTED BY IDOCK:   -6.49 KCAL/MOL
REMARK 924 INTRA-LIGAND FREE ENERGY PREDICTED BY IDOCK:   -0.17 KCAL/MOL
REMARK 927      BINDING AFFINITY PREDICTED BY RF-SCORE:    0.00 PKD
ROOT
HETATM    1 NA   UNL     1     -11.297  16.155  66.771  1.00  0.00    -0.295 Na 
HETATM    2 NA   UNL     2      -7.416  16.090  69.254  1.00  0.00    -0.145 Na 
HETATM    3 CA   UNL     3      -9.353  12.408  63.258  1.00  0.00    -0.459 Ca 
HETATM    4  O   UNL     4     -10.737  14.740  68.140  1.00  0.00    -0.240 OA 
HETATM    5  C   UNL     4      -9.639  14.130  68.292  1.00  0.00    -0.226 C  
HETATM    6  O   UNL     4      -8.523  14.749  68.382  1.00  0.00    -0.144 OA 
HETATM    7  C   UNL     4      -9.553  12.594  68.380  1.00  0.00    -0.173 C  
ENDROOT
BRANCH   7   8
HETATM    8  N   UNL     4     -10.687  11.777  67.865  1.00  0.00    -0.197 NA 
BRANCH   8   9
HETATM    9  C   UNL     4     -11.558  11.075  68.812  1.00  0.00    -0.318 C  
BRANCH   9  10
HETATM   10  C   UNL     4     -11.251   9.604  69.096  1.00  0.00    -0.019 C  
BRANCH  10  11
HETATM   11  N   UNL     4     -10.956   9.314  70.522  1.00  0.00    -0.248 NA 
BRANCH  11  12
HETATM   12  C   UNL     4      -9.538   9.591  70.917  1.00  0.00    -0.146 C  
HETATM   13  O   UNL     4      -8.525   8.599  72.876  1.00  0.00    -0.403 OA 
HETATM   14  O   UNL     4      -9.466   7.246  71.259  1.00  0.00    -0.156 OA 
HETATM   15  C   UNL     4      -9.065   8.360  71.769  1.00  0.00    -0.218 C  
ENDBRANCH  11  12
BRANCH  11  16
HETATM   16  C   UNL     4     -11.886  10.108  71.404  1.00  0.00    -0.328 C  
HETATM   17  C   UNL     4     -12.926   9.089  71.958  1.00  0.00    -0.407 C  
HETATM   18  O   UNL     4     -14.117   9.274  71.579  1.00  0.00    -0.277 OA 
HETATM   19  O   UNL     4     -12.356   8.053  72.473  1.00  0.00    -0.289 OA 
ENDBRANCH  11  16
ENDBRANCH  10  11
ENDBRANCH   9  10
ENDBRANCH   8   9
BRANCH   8  20
HETATM   20  C   UNL     4     -11.572  12.701  67.042  1.00  0.00    -0.365 C  
HETATM   21  C   UNL     4     -11.780  12.282  65.535  1.00  0.00    -0.377 C  
HETATM   22  O   UNL     4     -12.933  12.536  65.074  1.00  0.00    -0.779 OA 
HETATM   23  O   UNL     4     -10.798  11.740  64.921  1.00  0.00    -0.283 OA 
ENDBRANCH   8  20
ENDBRANCH   7   8
TORSDOF 7
ENDMDL
MODEL      221
REMARK 921   NORMALIZED FREE ENERGY PREDICTED BY IDOCK:   -3.70 KCAL/MOL
REMARK 922        TOTAL FREE ENERGY PREDICTED BY IDOCK:   -6.65 KCAL/MOL
REMARK 923 INTER-LIGAND FREE ENERGY PREDICTED BY IDOCK:   -6.02 KCAL/MOL
REMARK 924 INTRA-LIGAND FREE ENERGY PREDICTED BY IDOCK:   -0.63 KCAL/MOL
REMARK 927      BINDING AFFINITY PREDICTED BY RF-SCORE:    0.00 PKD
ROOT
HETATM    1 NA   UNL     1      -8.181   9.567  71.468  1.00  0.00    -0.144 Na 
HETATM    2 NA   UNL     2     -11.700   6.689  70.712  1.00  0.00    -0.253 Na 
HETATM    3 CA   UNL     3      -5.834   8.280  66.672  1.00  0.00    -0.035 Ca 
HETATM    4  O   UNL     4      -9.799   9.895  70.258  1.00  0.00    -0.253 OA 
HETATM    5  C   UNL     4     -10.337   9.155  69.383  1.00  0.00    -0.216 C  
HETATM    6  O   UNL     4     -10.688   7.951  69.632  1.00  0.00    -0.244 OA 
HETATM    7  C   UNL     4     -10.612   9.642  67.947  1.00  0.00    -0.255 C  
ENDROOT
BRANCH   7   8
HETATM    8  N   UNL     4      -9.874  10.829  67.433  1.00  0.00    -0.174 NA 
BRANCH   8   9
HETATM    9  C   UNL     4     -10.276  12.171  67.867  1.00  0.00    -0.198 C  
BRANCH   9  10
HETATM   10  C   UNL     4     -11.428  12.840  67.116  1.00  0.00    -0.337 C  
BRANCH  10  11
HETATM   11  N   UNL     4     -10.992  13.856  66.125  1.00  0.00    -0.292 NA 
BRANCH  11  12
HETATM   12  C   UNL     4      -9.630  14.418  66.392  1.00  0.00    -0.299 C  
HETATM   13  O   UNL     4      -9.023  16.678  65.782  1.00  0.00    -0.498 OA 
HETATM   14  O   UNL     4     -10.858  16.306  67.134  1.00  0.00    -0.290 OA 
HETATM   15  C   UNL     4      -9.801  15.977  66.474  1.00  0.00    -0.267 C  
ENDBRANCH  11  12
BRANCH  11  16
HETATM   16  C   UNL     4     -11.027  13.261  64.739  1.00  0.00    -0.350 C  
HETATM   17  C   UNL     4     -12.512  13.340  64.276  1.00  0.00    -0.269 C  
HETATM   18  O   UNL     4     -13.083  12.225  64.104  1.00  0.00    -0.749 OA 
HETATM   19  O   UNL     4     -13.002  14.523  64.430  1.00  0.00    -0.510 OA 
ENDBRANCH  11  16
ENDBRANCH  10  11
ENDBRANCH   9  10
ENDBRANCH   8   9
BRANCH   8  20
HETATM   20  C   UNL     4      -8.413  10.654  67.817  1.00  0.00    -0.116 C  
HETATM   21  C   UNL     4      -7.446  10.226  66.646  1.00  0.00    -0.110 C  
HETATM   22  O   UNL     4      -6.285  10.729  66.713  1.00  0.00    -0.067 OA 
HETATM   23  O   UNL     4      -7.899   9.430  65.753  1.00  0.00    -0.097 OA 
ENDBRANCH   8  20
ENDBRANCH   7   8
TORSDOF 7
ENDMDL
MODEL      222
REMARK 921   NORMALIZED FREE ENERGY PREDICTED BY IDOCK:   -3.69 KCAL/MOL
REMARK 922        TOTAL FREE ENERGY PREDICTED BY IDOCK:   -6.64 KCAL/MOL
REMARK 923 INTER-LIGAND FREE ENERGY PREDICTED BY IDOCK:   -6.91 KCAL/MOL
REMARK 924 INTRA-LIGAND FREE ENERGY PREDICTED BY IDOCK:    0.27 KCAL/MOL
REMARK 927      BINDING AFFINITY PREDICTED BY RF-SCORE:    0.00 PKD
ROOT
HETATM    1 NA   UNL     1     -11.264  10.421  63.962  1.00  0.00    -0.420 Na 
HETATM    2 NA   UNL     2      -7.282   8.407  65.113  1.00  0.00    -0.068 Na 
HETATM    3 CA   UNL     3     -13.005  10.417  69.172  1.00  0.00    -0.551 Ca 
HETATM    4  O   UNL     4      -9.633  11.319  64.812  1.00  0.00    -0.235 OA 
HETATM    5  C   UNL     4      -8.919  10.968  65.796  1.00  0.00    -0.195 C  
HETATM    6  O   UNL     4      -8.399   9.803  65.879  1.00  0.00    -0.121 OA 
HETATM    7  C   UNL     4      -8.618  11.914  66.976  1.00  0.00    -0.176 C  
ENDROOT
BRANCH   7   8
HETATM    8  N   UNL     4      -9.496  13.096  67.195  1.00  0.00    -0.230 NA 
BRANCH   8   9
HETATM    9  C   UNL     4      -8.891  14.421  67.364  1.00  0.00    -0.203 C  
BRANCH   9  10
HETATM   10  C   UNL     4      -8.711  15.279  66.110  1.00  0.00    -0.025 C  
BRANCH  10  11
HETATM   11  N   UNL     4      -8.678  16.739  66.377  1.00  0.00    -0.280 NA 
BRANCH  11  12
HETATM   12  C   UNL     4      -9.824  17.229  67.208  1.00  0.00    -0.267 C  
HETATM   13  O   UNL     4     -10.548  19.536  67.177  1.00  0.00    -0.439 OA 
HETATM   14  O   UNL     4     -10.441  18.339  65.205  1.00  0.00    -0.492 OA 
HETATM   15  C   UNL     4     -10.386  18.503  66.482  1.00  0.00    -0.414 C  
ENDBRANCH  11  12
BRANCH  11  16
HETATM   16  C   UNL     4      -7.379  17.103  67.051  1.00  0.00    -0.181 C  
HETATM   17  C   UNL     4      -6.553  17.891  65.992  1.00  0.00    -0.281 C  
HETATM   18  O   UNL     4      -5.488  17.328  65.609  1.00  0.00    -0.171 OA 
HETATM   19  O   UNL     4      -7.238  18.847  65.462  1.00  0.00    -0.485 OA 
ENDBRANCH  11  16
ENDBRANCH  10  11
ENDBRANCH   9  10
ENDBRANCH   8   9
BRANCH   8  20
HETATM   20  C   UNL     4     -10.441  13.184  66.007  1.00  0.00    -0.284 C  
HETATM   21  C   UNL     4     -11.959  12.883  66.319  1.00  0.00    -0.408 C  
HETATM   22  O   UNL     4     -12.780  13.576  65.649  1.00  0.00    -0.480 OA 
HETATM   23  O   UNL     4     -12.226  11.990  67.195  1.00  0.00    -0.505 OA 
ENDBRANCH   8  20
ENDBRANCH   7   8
TORSDOF 7
ENDMDL
MODEL      223
REMARK 921   NORMALIZED FREE ENERGY PREDICTED BY IDOCK:   -3.68 KCAL/MOL
REMARK 922        TOTAL FREE ENERGY PREDICTED BY IDOCK:   -6.63 KCAL/MOL
REMARK 923 INTER-LIGAND FREE ENERGY PREDICTED BY IDOCK:   -5.81 KCAL/MOL
REMARK 924 INTRA-LIGAND FREE ENERGY PREDICTED BY IDOCK:   -0.82 KCAL/MOL
REMARK 927      BINDING AFFINITY PREDICTED BY RF-SCORE:    0.00 PKD
ROOT
HETATM    1 NA   UNL     1      -9.338  13.174  65.512  1.00  0.00    -0.349 Na 
HETATM    2 NA   UNL     2     -11.509  16.780  67.387  1.00  0.00    -0.242 Na 
HETATM    3 CA   UNL     3      -7.366  11.571  70.381  1.00  0.00    -0.351 Ca 
HETATM    4  O   UNL     4     -11.106  13.144  66.543  1.00  0.00    -0.285 OA 
HETATM    5  C   UNL     4     -11.425  13.677  67.646  1.00  0.00    -0.325 C  
HETATM    6  O   UNL     4     -11.236  14.919  67.882  1.00  0.00    -0.290 OA 
HETATM    7  C   UNL     4     -12.067  12.874  68.794  1.00  0.00    -0.139 C  
ENDROOT
BRANCH   7   8
HETATM    8  N   UNL     4     -11.934  11.390  68.800  1.00  0.00    -0.487 NA 
BRANCH   8   9
HETATM    9  C   UNL     4     -11.074  10.740  67.806  1.00  0.00    -0.318 C  
BRANCH   9  10
HETATM   10  C   UNL     4      -9.639  10.413  68.223  1.00  0.00    -0.144 C  
BRANCH  10  11
HETATM   11  N   UNL     4      -9.312   8.965  68.174  1.00  0.00    -0.142 NA 
BRANCH  11  12
HETATM   12  C   UNL     4      -9.252   8.404  66.787  1.00  0.00    -0.171 C  
HETATM   13  O   UNL     4      -9.058   6.031  66.361  1.00  0.00    -0.143 OA 
HETATM   14  O   UNL     4     -10.797   6.829  67.654  1.00  0.00    -0.255 OA 
HETATM   15  C   UNL     4      -9.769   6.924  66.883  1.00  0.00    -0.171 C  
ENDBRANCH  11  12
BRANCH  11  16
HETATM   16  C   UNL     4      -8.000   8.717  68.874  1.00  0.00    -0.105 C  
HETATM   17  C   UNL     4      -8.345   8.535  70.381  1.00  0.00    -0.124 C  
HETATM   18  O   UNL     4      -7.886   9.426  71.151  1.00  0.00    -0.325 OA 
HETATM   19  O   UNL     4      -9.287   7.672  70.557  1.00  0.00    -0.163 OA 
ENDBRANCH  11  16
ENDBRANCH  10  11
ENDBRANCH   9  10
ENDBRANCH   8   9
BRANCH   8  20
HETATM   20  C   UNL     4     -11.416  10.988  70.172  1.00  0.00    -0.296 C  
HETATM   21  C   UNL     4     -12.357  10.032  71.004  1.00  0.00    -0.360 C  
HETATM   22  O   UNL     4     -11.745   9.179  71.713  1.00  0.00    -0.346 OA 
HETATM   23  O   UNL     4     -13.621  10.193  70.897  1.00  0.00    -0.274 OA 
ENDBRANCH   8  20
ENDBRANCH   7   8
TORSDOF 7
ENDMDL
MODEL      224
REMARK 921   NORMALIZED FREE ENERGY PREDICTED BY IDOCK:   -3.67 KCAL/MOL
REMARK 922        TOTAL FREE ENERGY PREDICTED BY IDOCK:   -6.62 KCAL/MOL
REMARK 923 INTER-LIGAND FREE ENERGY PREDICTED BY IDOCK:   -5.41 KCAL/MOL
REMARK 924 INTRA-LIGAND FREE ENERGY PREDICTED BY IDOCK:   -1.20 KCAL/MOL
REMARK 927      BINDING AFFINITY PREDICTED BY RF-SCORE:    0.00 PKD
ROOT
HETATM    1 NA   UNL     1     -12.347   6.590  68.593  1.00  0.00    -0.514 Na 
HETATM    2 NA   UNL     2     -14.159   5.610  72.715  1.00  0.00    -0.545 Na 
HETATM    3 CA   UNL     3     -10.781  11.589  70.244  1.00  0.00    -0.431 Ca 
HETATM    4  O   UNL     4     -11.332   6.032  70.280  1.00  0.00    -0.353 OA 
HETATM    5  C   UNL     4     -11.426   6.444  71.473  1.00  0.00    -0.306 C  
HETATM    6  O   UNL     4     -12.546   6.498  72.088  1.00  0.00    -0.269 OA 
HETATM    7  C   UNL     4     -10.202   6.917  72.281  1.00  0.00    -0.186 C  
ENDROOT
BRANCH   7   8
HETATM    8  N   UNL     4      -8.961   7.303  71.553  1.00  0.00    -0.130 NA 
BRANCH   8   9
HETATM    9  C   UNL     4      -9.061   7.823  70.185  1.00  0.00    -0.153 C  
BRANCH   9  10
HETATM   10  C   UNL     4      -9.618   9.237  70.008  1.00  0.00    -0.209 C  
BRANCH  10  11
HETATM   11  N   UNL     4      -9.176   9.906  68.758  1.00  0.00    -0.142 NA 
BRANCH  11  12
HETATM   12  C   UNL     4      -8.044  10.867  68.953  1.00  0.00    -0.144 C  
HETATM   13  O   UNL     4      -7.472  12.540  67.303  1.00  0.00    -0.150 OA 
HETATM   14  O   UNL     4      -9.617  12.452  68.155  1.00  0.00    -0.208 OA 
HETATM   15  C   UNL     4      -8.373  12.125  68.073  1.00  0.00    -0.167 C  
ENDBRANCH  11  12
BRANCH  11  16
HETATM   16  C   UNL     4      -8.783   8.867  67.738  1.00  0.00    -0.125 C  
HETATM   17  C   UNL     4     -10.040   8.646  66.845  1.00  0.00    -0.285 C  
HETATM   18  O   UNL     4     -10.555   7.494  66.917  1.00  0.00    -0.332 OA 
HETATM   19  O   UNL     4     -10.521   9.759  66.408  1.00  0.00    -0.204 OA 
ENDBRANCH  11  16
ENDBRANCH  10  11
ENDBRANCH   9  10
ENDBRANCH   8   9
BRANCH   8  20
HETATM   20  C   UNL     4      -8.260   8.364  72.386  1.00  0.00    -0.139 C  
HETATM   21  C   UNL     4      -6.691   8.431  72.225  1.00  0.00    -0.089 C  
HETATM   22  O   UNL     4      -6.206   9.599  72.288  1.00  0.00    -0.289 OA 
HETATM   23  O   UNL     4      -6.058   7.332  72.052  1.00  0.00    -0.040 OA 
ENDBRANCH   8  20
ENDBRANCH   7   8
TORSDOF 7
ENDMDL
MODEL      225
REMARK 921   NORMALIZED FREE ENERGY PREDICTED BY IDOCK:   -3.67 KCAL/MOL
REMARK 922        TOTAL FREE ENERGY PREDICTED BY IDOCK:   -6.61 KCAL/MOL
REMARK 923 INTER-LIGAND FREE ENERGY PREDICTED BY IDOCK:   -6.21 KCAL/MOL
REMARK 924 INTRA-LIGAND FREE ENERGY PREDICTED BY IDOCK:   -0.40 KCAL/MOL
REMARK 927      BINDING AFFINITY PREDICTED BY RF-SCORE:    0.00 PKD
ROOT
HETATM    1 NA   UNL     1      -9.473  10.926  70.153  1.00  0.00    -0.387 Na 
HETATM    2 NA   UNL     2      -9.798   6.651  68.463  1.00  0.00    -0.134 Na 
HETATM    3 CA   UNL     3      -5.939  12.427  66.226  1.00  0.00    -0.262 Ca 
HETATM    4  O   UNL     4     -10.569  10.325  68.533  1.00  0.00    -0.190 OA 
HETATM    5  C   UNL     4     -10.253   9.594  67.550  1.00  0.00    -0.220 C  
HETATM    6  O   UNL     4      -9.727   8.439  67.700  1.00  0.00    -0.148 OA 
HETATM    7  C   UNL     4     -10.475  10.036  66.089  1.00  0.00    -0.086 C  
ENDROOT
BRANCH   7   8
HETATM    8  N   UNL     4     -10.664  11.484  65.794  1.00  0.00    -0.273 NA 
BRANCH   8   9
HETATM    9  C   UNL     4      -9.554  12.416  66.020  1.00  0.00    -0.209 C  
BRANCH   9  10
HETATM   10  C   UNL     4      -9.901  13.812  66.539  1.00  0.00    -0.290 C  
BRANCH  10  11
HETATM   11  N   UNL     4      -9.451  14.067  67.930  1.00  0.00    -0.203 NA 
BRANCH  11  12
HETATM   12  C   UNL     4     -10.463  13.700  68.972  1.00  0.00    -0.078 C  
HETATM   13  O   UNL     4     -12.061  15.294  69.838  1.00  0.00    -0.318 OA 
HETATM   14  O   UNL     4     -11.941  14.908  67.565  1.00  0.00    -0.314 OA 
HETATM   15  C   UNL     4     -11.657  14.706  68.806  1.00  0.00    -0.317 C  
ENDBRANCH  11  12
BRANCH  11  16
HETATM   16  C   UNL     4      -8.167  13.321  68.193  1.00  0.00    -0.160 C  
HETATM   17  C   UNL     4      -7.067  14.409  68.370  1.00  0.00    -0.106 C  
HETATM   18  O   UNL     4      -6.166  14.413  67.483  1.00  0.00    -0.315 OA 
HETATM   19  O   UNL     4      -7.417  15.312  69.220  1.00  0.00    -0.167 OA 
ENDBRANCH  11  16
ENDBRANCH  10  11
ENDBRANCH   9  10
ENDBRANCH   8   9
BRANCH   8  20
HETATM   20  C   UNL     4     -11.053  11.599  64.329  1.00  0.00    -0.338 C  
HETATM   21  C   UNL     4     -12.350  12.448  64.032  1.00  0.00    -0.488 C  
HETATM   22  O   UNL     4     -12.305  13.119  62.958  1.00  0.00    -0.584 OA 
HETATM   23  O   UNL     4     -13.311  12.390  64.874  1.00  0.00    -0.623 OA 
ENDBRANCH   8  20
ENDBRANCH   7   8
TORSDOF 7
ENDMDL
MODEL      226
REMARK 921   NORMALIZED FREE ENERGY PREDICTED BY IDOCK:   -3.66 KCAL/MOL
REMARK 922        TOTAL FREE ENERGY PREDICTED BY IDOCK:   -6.60 KCAL/MOL
REMARK 923 INTER-LIGAND FREE ENERGY PREDICTED BY IDOCK:   -6.53 KCAL/MOL
REMARK 924 INTRA-LIGAND FREE ENERGY PREDICTED BY IDOCK:   -0.07 KCAL/MOL
REMARK 927      BINDING AFFINITY PREDICTED BY RF-SCORE:    0.00 PKD
ROOT
HETATM    1 NA   UNL     1     -12.345  10.177  68.149  1.00  0.00    -0.469 Na 
HETATM    2 NA   UNL     2     -13.848  12.188  64.285  1.00  0.00    -0.752 Na 
HETATM    3 CA   UNL     3      -7.120  10.392  66.471  1.00  0.00    -0.082 Ca 
HETATM    4  O   UNL     4     -12.271  12.170  67.693  1.00  0.00    -0.462 OA 
HETATM    5  C   UNL     4     -11.890  12.761  66.640  1.00  0.00    -0.393 C  
HETATM    6  O   UNL     4     -12.338  12.449  65.484  1.00  0.00    -0.621 OA 
HETATM    7  C   UNL     4     -10.855  13.903  66.664  1.00  0.00    -0.289 C  
ENDROOT
BRANCH   7   8
HETATM    8  N   UNL     4      -9.969  14.050  67.852  1.00  0.00    -0.232 NA 
BRANCH   8   9
HETATM    9  C   UNL     4      -9.126  12.924  68.265  1.00  0.00    -0.180 C  
BRANCH   9  10
HETATM   10  C   UNL     4      -8.828  11.846  67.222  1.00  0.00    -0.179 C  
BRANCH  10  11
HETATM   11  N   UNL     4      -9.147  10.467  67.671  1.00  0.00    -0.141 NA 
BRANCH  11  12
HETATM   12  C   UNL     4      -9.623  10.387  69.089  1.00  0.00    -0.213 C  
HETATM   13  O   UNL     4     -11.013   8.575  69.884  1.00  0.00    -0.236 OA 
HETATM   14  O   UNL     4      -8.984   8.112  68.883  1.00  0.00    -0.140 OA 
HETATM   15  C   UNL     4      -9.902   8.869  69.379  1.00  0.00    -0.183 C  
ENDBRANCH  11  12
BRANCH  11  16
HETATM   16  C   UNL     4     -10.184   9.862  66.759  1.00  0.00    -0.236 C  
HETATM   17  C   UNL     4      -9.421   9.423  65.474  1.00  0.00    -0.260 C  
HETATM   18  O   UNL     4      -9.741  10.041  64.419  1.00  0.00    -0.305 OA 
HETATM   19  O   UNL     4      -8.383   8.711  65.752  1.00  0.00    -0.127 OA 
ENDBRANCH  11  16
ENDBRANCH  10  11
ENDBRANCH   9  10
ENDBRANCH   8   9
BRANCH   8  20
HETATM   20  C   UNL     4      -9.044  15.227  67.584  1.00  0.00    -0.183 C  
HETATM   21  C   UNL     4      -9.490  16.603  68.215  1.00  0.00    -0.230 C  
HETATM   22  O   UNL     4      -8.535  17.331  68.617  1.00  0.00    -0.262 OA 
HETATM   23  O   UNL     4     -10.742  16.862  68.267  1.00  0.00    -0.351 OA 
ENDBRANCH   8  20
ENDBRANCH   7   8
TORSDOF 7
ENDMDL
MODEL      227
REMARK 921   NORMALIZED FREE ENERGY PREDICTED BY IDOCK:   -3.66 KCAL/MOL
REMARK 922        TOTAL FREE ENERGY PREDICTED BY IDOCK:   -6.60 KCAL/MOL
REMARK 923 INTER-LIGAND FREE ENERGY PREDICTED BY IDOCK:   -5.94 KCAL/MOL
REMARK 924 INTRA-LIGAND FREE ENERGY PREDICTED BY IDOCK:   -0.66 KCAL/MOL
REMARK 927      BINDING AFFINITY PREDICTED BY RF-SCORE:    0.00 PKD
ROOT
HETATM    1 NA   UNL     1      -7.925  11.870  69.887  1.00  0.00    -0.329 Na 
HETATM    2 NA   UNL     2      -8.865  16.202  68.629  1.00  0.00    -0.164 Na 
HETATM    3 CA   UNL     3     -13.174  10.353  69.330  1.00  0.00    -0.575 Ca 
HETATM    4  O   UNL     4      -8.224  12.559  67.984  1.00  0.00    -0.146 OA 
HETATM    5  C   UNL     4      -9.129  13.306  67.511  1.00  0.00    -0.208 C  
HETATM    6  O   UNL     4      -9.422  14.436  68.033  1.00  0.00    -0.197 OA 
HETATM    7  C   UNL     4      -9.954  12.916  66.268  1.00  0.00    -0.270 C  
ENDROOT
BRANCH   7   8
HETATM    8  N   UNL     4     -10.006  11.486  65.855  1.00  0.00    -0.221 NA 
BRANCH   8   9
HETATM    9  C   UNL     4     -10.676  10.510  66.720  1.00  0.00    -0.188 C  
BRANCH   9  10
HETATM   10  C   UNL     4     -10.270   9.042  66.574  1.00  0.00    -0.248 C  
BRANCH  10  11
HETATM   11  N   UNL     4     -10.154   8.318  67.865  1.00  0.00    -0.191 NA 
BRANCH  11  12
HETATM   12  C   UNL     4     -10.473   9.158  69.063  1.00  0.00    -0.221 C  
HETATM   13  O   UNL     4      -9.242   8.973  71.136  1.00  0.00    -0.231 OA 
HETATM   14  O   UNL     4      -8.118   9.413  69.167  1.00  0.00    -0.100 OA 
HETATM   15  C   UNL     4      -9.155   9.240  69.913  1.00  0.00    -0.191 C  
ENDBRANCH  11  12
BRANCH  11  16
HETATM   16  C   UNL     4     -11.051   7.105  67.849  1.00  0.00     0.004 C  
HETATM   17  C   UNL     4     -10.168   5.926  67.344  1.00  0.00    -0.194 C  
HETATM   18  O   UNL     4     -10.511   5.434  66.231  1.00  0.00    -0.243 OA 
HETATM   19  O   UNL     4      -9.061   5.840  67.998  1.00  0.00    -0.112 OA 
ENDBRANCH  11  16
ENDBRANCH  10  11
ENDBRANCH   9  10
ENDBRANCH   8   9
BRANCH   8  20
HETATM   20  C   UNL     4     -10.694  11.431  64.501  1.00  0.00    -0.327 C  
HETATM   21  C   UNL     4     -11.918  12.411  64.317  1.00  0.00    -0.410 C  
HETATM   22  O   UNL     4     -12.035  12.893  63.152  1.00  0.00    -0.529 OA 
HETATM   23  O   UNL     4     -12.669  12.631  65.330  1.00  0.00    -0.652 OA 
ENDBRANCH   8  20
ENDBRANCH   7   8
TORSDOF 7
ENDMDL
MODEL      228
REMARK 921   NORMALIZED FREE ENERGY PREDICTED BY IDOCK:   -3.65 KCAL/MOL
REMARK 922        TOTAL FREE ENERGY PREDICTED BY IDOCK:   -6.59 KCAL/MOL
REMARK 923 INTER-LIGAND FREE ENERGY PREDICTED BY IDOCK:   -7.22 KCAL/MOL
REMARK 924 INTRA-LIGAND FREE ENERGY PREDICTED BY IDOCK:    0.63 KCAL/MOL
REMARK 927      BINDING AFFINITY PREDICTED BY RF-SCORE:    0.00 PKD
ROOT
HETATM    1 NA   UNL     1     -14.401  14.544  65.230  1.00  0.00    -0.620 Na 
HETATM    2 NA   UNL     2     -12.739  10.861  63.015  1.00  0.00    -0.697 Na 
HETATM    3 CA   UNL     3     -12.564  12.714  70.072  1.00  0.00    -0.269 Ca 
HETATM    4  O   UNL     4     -12.456  14.208  64.692  1.00  0.00    -0.577 OA 
HETATM    5  C   UNL     4     -11.728  13.182  64.830  1.00  0.00    -0.340 C  
HETATM    6  O   UNL     4     -12.102  12.024  64.438  1.00  0.00    -0.343 OA 
HETATM    7  C   UNL     4     -10.333  13.242  65.483  1.00  0.00    -0.291 C  
ENDROOT
BRANCH   7   8
HETATM    8  N   UNL     4      -9.988  14.408  66.344  1.00  0.00    -0.283 NA 
BRANCH   8   9
HETATM    9  C   UNL     4      -9.325  15.572  65.748  1.00  0.00    -0.257 C  
BRANCH   9  10
HETATM   10  C   UNL     4      -9.879  16.954  66.099  1.00  0.00    -0.297 C  
BRANCH  10  11
HETATM   11  N   UNL     4      -9.085  17.680  67.122  1.00  0.00    -0.240 NA 
BRANCH  11  12
HETATM   12  C   UNL     4      -7.603  17.554  66.942  1.00  0.00    -0.213 C  
HETATM   13  O   UNL     4      -6.080  17.424  68.815  1.00  0.00    -0.162 OA 
HETATM   14  O   UNL     4      -7.815  15.911  68.638  1.00  0.00    -0.145 OA 
HETATM   15  C   UNL     4      -7.053  16.873  68.245  1.00  0.00    -0.179 C  
ENDBRANCH  11  12
BRANCH  11  16
HETATM   16  C   UNL     4      -9.468  19.139  67.121  1.00  0.00    -0.314 C  
HETATM   17  C   UNL     4      -9.505  19.573  68.616  1.00  0.00    -0.397 C  
HETATM   18  O   UNL     4     -10.644  19.906  69.053  1.00  0.00    -0.144 OA 
HETATM   19  O   UNL     4      -8.427  19.240  69.240  1.00  0.00    -0.206 OA 
ENDBRANCH  11  16
ENDBRANCH  10  11
ENDBRANCH   9  10
ENDBRANCH   8   9
BRANCH   8  20
HETATM   20  C   UNL     4     -11.281  14.903  66.973  1.00  0.00    -0.344 C  
HETATM   21  C   UNL     4     -11.429  14.644  68.524  1.00  0.00    -0.302 C  
HETATM   22  O   UNL     4     -12.034  15.561  69.154  1.00  0.00    -0.348 OA 
HETATM   23  O   UNL     4     -10.940  13.562  69.001  1.00  0.00    -0.252 OA 
ENDBRANCH   8  20
ENDBRANCH   7   8
TORSDOF 7
ENDMDL
MODEL      229
REMARK 921   NORMALIZED FREE ENERGY PREDICTED BY IDOCK:   -3.65 KCAL/MOL
REMARK 922        TOTAL FREE ENERGY PREDICTED BY IDOCK:   -6.59 KCAL/MOL
REMARK 923 INTER-LIGAND FREE ENERGY PREDICTED BY IDOCK:   -5.65 KCAL/MOL
REMARK 924 INTRA-LIGAND FREE ENERGY PREDICTED BY IDOCK:   -0.93 KCAL/MOL
REMARK 927      BINDING AFFINITY PREDICTED BY RF-SCORE:    0.00 PKD
ROOT
HETATM    1 NA   UNL     1     -11.585  10.677  63.534  1.00  0.00    -0.534 Na 
HETATM    2 NA   UNL     2      -8.192   7.563  63.370  1.00  0.00    -0.123 Na 
HETATM    3 CA   UNL     3     -12.532   9.664  68.848  1.00  0.00    -0.260 Ca 
HETATM    4  O   UNL     4      -9.670  10.909  64.218  1.00  0.00    -0.244 OA 
HETATM    5  C   UNL     4      -8.952  10.149  64.931  1.00  0.00    -0.197 C  
HETATM    6  O   UNL     4      -8.767   8.918  64.642  1.00  0.00    -0.172 OA 
HETATM    7  C   UNL     4      -8.245  10.644  66.209  1.00  0.00    -0.153 C  
ENDROOT
BRANCH   7   8
HETATM    8  N   UNL     4      -8.725  11.892  66.863  1.00  0.00    -0.187 NA 
BRANCH   8   9
HETATM    9  C   UNL     4      -9.922  11.848  67.709  1.00  0.00    -0.186 C  
BRANCH   9  10
HETATM   10  C   UNL     4     -11.257  12.223  67.063  1.00  0.00    -0.310 C  
BRANCH  10  11
HETATM   11  N   UNL     4     -11.270  13.574  66.448  1.00  0.00    -0.303 NA 
BRANCH  11  12
HETATM   12  C   UNL     4     -11.518  13.565  64.971  1.00  0.00    -0.318 C  
HETATM   13  O   UNL     4     -12.468  15.462  63.810  1.00  0.00    -0.663 OA 
HETATM   14  O   UNL     4     -10.556  15.730  65.077  1.00  0.00    -0.432 OA 
HETATM   15  C   UNL     4     -11.504  15.066  64.509  1.00  0.00    -0.318 C  
ENDBRANCH  11  12
BRANCH  11  16
HETATM   16  C   UNL     4     -12.310  14.430  67.127  1.00  0.00    -0.071 C  
HETATM   17  C   UNL     4     -11.687  14.866  68.485  1.00  0.00    -0.310 C  
HETATM   18  O   UNL     4     -12.269  14.419  69.514  1.00  0.00    -0.316 OA 
HETATM   19  O   UNL     4     -10.508  15.367  68.334  1.00  0.00    -0.232 OA 
ENDBRANCH  11  16
ENDBRANCH  10  11
ENDBRANCH   9  10
ENDBRANCH   8   9
BRANCH   8  20
HETATM   20  C   UNL     4      -7.588  12.418  67.724  1.00  0.00    -0.134 C  
HETATM   21  C   UNL     4      -7.447  13.989  67.784  1.00  0.00    -0.161 C  
HETATM   22  O   UNL     4      -7.069  14.440  68.906  1.00  0.00    -0.104 OA 
HETATM   23  O   UNL     4      -7.717  14.657  66.727  1.00  0.00     0.073 OA 
ENDBRANCH   8  20
ENDBRANCH   7   8
TORSDOF 7
ENDMDL
MODEL      230
REMARK 921   NORMALIZED FREE ENERGY PREDICTED BY IDOCK:   -3.63 KCAL/MOL
REMARK 922        TOTAL FREE ENERGY PREDICTED BY IDOCK:   -6.55 KCAL/MOL
REMARK 923 INTER-LIGAND FREE ENERGY PREDICTED BY IDOCK:   -5.98 KCAL/MOL
REMARK 924 INTRA-LIGAND FREE ENERGY PREDICTED BY IDOCK:   -0.57 KCAL/MOL
REMARK 927      BINDING AFFINITY PREDICTED BY RF-SCORE:    0.00 PKD
ROOT
HETATM    1 NA   UNL     1     -13.160  14.384  68.487  1.00  0.00    -0.560 Na 
HETATM    2 NA   UNL     2      -9.931  17.658  68.783  1.00  0.00    -0.246 Na 
HETATM    3 CA   UNL     3     -13.075  14.511  62.997  1.00  0.00    -0.821 Ca 
HETATM    4  O   UNL     4     -11.144  14.149  68.225  1.00  0.00    -0.239 OA 
HETATM    5  C   UNL     4     -10.317  14.825  67.546  1.00  0.00    -0.238 C  
HETATM    6  O   UNL     4     -10.218  16.095  67.662  1.00  0.00    -0.253 OA 
HETATM    7  C   UNL     4      -9.364  14.176  66.523  1.00  0.00    -0.265 C  
ENDROOT
BRANCH   7   8
HETATM    8  N   UNL     4      -9.682  12.818  66.001  1.00  0.00    -0.251 NA 
BRANCH   8   9
HETATM    9  C   UNL     4      -9.898  11.716  66.943  1.00  0.00    -0.198 C  
BRANCH   9  10
HETATM   10  C   UNL     4     -10.045  10.309  66.362  1.00  0.00    -0.234 C  
BRANCH  10  11
HETATM   11  N   UNL     4      -8.866   9.436  66.592  1.00  0.00    -0.133 NA 
BRANCH  11  12
HETATM   12  C   UNL     4      -8.863   8.761  67.929  1.00  0.00    -0.136 C  
HETATM   13  O   UNL     4      -7.223   7.087  68.527  1.00  0.00    -0.085 OA 
HETATM   14  O   UNL     4      -6.531   9.174  67.823  1.00  0.00    -0.055 OA 
HETATM   15  C   UNL     4      -7.389   8.282  68.182  1.00  0.00    -0.096 C  
ENDBRANCH  11  12
BRANCH  11  16
HETATM   16  C   UNL     4      -8.786   8.394  65.504  1.00  0.00    -0.162 C  
HETATM   17  C   UNL     4      -8.114   9.096  64.287  1.00  0.00    -0.148 C  
HETATM   18  O   UNL     4      -8.847   9.223  63.265  1.00  0.00    -0.219 OA 
HETATM   19  O   UNL     4      -7.022   9.695  64.621  1.00  0.00    -0.101 OA 
ENDBRANCH  11  16
ENDBRANCH  10  11
ENDBRANCH   9  10
ENDBRANCH   8   9
BRANCH   8  20
HETATM   20  C   UNL     4     -10.943  12.941  65.160  1.00  0.00    -0.289 C  
HETATM   21  C   UNL     4     -10.880  12.271  63.732  1.00  0.00    -0.442 C  
HETATM   22  O   UNL     4     -11.969  11.750  63.347  1.00  0.00    -0.474 OA 
HETATM   23  O   UNL     4      -9.768  12.308  63.100  1.00  0.00    -0.334 OA 
ENDBRANCH   8  20
ENDBRANCH   7   8
TORSDOF 7
ENDMDL
MODEL      231
REMARK 921   NORMALIZED FREE ENERGY PREDICTED BY IDOCK:   -3.62 KCAL/MOL
REMARK 922        TOTAL FREE ENERGY PREDICTED BY IDOCK:   -6.55 KCAL/MOL
REMARK 923 INTER-LIGAND FREE ENERGY PREDICTED BY IDOCK:   -6.10 KCAL/MOL
REMARK 924 INTRA-LIGAND FREE ENERGY PREDICTED BY IDOCK:   -0.45 KCAL/MOL
REMARK 927      BINDING AFFINITY PREDICTED BY RF-SCORE:    0.00 PKD
ROOT
HETATM    1 NA   UNL     1      -9.424  13.316  64.030  1.00  0.00    -0.578 Na 
HETATM    2 NA   UNL     2     -13.804  14.098  65.233  1.00  0.00    -0.770 Na 
HETATM    3 CA   UNL     3      -7.659  14.106  69.170  1.00  0.00    -0.108 Ca 
HETATM    4  O   UNL     4     -10.691  12.015  64.973  1.00  0.00    -0.276 OA 
HETATM    5  C   UNL     4     -11.457  12.184  65.966  1.00  0.00    -0.370 C  
HETATM    6  O   UNL     4     -12.302  13.142  66.018  1.00  0.00    -0.422 OA 
HETATM    7  C   UNL     4     -11.435  11.253  67.193  1.00  0.00    -0.137 C  
ENDROOT
BRANCH   7   8
HETATM    8  N   UNL     4     -10.237  10.401  67.431  1.00  0.00    -0.202 NA 
BRANCH   8   9
HETATM    9  C   UNL     4     -10.082   9.719  68.720  1.00  0.00    -0.174 C  
BRANCH   9  10
HETATM   10  C   UNL     4     -10.644   8.302  68.841  1.00  0.00    -0.139 C  
BRANCH  10  11
HETATM   11  N   UNL     4     -10.345   7.643  70.137  1.00  0.00    -0.212 NA 
BRANCH  11  12
HETATM   12  C   UNL     4     -10.997   6.304  70.302  1.00  0.00    -0.337 C  
HETATM   13  O   UNL     4     -11.372   5.308  72.473  1.00  0.00    -0.243 OA 
HETATM   14  O   UNL     4     -12.206   7.412  72.014  1.00  0.00    -0.297 OA 
HETATM   15  C   UNL     4     -11.631   6.292  71.738  1.00  0.00    -0.304 C  
ENDBRANCH  11  12
BRANCH  11  16
HETATM   16  C   UNL     4      -8.853   7.498  70.301  1.00  0.00    -0.146 C  
HETATM   17  C   UNL     4      -8.432   8.564  71.356  1.00  0.00    -0.172 C  
HETATM   18  O   UNL     4      -7.678   9.482  70.924  1.00  0.00    -0.287 OA 
HETATM   19  O   UNL     4      -9.158   8.499  72.420  1.00  0.00    -0.237 OA 
ENDBRANCH  11  16
ENDBRANCH  10  11
ENDBRANCH   9  10
ENDBRANCH   8   9
BRANCH   8  20
HETATM   20  C   UNL     4     -10.224   9.328  66.354  1.00  0.00    -0.228 C  
HETATM   21  C   UNL     4      -8.832   9.082  65.652  1.00  0.00    -0.185 C  
HETATM   22  O   UNL     4      -8.606   7.875  65.341  1.00  0.00    -0.151 OA 
HETATM   23  O   UNL     4      -8.070  10.091  65.460  1.00  0.00    -0.126 OA 
ENDBRANCH   8  20
ENDBRANCH   7   8
TORSDOF 7
ENDMDL
MODEL      232
REMARK 921   NORMALIZED FREE ENERGY PREDICTED BY IDOCK:   -3.62 KCAL/MOL
REMARK 922        TOTAL FREE ENERGY PREDICTED BY IDOCK:   -6.55 KCAL/MOL
REMARK 923 INTER-LIGAND FREE ENERGY PREDICTED BY IDOCK:   -6.30 KCAL/MOL
REMARK 924 INTRA-LIGAND FREE ENERGY PREDICTED BY IDOCK:   -0.25 KCAL/MOL
REMARK 927      BINDING AFFINITY PREDICTED BY RF-SCORE:    0.00 PKD
ROOT
HETATM    1 NA   UNL     1     -10.653  14.378  66.824  1.00  0.00    -0.259 Na 
HETATM    2 NA   UNL     2     -13.662  16.304  69.735  1.00  0.00    -0.641 Na 
HETATM    3 CA   UNL     3      -7.046  13.433  70.857  1.00  0.00    -0.272 Ca 
HETATM    4  O   UNL     4     -11.910  13.406  68.114  1.00  0.00    -0.339 OA 
HETATM    5  C   UNL     4     -12.151  13.609  69.339  1.00  0.00    -0.314 C  
HETATM    6  O   UNL     4     -12.480  14.760  69.788  1.00  0.00    -0.277 OA 
HETATM    7  C   UNL     4     -12.066  12.487  70.393  1.00  0.00    -0.297 C  
ENDROOT
BRANCH   7   8
HETATM    8  N   UNL     4     -11.293  11.254  70.074  1.00  0.00    -0.248 NA 
BRANCH   8   9
HETATM    9  C   UNL     4     -11.394  10.091  70.962  1.00  0.00    -0.357 C  
BRANCH   9  10
HETATM   10  C   UNL     4     -10.159   9.198  71.096  1.00  0.00    -0.314 C  
BRANCH  10  11
HETATM   11  N   UNL     4     -10.461   7.816  71.548  1.00  0.00    -0.204 NA 
BRANCH  11  12
HETATM   12  C   UNL     4     -10.584   7.678  73.035  1.00  0.00    -0.375 C  
HETATM   13  O   UNL     4     -10.192   5.582  74.174  1.00  0.00    -0.218 OA 
HETATM   14  O   UNL     4      -8.554   6.474  72.813  1.00  0.00    -0.124 OA 
HETATM   15  C   UNL     4      -9.677   6.464  73.445  1.00  0.00    -0.165 C  
ENDBRANCH  11  12
BRANCH  11  16
HETATM   16  C   UNL     4     -11.731   7.334  70.893  1.00  0.00    -0.315 C  
HETATM   17  C   UNL     4     -11.288   6.319  69.797  1.00  0.00    -0.436 C  
HETATM   18  O   UNL     4     -11.532   6.669  68.607  1.00  0.00    -0.146 OA 
HETATM   19  O   UNL     4     -10.483   5.428  70.265  1.00  0.00    -0.271 OA 
ENDBRANCH  11  16
ENDBRANCH  10  11
ENDBRANCH   9  10
ENDBRANCH   8   9
BRANCH   8  20
HETATM   20  C   UNL     4     -11.722  10.798  68.689  1.00  0.00    -0.219 C  
HETATM   21  C   UNL     4     -10.570  10.231  67.770  1.00  0.00    -0.250 C  
HETATM   22  O   UNL     4     -10.922   9.276  67.015  1.00  0.00    -0.106 OA 
HETATM   23  O   UNL     4      -9.412  10.766  67.861  1.00  0.00    -0.153 OA 
ENDBRANCH   8  20
ENDBRANCH   7   8
TORSDOF 7
ENDMDL
MODEL      233
REMARK 921   NORMALIZED FREE ENERGY PREDICTED BY IDOCK:   -3.62 KCAL/MOL
REMARK 922        TOTAL FREE ENERGY PREDICTED BY IDOCK:   -6.54 KCAL/MOL
REMARK 923 INTER-LIGAND FREE ENERGY PREDICTED BY IDOCK:   -6.84 KCAL/MOL
REMARK 924 INTRA-LIGAND FREE ENERGY PREDICTED BY IDOCK:    0.30 KCAL/MOL
REMARK 927      BINDING AFFINITY PREDICTED BY RF-SCORE:    0.00 PKD
ROOT
HETATM    1 NA   UNL     1     -11.323   8.869  68.888  1.00  0.00    -0.391 Na 
HETATM    2 NA   UNL     2      -8.654   6.807  65.748  1.00  0.00    -0.114 Na 
HETATM    3 CA   UNL     3      -7.814  13.061  69.414  1.00  0.00    -0.287 Ca 
HETATM    4  O   UNL     4     -11.155   9.355  66.907  1.00  0.00     0.036 OA 
HETATM    5  C   UNL     4     -10.131   9.515  66.182  1.00  0.00    -0.256 C  
HETATM    6  O   UNL     4      -9.204   8.638  66.109  1.00  0.00    -0.184 OA 
HETATM    7  C   UNL     4      -9.914  10.780  65.328  1.00  0.00    -0.282 C  
ENDROOT
BRANCH   7   8
HETATM    8  N   UNL     4     -10.679  12.015  65.660  1.00  0.00    -0.263 NA 
BRANCH   8   9
HETATM    9  C   UNL     4     -10.136  12.955  66.645  1.00  0.00    -0.245 C  
BRANCH   9  10
HETATM   10  C   UNL     4     -10.400  14.445  66.418  1.00  0.00    -0.287 C  
BRANCH  10  11
HETATM   11  N   UNL     4     -10.771  15.186  67.650  1.00  0.00    -0.278 NA 
BRANCH  11  12
HETATM   12  C   UNL     4     -10.079  14.696  68.885  1.00  0.00    -0.234 C  
HETATM   13  O   UNL     4     -10.785  15.343  71.105  1.00  0.00    -0.243 OA 
HETATM   14  O   UNL     4     -12.294  14.361  69.660  1.00  0.00    -0.317 OA 
HETATM   15  C   UNL     4     -11.134  14.769  70.045  1.00  0.00    -0.204 C  
ENDBRANCH  11  12
BRANCH  11  16
HETATM   16  C   UNL     4     -10.485  16.655  67.464  1.00  0.00    -0.317 C  
HETATM   17  C   UNL     4      -8.954  16.827  67.694  1.00  0.00    -0.210 C  
HETATM   18  O   UNL     4      -8.634  17.519  68.702  1.00  0.00    -0.279 OA 
HETATM   19  O   UNL     4      -8.266  15.992  66.992  1.00  0.00    -0.179 OA 
ENDBRANCH  11  16
ENDBRANCH  10  11
ENDBRANCH   9  10
ENDBRANCH   8   9
BRANCH   8  20
HETATM   20  C   UNL     4     -10.873  12.788  64.364  1.00  0.00    -0.368 C  
HETATM   21  C   UNL     4     -12.370  12.980  63.903  1.00  0.00    -0.375 C  
HETATM   22  O   UNL     4     -12.608  14.089  63.340  1.00  0.00    -0.845 OA 
HETATM   23  O   UNL     4     -13.195  12.028  64.128  1.00  0.00    -0.712 OA 
ENDBRANCH   8  20
ENDBRANCH   7   8
TORSDOF 7
ENDMDL
MODEL      234
REMARK 921   NORMALIZED FREE ENERGY PREDICTED BY IDOCK:   -3.59 KCAL/MOL
REMARK 922        TOTAL FREE ENERGY PREDICTED BY IDOCK:   -6.50 KCAL/MOL
REMARK 923 INTER-LIGAND FREE ENERGY PREDICTED BY IDOCK:   -5.77 KCAL/MOL
REMARK 924 INTRA-LIGAND FREE ENERGY PREDICTED BY IDOCK:   -0.73 KCAL/MOL
REMARK 927      BINDING AFFINITY PREDICTED BY RF-SCORE:    0.00 PKD
ROOT
HETATM    1 NA   UNL     1     -13.248   6.845  69.758  1.00  0.00    -0.550 Na 
HETATM    2 NA   UNL     2     -11.761   5.441  73.887  1.00  0.00    -0.435 Na 
HETATM    3 CA   UNL     3     -13.858  12.014  71.509  1.00  0.00    -0.307 Ca 
HETATM    4  O   UNL     4     -11.377   7.106  70.544  1.00  0.00    -0.279 OA 
HETATM    5  C   UNL     4     -11.012   7.513  71.685  1.00  0.00    -0.232 C  
HETATM    6  O   UNL     4     -11.463   7.003  72.767  1.00  0.00    -0.250 OA 
HETATM    7  C   UNL     4      -9.996   8.658  71.866  1.00  0.00    -0.322 C  
ENDROOT
BRANCH   7   8
HETATM    8  N   UNL     4      -9.747   9.589  70.730  1.00  0.00    -0.261 NA 
BRANCH   8   9
HETATM    9  C   UNL     4      -8.578   9.378  69.869  1.00  0.00    -0.191 C  
BRANCH   9  10
HETATM   10  C   UNL     4      -8.218  10.491  68.884  1.00  0.00    -0.141 C  
BRANCH  10  11
HETATM   11  N   UNL     4      -8.278  10.078  67.459  1.00  0.00    -0.114 NA 
BRANCH  11  12
HETATM   12  C   UNL     4      -9.102  10.986  66.598  1.00  0.00    -0.166 C  
HETATM   13  O   UNL     4     -10.010  10.276  64.472  1.00  0.00    -0.339 OA 
HETATM   14  O   UNL     4     -10.485   9.072  66.385  1.00  0.00    -0.215 OA 
HETATM   15  C   UNL     4     -10.003  10.057  65.708  1.00  0.00    -0.276 C  
ENDBRANCH  11  12
BRANCH  11  16
HETATM   16  C   UNL     4      -6.881   9.986  66.898  1.00  0.00    -0.087 C  
HETATM   17  C   UNL     4      -6.507   8.475  66.925  1.00  0.00    -0.057 C  
HETATM   18  O   UNL     4      -5.556   8.168  67.700  1.00  0.00    -0.036 OA 
HETATM   19  O   UNL     4      -7.418   7.745  66.378  1.00  0.00    -0.081 OA 
ENDBRANCH  11  16
ENDBRANCH  10  11
ENDBRANCH   9  10
ENDBRANCH   8   9
BRANCH   8  20
HETATM   20  C   UNL     4     -10.975   9.547  69.834  1.00  0.00    -0.238 C  
HETATM   21  C   UNL     4     -11.690  10.934  69.592  1.00  0.00    -0.331 C  
HETATM   22  O   UNL     4     -12.179  11.077  68.433  1.00  0.00    -0.586 OA 
HETATM   23  O   UNL     4     -11.717  11.772  70.558  1.00  0.00    -0.272 OA 
ENDBRANCH   8  20
ENDBRANCH   7   8
TORSDOF 7
ENDMDL
MODEL      235
REMARK 921   NORMALIZED FREE ENERGY PREDICTED BY IDOCK:   -3.58 KCAL/MOL
REMARK 922        TOTAL FREE ENERGY PREDICTED BY IDOCK:   -6.48 KCAL/MOL
REMARK 923 INTER-LIGAND FREE ENERGY PREDICTED BY IDOCK:   -5.27 KCAL/MOL
REMARK 924 INTRA-LIGAND FREE ENERGY PREDICTED BY IDOCK:   -1.21 KCAL/MOL
REMARK 927      BINDING AFFINITY PREDICTED BY RF-SCORE:    0.00 PKD
ROOT
HETATM    1 NA   UNL     1     -10.787  11.802  70.287  1.00  0.00    -0.439 Na 
HETATM    2 NA   UNL     2      -6.896  14.119  69.437  1.00  0.00    -0.090 Na 
HETATM    3 CA   UNL     3     -13.495  14.499  66.343  1.00  0.00    -0.575 Ca 
HETATM    4  O   UNL     4      -9.470  11.472  68.756  1.00  0.00    -0.175 OA 
HETATM    5  C   UNL     4      -8.924  12.281  67.950  1.00  0.00    -0.186 C  
HETATM    6  O   UNL     4      -8.297  13.321  68.349  1.00  0.00    -0.159 OA 
HETATM    7  C   UNL     4      -8.972  12.081  66.422  1.00  0.00    -0.161 C  
ENDROOT
BRANCH   7   8
HETATM    8  N   UNL     4     -10.009  11.182  65.844  1.00  0.00    -0.228 NA 
BRANCH   8   9
HETATM    9  C   UNL     4     -10.150   9.818  66.362  1.00  0.00    -0.243 C  
BRANCH   9  10
HETATM   10  C   UNL     4      -9.113   8.785  65.919  1.00  0.00    -0.218 C  
BRANCH  10  11
HETATM   11  N   UNL     4      -8.219   8.323  67.010  1.00  0.00    -0.103 NA 
BRANCH  11  12
HETATM   12  C   UNL     4      -8.543   6.953  67.522  1.00  0.00    -0.121 C  
HETATM   13  O   UNL     4      -7.807   6.176  69.690  1.00  0.00    -0.098 OA 
HETATM   14  O   UNL     4      -9.041   8.121  69.525  1.00  0.00    -0.150 OA 
HETATM   15  C   UNL     4      -8.491   7.040  69.089  1.00  0.00    -0.129 C  
ENDBRANCH  11  12
BRANCH  11  16
HETATM   16  C   UNL     4      -6.786   8.356  66.540  1.00  0.00    -0.060 C  
HETATM   17  C   UNL     4      -6.186   9.685  67.088  1.00  0.00    -0.064 C  
HETATM   18  O   UNL     4      -5.851  10.529  66.209  1.00  0.00    -0.071 OA 
HETATM   19  O   UNL     4      -6.402   9.825  68.352  1.00  0.00    -0.054 OA 
ENDBRANCH  11  16
ENDBRANCH  10  11
ENDBRANCH   9  10
ENDBRANCH   8   9
BRANCH   8  20
HETATM   20  C   UNL     4     -11.354  11.870  66.023  1.00  0.00    -0.316 C  
HETATM   21  C   UNL     4     -11.997  12.463  64.709  1.00  0.00    -0.398 C  
HETATM   22  O   UNL     4     -13.260  12.381  64.660  1.00  0.00    -0.822 OA 
HETATM   23  O   UNL     4     -11.214  12.963  63.830  1.00  0.00    -0.408 OA 
ENDBRANCH   8  20
ENDBRANCH   7   8
TORSDOF 7
ENDMDL
MODEL      236
REMARK 921   NORMALIZED FREE ENERGY PREDICTED BY IDOCK:   -3.57 KCAL/MOL
REMARK 922        TOTAL FREE ENERGY PREDICTED BY IDOCK:   -6.48 KCAL/MOL
REMARK 923 INTER-LIGAND FREE ENERGY PREDICTED BY IDOCK:   -7.40 KCAL/MOL
REMARK 924 INTRA-LIGAND FREE ENERGY PREDICTED BY IDOCK:    0.92 KCAL/MOL
REMARK 927      BINDING AFFINITY PREDICTED BY RF-SCORE:    0.00 PKD
ROOT
HETATM    1 NA   UNL     1     -13.451  16.171  69.184  1.00  0.00    -0.443 Na 
HETATM    2 NA   UNL     2     -10.184  19.408  69.476  1.00  0.00    -0.359 Na 
HETATM    3 CA   UNL     3     -13.259  16.185  63.695  1.00  0.00    -0.662 Ca 
HETATM    4  O   UNL     4     -11.434  15.904  68.965  1.00  0.00    -0.341 OA 
HETATM    5  C   UNL     4     -10.585  16.556  68.289  1.00  0.00    -0.326 C  
HETATM    6  O   UNL     4     -10.471  17.826  68.381  1.00  0.00    -0.369 OA 
HETATM    7  C   UNL     4      -9.621  15.874  67.298  1.00  0.00    -0.217 C  
ENDROOT
BRANCH   7   8
HETATM    8  N   UNL     4      -9.947  14.509  66.797  1.00  0.00    -0.257 NA 
BRANCH   8   9
HETATM    9  C   UNL     4      -9.512  13.338  67.564  1.00  0.00    -0.220 C  
BRANCH   9  10
HETATM   10  C   UNL     4      -9.230  12.051  66.786  1.00  0.00    -0.201 C  
BRANCH  10  11
HETATM   11  N   UNL     4     -10.442  11.244  66.496  1.00  0.00    -0.244 NA 
BRANCH  11  12
HETATM   12  C   UNL     4     -10.640  10.948  65.042  1.00  0.00    -0.217 C  
HETATM   13  O   UNL     4      -8.784  10.643  63.521  1.00  0.00    -0.176 OA 
HETATM   14  O   UNL     4      -8.939   9.340  65.421  1.00  0.00    -0.182 OA 
HETATM   15  C   UNL     4      -9.342  10.208  64.558  1.00  0.00    -0.289 C  
ENDBRANCH  11  12
BRANCH  11  16
HETATM   16  C   UNL     4     -10.387   9.950  67.269  1.00  0.00    -0.245 C  
HETATM   17  C   UNL     4     -11.069  10.239  68.639  1.00  0.00    -0.239 C  
HETATM   18  O   UNL     4     -10.309  10.161  69.647  1.00  0.00    -0.219 OA 
HETATM   19  O   UNL     4     -12.222  10.798  68.494  1.00  0.00    -0.470 OA 
ENDBRANCH  11  16
ENDBRANCH  10  11
ENDBRANCH   9  10
ENDBRANCH   8   9
BRANCH   8  20
HETATM   20  C   UNL     4     -11.460  14.424  66.670  1.00  0.00    -0.363 C  
HETATM   21  C   UNL     4     -12.018  14.347  65.195  1.00  0.00    -0.391 C  
HETATM   22  O   UNL     4     -13.045  13.618  65.059  1.00  0.00    -0.742 OA 
HETATM   23  O   UNL     4     -11.406  15.008  64.287  1.00  0.00    -0.225 OA 
ENDBRANCH   8  20
ENDBRANCH   7   8
TORSDOF 7
ENDMDL
MODEL      237
REMARK 921   NORMALIZED FREE ENERGY PREDICTED BY IDOCK:   -3.57 KCAL/MOL
REMARK 922        TOTAL FREE ENERGY PREDICTED BY IDOCK:   -6.47 KCAL/MOL
REMARK 923 INTER-LIGAND FREE ENERGY PREDICTED BY IDOCK:   -5.48 KCAL/MOL
REMARK 924 INTRA-LIGAND FREE ENERGY PREDICTED BY IDOCK:   -0.99 KCAL/MOL
REMARK 927      BINDING AFFINITY PREDICTED BY RF-SCORE:    0.00 PKD
ROOT
HETATM    1 NA   UNL     1     -11.386  16.821  67.662  1.00  0.00    -0.316 Na 
HETATM    2 NA   UNL     2     -14.000  14.158  64.959  1.00  0.00    -0.593 Na 
HETATM    3 CA   UNL     3     -12.153  13.530  71.992  1.00  0.00    -0.248 Ca 
HETATM    4  O   UNL     4     -10.843  15.055  66.782  1.00  0.00    -0.307 OA 
HETATM    5  C   UNL     4     -11.444  13.943  66.727  1.00  0.00    -0.352 C  
HETATM    6  O   UNL     4     -12.654  13.842  66.328  1.00  0.00    -0.435 OA 
HETATM    7  C   UNL     4     -10.769  12.619  67.138  1.00  0.00    -0.241 C  
ENDROOT
BRANCH   7   8
HETATM    8  N   UNL     4      -9.557  12.665  68.003  1.00  0.00    -0.207 NA 
BRANCH   8   9
HETATM    9  C   UNL     4      -9.310  11.577  68.955  1.00  0.00     0.007 C  
BRANCH   9  10
HETATM   10  C   UNL     4      -9.549  10.147  68.468  1.00  0.00    -0.154 C  
BRANCH  10  11
HETATM   11  N   UNL     4      -9.528   9.130  69.550  1.00  0.00    -0.162 NA 
BRANCH  11  12
HETATM   12  C   UNL     4     -10.590   8.083  69.418  1.00  0.00    -0.205 C  
HETATM   13  O   UNL     4     -11.468   6.888  71.328  1.00  0.00    -0.267 OA 
HETATM   14  O   UNL     4     -11.530   9.196  71.289  1.00  0.00    -0.282 OA 
HETATM   15  C   UNL     4     -11.325   8.019  70.804  1.00  0.00    -0.272 C  
ENDBRANCH  11  12
BRANCH  11  16
HETATM   16  C   UNL     4      -8.173   8.469  69.598  1.00  0.00    -0.115 C  
HETATM   17  C   UNL     4      -7.453   9.056  70.848  1.00  0.00    -0.116 C  
HETATM   18  O   UNL     4      -6.426   9.750  70.602  1.00  0.00    -0.091 OA 
HETATM   19  O   UNL     4      -8.190   8.985  71.904  1.00  0.00    -0.362 OA 
ENDBRANCH  11  16
ENDBRANCH  10  11
ENDBRANCH   9  10
ENDBRANCH   8   9
BRANCH   8  20
HETATM   20  C   UNL     4      -8.348  12.739  67.084  1.00  0.00    -0.164 C  
HETATM   21  C   UNL     4      -7.188  13.699  67.557  1.00  0.00    -0.156 C  
HETATM   22  O   UNL     4      -6.022  13.289  67.283  1.00  0.00    -0.341 OA 
HETATM   23  O   UNL     4      -7.513  14.780  68.159  1.00  0.00    -0.102 OA 
ENDBRANCH   8  20
ENDBRANCH   7   8
TORSDOF 7
ENDMDL
MODEL      238
REMARK 921   NORMALIZED FREE ENERGY PREDICTED BY IDOCK:   -3.56 KCAL/MOL
REMARK 922        TOTAL FREE ENERGY PREDICTED BY IDOCK:   -6.46 KCAL/MOL
REMARK 923 INTER-LIGAND FREE ENERGY PREDICTED BY IDOCK:   -5.64 KCAL/MOL
REMARK 924 INTRA-LIGAND FREE ENERGY PREDICTED BY IDOCK:   -0.82 KCAL/MOL
REMARK 927      BINDING AFFINITY PREDICTED BY RF-SCORE:    0.00 PKD
ROOT
HETATM    1 NA   UNL     1      -7.689  18.321  68.793  1.00  0.00    -0.243 Na 
HETATM    2 NA   UNL     2     -10.436  20.199  65.606  1.00  0.00    -0.369 Na 
HETATM    3 CA   UNL     3     -11.928  17.280  72.127  1.00  0.00    -0.573 Ca 
HETATM    4  O   UNL     4      -8.873  17.328  67.452  1.00  0.00    -0.214 OA 
HETATM    5  C   UNL     4     -10.084  17.506  67.132  1.00  0.00    -0.321 C  
HETATM    6  O   UNL     4     -10.534  18.649  66.778  1.00  0.00    -0.382 OA 
HETATM    7  C   UNL     4     -11.118  16.362  67.145  1.00  0.00     0.026 C  
ENDROOT
BRANCH   7   8
HETATM    8  N   UNL     4     -10.825  15.133  67.934  1.00  0.00    -0.282 NA 
BRANCH   8   9
HETATM    9  C   UNL     4      -9.872  14.151  67.409  1.00  0.00    -0.239 C  
BRANCH   9  10
HETATM   10  C   UNL     4     -10.445  12.908  66.726  1.00  0.00    -0.254 C  
BRANCH  10  11
HETATM   11  N   UNL     4      -9.884  11.629  67.231  1.00  0.00    -0.187 NA 
BRANCH  11  12
HETATM   12  C   UNL     4      -8.592  11.236  66.583  1.00  0.00    -0.167 C  
HETATM   13  O   UNL     4      -7.608   9.048  66.886  1.00  0.00    -0.092 OA 
HETATM   14  O   UNL     4      -9.768   9.237  66.090  1.00  0.00    -0.238 OA 
HETATM   15  C   UNL     4      -8.613   9.671  66.464  1.00  0.00    -0.127 C  
ENDBRANCH  11  12
BRANCH  11  16
HETATM   16  C   UNL     4      -9.691  11.714  68.724  1.00  0.00    -0.095 C  
HETATM   17  C   UNL     4     -10.990  11.136  69.358  1.00  0.00    -0.244 C  
HETATM   18  O   UNL     4     -11.683  11.963  70.017  1.00  0.00    -0.317 OA 
HETATM   19  O   UNL     4     -11.297   9.987  68.861  1.00  0.00    -0.175 OA 
ENDBRANCH  11  16
ENDBRANCH  10  11
ENDBRANCH   9  10
ENDBRANCH   8   9
BRANCH   8  20
HETATM   20  C   UNL     4     -10.304  15.581  69.291  1.00  0.00    -0.252 C  
HETATM   21  C   UNL     4     -11.327  15.465  70.487  1.00  0.00    -0.326 C  
HETATM   22  O   UNL     4     -10.805  15.145  71.596  1.00  0.00    -0.164 OA 
HETATM   23  O   UNL     4     -12.562  15.698  70.246  1.00  0.00    -0.407 OA 
ENDBRANCH   8  20
ENDBRANCH   7   8
TORSDOF 7
ENDMDL
MODEL      239
REMARK 921   NORMALIZED FREE ENERGY PREDICTED BY IDOCK:   -3.56 KCAL/MOL
REMARK 922        TOTAL FREE ENERGY PREDICTED BY IDOCK:   -6.46 KCAL/MOL
REMARK 923 INTER-LIGAND FREE ENERGY PREDICTED BY IDOCK:   -5.65 KCAL/MOL
REMARK 924 INTRA-LIGAND FREE ENERGY PREDICTED BY IDOCK:   -0.81 KCAL/MOL
REMARK 927      BINDING AFFINITY PREDICTED BY RF-SCORE:    0.00 PKD
ROOT
HETATM    1 NA   UNL     1     -14.026  10.062  69.456  1.00  0.00    -0.524 Na 
HETATM    2 NA   UNL     2     -12.209  13.482  71.954  1.00  0.00    -0.295 Na 
HETATM    3 CA   UNL     3     -14.030  13.122  64.895  1.00  0.00    -0.614 Ca 
HETATM    4  O   UNL     4     -12.065  10.645  69.499  1.00  0.00    -0.283 OA 
HETATM    5  C   UNL     4     -11.546  11.797  69.419  1.00  0.00    -0.322 C  
HETATM    6  O   UNL     4     -11.915  12.763  70.170  1.00  0.00    -0.342 OA 
HETATM    7  C   UNL     4     -10.429  12.130  68.411  1.00  0.00    -0.231 C  
ENDROOT
BRANCH   7   8
HETATM    8  N   UNL     4     -10.233  11.243  67.230  1.00  0.00    -0.190 NA 
BRANCH   8   9
HETATM    9  C   UNL     4     -10.134   9.793  67.428  1.00  0.00    -0.208 C  
BRANCH   9  10
HETATM   10  C   UNL     4      -8.766   9.226  67.813  1.00  0.00    -0.120 C  
BRANCH  10  11
HETATM   11  N   UNL     4      -8.680   8.764  69.221  1.00  0.00    -0.134 NA 
BRANCH  11  12
HETATM   12  C   UNL     4      -9.668   7.693  69.569  1.00  0.00    -0.168 C  
HETATM   13  O   UNL     4      -9.710   6.630  71.740  1.00  0.00    -0.163 OA 
HETATM   14  O   UNL     4      -9.879   8.928  71.582  1.00  0.00    -0.281 OA 
HETATM   15  C   UNL     4      -9.823   7.722  71.131  1.00  0.00    -0.169 C  
ENDBRANCH  11  12
BRANCH  11  16
HETATM   16  C   UNL     4      -7.284   8.271  69.509  1.00  0.00    -0.061 C  
HETATM   17  C   UNL     4      -6.465   9.526  69.933  1.00  0.00    -0.053 C  
HETATM   18  O   UNL     4      -5.529   9.850  69.147  1.00  0.00    -0.036 OA 
HETATM   19  O   UNL     4      -7.062  10.200  70.856  1.00  0.00    -0.325 OA 
ENDBRANCH  11  16
ENDBRANCH  10  11
ENDBRANCH   9  10
ENDBRANCH   8   9
BRANCH   8  20
HETATM   20  C   UNL     4     -11.399  11.486  66.284  1.00  0.00    -0.153 C  
HETATM   21  C   UNL     4     -11.030  12.166  64.908  1.00  0.00    -0.309 C  
HETATM   22  O   UNL     4     -11.715  11.762  63.922  1.00  0.00    -0.397 OA 
HETATM   23  O   UNL     4     -10.098  13.043  64.902  1.00  0.00    -0.278 OA 
ENDBRANCH   8  20
ENDBRANCH   7   8
TORSDOF 7
ENDMDL
MODEL      240
REMARK 921   NORMALIZED FREE ENERGY PREDICTED BY IDOCK:   -3.56 KCAL/MOL
REMARK 922        TOTAL FREE ENERGY PREDICTED BY IDOCK:   -6.46 KCAL/MOL
REMARK 923 INTER-LIGAND FREE ENERGY PREDICTED BY IDOCK:   -5.59 KCAL/MOL
REMARK 924 INTRA-LIGAND FREE ENERGY PREDICTED BY IDOCK:   -0.87 KCAL/MOL
REMARK 927      BINDING AFFINITY PREDICTED BY RF-SCORE:    0.00 PKD
ROOT
HETATM    1 NA   UNL     1      -7.363   5.657  68.659  1.00  0.00    -0.062 Na 
HETATM    2 NA   UNL     2      -8.727   6.672  72.942  1.00  0.00    -0.119 Na 
HETATM    3 CA   UNL     3     -12.371   6.619  66.619  1.00  0.00    -0.524 Ca 
HETATM    4  O   UNL     4      -7.643   7.523  69.450  1.00  0.00    -0.088 OA 
HETATM    5  C   UNL     4      -8.602   7.997  70.125  1.00  0.00    -0.130 C  
HETATM    6  O   UNL     4      -9.048   7.418  71.174  1.00  0.00    -0.147 OA 
HETATM    7  C   UNL     4      -9.315   9.308  69.739  1.00  0.00    -0.188 C  
ENDROOT
BRANCH   7   8
HETATM    8  N   UNL     4      -9.182   9.819  68.347  1.00  0.00    -0.129 NA 
BRANCH   8   9
HETATM    9  C   UNL     4     -10.287  10.574  67.748  1.00  0.00    -0.212 C  
BRANCH   9  10
HETATM   10  C   UNL     4     -10.227  10.836  66.242  1.00  0.00    -0.245 C  
BRANCH  10  11
HETATM   11  N   UNL     4     -10.620  12.214  65.854  1.00  0.00    -0.250 NA 
BRANCH  11  12
HETATM   12  C   UNL     4     -11.999  12.312  65.276  1.00  0.00    -0.331 C  
HETATM   13  O   UNL     4     -12.505  13.714  63.372  1.00  0.00    -0.784 OA 
HETATM   14  O   UNL     4     -10.848  12.114  63.212  1.00  0.00    -0.415 OA 
HETATM   15  C   UNL     4     -11.823  12.741  63.776  1.00  0.00    -0.499 C  
ENDBRANCH  11  12
BRANCH  11  16
HETATM   16  C   UNL     4     -10.511  13.128  67.048  1.00  0.00    -0.248 C  
HETATM   17  C   UNL     4      -9.486  14.232  66.651  1.00  0.00    -0.286 C  
HETATM   18  O   UNL     4      -8.414  14.238  67.319  1.00  0.00    -0.191 OA 
HETATM   19  O   UNL     4      -9.774  14.768  65.514  1.00  0.00    -0.328 OA 
ENDBRANCH  11  16
ENDBRANCH  10  11
ENDBRANCH   9  10
ENDBRANCH   8   9
BRANCH   8  20
HETATM   20  C   UNL     4      -7.955  10.718  68.310  1.00  0.00    -0.118 C  
HETATM   21  C   UNL     4      -6.925  10.419  67.152  1.00  0.00    -0.088 C  
HETATM   22  O   UNL     4      -6.361  11.447  66.673  1.00  0.00    -0.134 OA 
HETATM   23  O   UNL     4      -6.749   9.200  66.805  1.00  0.00    -0.074 OA 
ENDBRANCH   8  20
ENDBRANCH   7   8
TORSDOF 7
ENDMDL
MODEL      241
REMARK 921   NORMALIZED FREE ENERGY PREDICTED BY IDOCK:   -3.53 KCAL/MOL
REMARK 922        TOTAL FREE ENERGY PREDICTED BY IDOCK:   -6.41 KCAL/MOL
REMARK 923 INTER-LIGAND FREE ENERGY PREDICTED BY IDOCK:   -5.38 KCAL/MOL
REMARK 924 INTRA-LIGAND FREE ENERGY PREDICTED BY IDOCK:   -1.03 KCAL/MOL
REMARK 927      BINDING AFFINITY PREDICTED BY RF-SCORE:    0.00 PKD
ROOT
HETATM    1 NA   UNL     1     -11.376  12.158  70.627  1.00  0.00    -0.455 Na 
HETATM    2 NA   UNL     2     -12.659  12.978  66.278  1.00  0.00    -0.383 Na 
HETATM    3 CA   UNL     3     -13.822   7.240  70.636  1.00  0.00    -0.554 Ca 
HETATM    4  O   UNL     4     -10.516  11.405  68.929  1.00  0.00    -0.200 OA 
HETATM    5  C   UNL     4     -11.039  10.874  67.907  1.00  0.00    -0.302 C  
HETATM    6  O   UNL     4     -11.983  11.437  67.254  1.00  0.00    -0.580 OA 
HETATM    7  C   UNL     4     -10.584   9.505  67.365  1.00  0.00    -0.271 C  
ENDROOT
BRANCH   7   8
HETATM    8  N   UNL     4      -9.828   8.588  68.262  1.00  0.00    -0.163 NA 
BRANCH   8   9
HETATM    9  C   UNL     4     -10.557   7.771  69.238  1.00  0.00    -0.192 C  
BRANCH   9  10
HETATM   10  C   UNL     4      -9.753   6.750  70.044  1.00  0.00    -0.163 C  
BRANCH  10  11
HETATM   11  N   UNL     4      -9.480   7.167  71.443  1.00  0.00    -0.162 NA 
BRANCH  11  12
HETATM   12  C   UNL     4      -8.629   8.394  71.555  1.00  0.00    -0.167 C  
HETATM   13  O   UNL     4      -7.348   8.901  73.542  1.00  0.00    -0.367 OA 
HETATM   14  O   UNL     4      -7.049   6.879  72.468  1.00  0.00    -0.070 OA 
HETATM   15  C   UNL     4      -7.519   8.071  72.617  1.00  0.00    -0.113 C  
ENDBRANCH  11  12
BRANCH  11  16
HETATM   16  C   UNL     4     -10.783   7.392  72.169  1.00  0.00    -0.225 C  
HETATM   17  C   UNL     4     -11.019   6.117  73.031  1.00  0.00    -0.249 C  
HETATM   18  O   UNL     4     -12.026   5.426  72.706  1.00  0.00    -0.232 OA 
HETATM   19  O   UNL     4      -9.985   5.818  73.740  1.00  0.00    -0.170 OA 
ENDBRANCH  11  16
ENDBRANCH  10  11
ENDBRANCH   9  10
ENDBRANCH   8   9
BRANCH   8  20
HETATM   20  C   UNL     4      -9.044   7.633  67.376  1.00  0.00    -0.126 C  
HETATM   21  C   UNL     4      -7.486   7.588  67.631  1.00  0.00    -0.104 C  
HETATM   22  O   UNL     4      -6.963   6.444  67.485  1.00  0.00    -0.073 OA 
HETATM   23  O   UNL     4      -6.900   8.678  67.953  1.00  0.00    -0.065 OA 
ENDBRANCH   8  20
ENDBRANCH   7   8
TORSDOF 7
ENDMDL
MODEL      242
REMARK 921   NORMALIZED FREE ENERGY PREDICTED BY IDOCK:   -3.52 KCAL/MOL
REMARK 922        TOTAL FREE ENERGY PREDICTED BY IDOCK:   -6.40 KCAL/MOL
REMARK 923 INTER-LIGAND FREE ENERGY PREDICTED BY IDOCK:   -5.33 KCAL/MOL
REMARK 924 INTRA-LIGAND FREE ENERGY PREDICTED BY IDOCK:   -1.07 KCAL/MOL
REMARK 927      BINDING AFFINITY PREDICTED BY RF-SCORE:    0.00 PKD
ROOT
HETATM    1 NA   UNL     1     -12.913  14.813  68.041  1.00  0.00    -0.554 Na 
HETATM    2 NA   UNL     2     -13.378  13.161  63.764  1.00  0.00    -0.610 Na 
HETATM    3 CA   UNL     3     -13.210   9.786  70.233  1.00  0.00    -0.480 Ca 
HETATM    4  O   UNL     4     -11.465  13.917  66.905  1.00  0.00    -0.321 OA 
HETATM    5  C   UNL     4     -11.494  12.850  66.226  1.00  0.00    -0.348 C  
HETATM    6  O   UNL     4     -12.405  12.619  65.359  1.00  0.00    -0.528 OA 
HETATM    7  C   UNL     4     -10.436  11.741  66.387  1.00  0.00    -0.235 C  
ENDROOT
BRANCH   7   8
HETATM    8  N   UNL     4      -9.613  11.703  67.628  1.00  0.00    -0.178 NA 
BRANCH   8   9
HETATM    9  C   UNL     4      -9.708  10.544  68.520  1.00  0.00    -0.165 C  
BRANCH   9  10
HETATM   10  C   UNL     4     -10.658   9.416  68.112  1.00  0.00    -0.212 C  
BRANCH  10  11
HETATM   11  N   UNL     4     -10.238   8.073  68.586  1.00  0.00    -0.203 NA 
BRANCH  11  12
HETATM   12  C   UNL     4     -11.355   7.252  69.151  1.00  0.00     0.217 C  
HETATM   13  O   UNL     4     -11.001   5.615  70.895  1.00  0.00    -0.259 OA 
HETATM   14  O   UNL     4     -10.344   7.805  71.223  1.00  0.00    -0.198 OA 
HETATM   15  C   UNL     4     -10.910   6.831  70.597  1.00  0.00    -0.250 C  
ENDBRANCH  11  12
BRANCH  11  16
HETATM   16  C   UNL     4      -9.582   7.319  67.456  1.00  0.00    -0.141 C  
HETATM   17  C   UNL     4      -8.082   7.177  67.848  1.00  0.00    -0.119 C  
HETATM   18  O   UNL     4      -7.268   7.787  67.098  1.00  0.00    -0.085 OA 
HETATM   19  O   UNL     4      -7.940   6.707  69.040  1.00  0.00    -0.109 OA 
ENDBRANCH  11  16
ENDBRANCH  10  11
ENDBRANCH   9  10
ENDBRANCH   8   9
BRANCH   8  20
HETATM   20  C   UNL     4      -8.156  11.826  67.208  1.00  0.00    -0.164 C  
HETATM   21  C   UNL     4      -7.411  13.127  67.702  1.00  0.00    -0.164 C  
HETATM   22  O   UNL     4      -6.191  12.954  67.995  1.00  0.00    -0.083 OA 
HETATM   23  O   UNL     4      -8.080  14.216  67.762  1.00  0.00    -0.138 OA 
ENDBRANCH   8  20
ENDBRANCH   7   8
TORSDOF 7
ENDMDL
MODEL      243
REMARK 921   NORMALIZED FREE ENERGY PREDICTED BY IDOCK:   -3.52 KCAL/MOL
REMARK 922        TOTAL FREE ENERGY PREDICTED BY IDOCK:   -6.40 KCAL/MOL
REMARK 923 INTER-LIGAND FREE ENERGY PREDICTED BY IDOCK:   -5.74 KCAL/MOL
REMARK 924 INTRA-LIGAND FREE ENERGY PREDICTED BY IDOCK:   -0.66 KCAL/MOL
REMARK 927      BINDING AFFINITY PREDICTED BY RF-SCORE:    0.00 PKD
ROOT
HETATM    1 NA   UNL     1      -7.888  18.978  69.336  1.00  0.00    -0.295 Na 
HETATM    2 NA   UNL     2     -10.337  20.211  65.632  1.00  0.00    -0.367 Na 
HETATM    3 CA   UNL     3     -12.204  16.440  71.595  1.00  0.00    -0.374 Ca 
HETATM    4  O   UNL     4      -8.392  17.793  67.745  1.00  0.00    -0.228 OA 
HETATM    5  C   UNL     4      -9.501  17.627  67.159  1.00  0.00    -0.267 C  
HETATM    6  O   UNL     4     -10.196  18.610  66.728  1.00  0.00    -0.348 OA 
HETATM    7  C   UNL     4     -10.106  16.230  66.919  1.00  0.00    -0.278 C  
ENDROOT
BRANCH   7   8
HETATM    8  N   UNL     4      -9.622  15.083  67.736  1.00  0.00    -0.202 NA 
BRANCH   8   9
HETATM    9  C   UNL     4     -10.477  13.903  67.899  1.00  0.00    -0.242 C  
BRANCH   9  10
HETATM   10  C   UNL     4      -9.802  12.596  68.320  1.00  0.00    -0.227 C  
BRANCH  10  11
HETATM   11  N   UNL     4     -10.748  11.557  68.798  1.00  0.00    -0.204 NA 
BRANCH  11  12
HETATM   12  C   UNL     4     -11.682  12.032  69.868  1.00  0.00    -0.299 C  
HETATM   13  O   UNL     4     -13.260  10.556  70.954  1.00  0.00    -0.353 OA 
HETATM   14  O   UNL     4     -11.011  10.034  70.955  1.00  0.00    -0.327 OA 
HETATM   15  C   UNL     4     -12.044  10.772  70.734  1.00  0.00    -0.372 C  
ENDBRANCH  11  12
BRANCH  11  16
HETATM   16  C   UNL     4     -11.547  11.024  67.635  1.00  0.00    -0.143 C  
HETATM   17  C   UNL     4     -10.693   9.878  67.017  1.00  0.00    -0.167 C  
HETATM   18  O   UNL     4     -10.276  10.089  65.842  1.00  0.00    -0.259 OA 
HETATM   19  O   UNL     4     -10.305   9.033  67.910  1.00  0.00    -0.212 OA 
ENDBRANCH  11  16
ENDBRANCH  10  11
ENDBRANCH   9  10
ENDBRANCH   8   9
BRANCH   8  20
HETATM   20  C   UNL     4      -8.316  14.608  67.118  1.00  0.00    -0.211 C  
HETATM   21  C   UNL     4      -7.085  14.528  68.102  1.00  0.00    -0.122 C  
HETATM   22  O   UNL     4      -6.292  13.566  67.874  1.00  0.00    -0.122 OA 
HETATM   23  O   UNL     4      -6.991  15.414  69.019  1.00  0.00    -0.120 OA 
ENDBRANCH   8  20
ENDBRANCH   7   8
TORSDOF 7
ENDMDL
MODEL      244
REMARK 921   NORMALIZED FREE ENERGY PREDICTED BY IDOCK:   -3.49 KCAL/MOL
REMARK 922        TOTAL FREE ENERGY PREDICTED BY IDOCK:   -6.37 KCAL/MOL
REMARK 923 INTER-LIGAND FREE ENERGY PREDICTED BY IDOCK:   -5.79 KCAL/MOL
REMARK 924 INTRA-LIGAND FREE ENERGY PREDICTED BY IDOCK:   -0.58 KCAL/MOL
REMARK 927      BINDING AFFINITY PREDICTED BY RF-SCORE:    0.00 PKD
ROOT
HETATM    1 NA   UNL     1      -7.913  16.501  65.602  1.00  0.00    -0.284 Na 
HETATM    2 NA   UNL     2      -8.814  20.235  68.147  1.00  0.00    -0.304 Na 
HETATM    3 CA   UNL     3      -7.524  13.310  70.055  1.00  0.00    -0.324 Ca 
HETATM    4  O   UNL     4      -9.700  16.996  66.468  1.00  0.00    -0.257 OA 
HETATM    5  C   UNL     4      -9.966  17.385  67.642  1.00  0.00    -0.300 C  
HETATM    6  O   UNL     4      -9.358  18.368  68.189  1.00  0.00    -0.297 OA 
HETATM    7  C   UNL     4     -11.044  16.707  68.512  1.00  0.00    -0.301 C  
ENDROOT
BRANCH   7   8
HETATM    8  N   UNL     4     -11.491  15.330  68.163  1.00  0.00    -0.340 NA 
BRANCH   8   9
HETATM    9  C   UNL     4     -10.536  14.220  68.243  1.00  0.00    -0.247 C  
BRANCH   9  10
HETATM   10  C   UNL     4     -10.904  12.919  67.527  1.00  0.00    -0.235 C  
BRANCH  10  11
HETATM   11  N   UNL     4     -10.417  11.696  68.211  1.00  0.00    -0.196 NA 
BRANCH  11  12
HETATM   12  C   UNL     4     -11.496  10.707  68.528  1.00  0.00    -0.265 C  
HETATM   13  O   UNL     4     -11.725   9.702  70.716  1.00  0.00    -0.281 OA 
HETATM   14  O   UNL     4     -11.719  12.002  70.502  1.00  0.00    -0.227 OA 
HETATM   15  C   UNL     4     -11.728  10.784  70.080  1.00  0.00    -0.336 C  
ENDBRANCH  11  12
BRANCH  11  16
HETATM   16  C   UNL     4      -9.359  11.030  67.367  1.00  0.00    -0.155 C  
HETATM   17  C   UNL     4      -8.005  11.291  68.091  1.00  0.00    -0.131 C  
HETATM   18  O   UNL     4      -7.185  12.015  67.457  1.00  0.00    -0.107 OA 
HETATM   19  O   UNL     4      -8.059  10.974  69.340  1.00  0.00    -0.067 OA 
ENDBRANCH  11  16
ENDBRANCH  10  11
ENDBRANCH   9  10
ENDBRANCH   8   9
BRANCH   8  20
HETATM   20  C   UNL     4     -12.654  14.986  69.080  1.00  0.00     0.200 C  
HETATM   21  C   UNL     4     -12.501  15.454  70.580  1.00  0.00    -0.428 C  
HETATM   22  O   UNL     4     -13.582  15.823  71.128  1.00  0.00    -0.576 OA 
HETATM   23  O   UNL     4     -11.334  15.422  71.103  1.00  0.00    -0.329 OA 
ENDBRANCH   8  20
ENDBRANCH   7   8
TORSDOF 7
ENDMDL
MODEL      245
REMARK 921   NORMALIZED FREE ENERGY PREDICTED BY IDOCK:   -3.49 KCAL/MOL
REMARK 922        TOTAL FREE ENERGY PREDICTED BY IDOCK:   -6.36 KCAL/MOL
REMARK 923 INTER-LIGAND FREE ENERGY PREDICTED BY IDOCK:   -6.07 KCAL/MOL
REMARK 924 INTRA-LIGAND FREE ENERGY PREDICTED BY IDOCK:   -0.30 KCAL/MOL
REMARK 927      BINDING AFFINITY PREDICTED BY RF-SCORE:    0.00 PKD
ROOT
HETATM    1 NA   UNL     1     -12.346  13.057  71.397  1.00  0.00    -0.306 Na 
HETATM    2 NA   UNL     2     -12.247   8.618  72.628  1.00  0.00    -0.317 Na 
HETATM    3 CA   UNL     3      -6.950  13.103  70.374  1.00  0.00    -0.356 Ca 
HETATM    4  O   UNL     4     -12.275  11.437  70.148  1.00  0.00    -0.317 OA 
HETATM    5  C   UNL     4     -11.541  10.406  70.177  1.00  0.00    -0.312 C  
HETATM    6  O   UNL     4     -11.423   9.683  71.224  1.00  0.00    -0.339 OA 
HETATM    7  C   UNL     4     -10.728   9.938  68.953  1.00  0.00    -0.221 C  
ENDROOT
BRANCH   7   8
HETATM    8  N   UNL     4     -10.450  10.909  67.858  1.00  0.00    -0.184 NA 
BRANCH   8   9
HETATM    9  C   UNL     4     -10.146  12.304  68.191  1.00  0.00    -0.211 C  
BRANCH   9  10
HETATM   10  C   UNL     4      -9.610  13.196  67.070  1.00  0.00    -0.241 C  
BRANCH  10  11
HETATM   11  N   UNL     4     -10.242  14.538  67.013  1.00  0.00    -0.260 NA 
BRANCH  11  12
HETATM   12  C   UNL     4     -10.828  14.877  65.677  1.00  0.00    -0.341 C  
HETATM   13  O   UNL     4     -11.094  17.160  64.925  1.00  0.00    -0.737 OA 
HETATM   14  O   UNL     4      -9.013  16.400  65.577  1.00  0.00    -0.352 OA 
HETATM   15  C   UNL     4     -10.266  16.291  65.291  1.00  0.00    -0.123 C  
ENDBRANCH  11  12
BRANCH  11  16
HETATM   16  C   UNL     4     -11.313  14.640  68.071  1.00  0.00    -0.311 C  
HETATM   17  C   UNL     4     -10.731  15.564  69.182  1.00  0.00    -0.250 C  
HETATM   18  O   UNL     4     -10.540  15.007  70.301  1.00  0.00    -0.192 OA 
HETATM   19  O   UNL     4     -10.266  16.664  68.697  1.00  0.00    -0.251 OA 
ENDBRANCH  11  16
ENDBRANCH  10  11
ENDBRANCH   9  10
ENDBRANCH   8   9
BRANCH   8  20
HETATM   20  C   UNL     4      -9.268  10.370  67.067  1.00  0.00    -0.147 C  
HETATM   21  C   UNL     4      -7.961  10.082  67.904  1.00  0.00    -0.105 C  
HETATM   22  O   UNL     4      -7.299   9.075  67.515  1.00  0.00    -0.080 OA 
HETATM   23  O   UNL     4      -7.686  10.867  68.877  1.00  0.00    -0.118 OA 
ENDBRANCH   8  20
ENDBRANCH   7   8
TORSDOF 7
ENDMDL
MODEL      246
REMARK 921   NORMALIZED FREE ENERGY PREDICTED BY IDOCK:   -3.49 KCAL/MOL
REMARK 922        TOTAL FREE ENERGY PREDICTED BY IDOCK:   -6.36 KCAL/MOL
REMARK 923 INTER-LIGAND FREE ENERGY PREDICTED BY IDOCK:   -6.25 KCAL/MOL
REMARK 924 INTRA-LIGAND FREE ENERGY PREDICTED BY IDOCK:   -0.11 KCAL/MOL
REMARK 927      BINDING AFFINITY PREDICTED BY RF-SCORE:    0.00 PKD
ROOT
HETATM    1 NA   UNL     1     -11.125  15.898  66.855  1.00  0.00    -0.306 Na 
HETATM    2 NA   UNL     2      -7.268  15.920  69.377  1.00  0.00    -0.139 Na 
HETATM    3 CA   UNL     3      -8.944  12.449  63.179  1.00  0.00    -0.504 Ca 
HETATM    4  O   UNL     4     -10.499  14.448  68.156  1.00  0.00    -0.230 OA 
HETATM    5  C   UNL     4      -9.370  13.893  68.291  1.00  0.00    -0.209 C  
HETATM    6  O   UNL     4      -8.292  14.567  68.425  1.00  0.00    -0.140 OA 
HETATM    7  C   UNL     4      -9.200  12.361  68.302  1.00  0.00    -0.189 C  
ENDROOT
BRANCH   7   8
HETATM    8  N   UNL     4     -10.282  11.511  67.732  1.00  0.00    -0.179 NA 
BRANCH   8   9
HETATM    9  C   UNL     4     -11.012  10.591  68.610  1.00  0.00    -0.248 C  
BRANCH   9  10
HETATM   10  C   UNL     4     -10.765   9.093  68.424  1.00  0.00    -0.115 C  
BRANCH  10  11
HETATM   11  N   UNL     4     -10.503   8.364  69.690  1.00  0.00    -0.220 NA 
BRANCH  11  12
HETATM   12  C   UNL     4     -11.270   7.084  69.823  1.00  0.00    -0.217 C  
HETATM   13  O   UNL     4     -12.037   6.255  71.961  1.00  0.00    -0.337 OA 
HETATM   14  O   UNL     4     -12.634   8.376  71.270  1.00  0.00    -0.292 OA 
HETATM   15  C   UNL     4     -12.110   7.205  71.144  1.00  0.00    -0.358 C  
ENDBRANCH  11  12
BRANCH  11  16
HETATM   16  C   UNL     4      -9.027   8.079  69.815  1.00  0.00    -0.145 C  
HETATM   17  C   UNL     4      -8.498   9.034  70.925  1.00  0.00    -0.208 C  
HETATM   18  O   UNL     4      -7.673   9.909  70.537  1.00  0.00    -0.254 OA 
HETATM   19  O   UNL     4      -9.212   8.966  71.997  1.00  0.00    -0.348 OA 
ENDBRANCH  11  16
ENDBRANCH  10  11
ENDBRANCH   9  10
ENDBRANCH   8   9
BRANCH   8  20
HETATM   20  C   UNL     4     -11.308  12.443  67.107  1.00  0.00    -0.329 C  
HETATM   21  C   UNL     4     -11.495  12.305  65.546  1.00  0.00    -0.361 C  
HETATM   22  O   UNL     4     -12.683  12.478  65.142  1.00  0.00    -0.659 OA 
HETATM   23  O   UNL     4     -10.462  12.038  64.839  1.00  0.00    -0.264 OA 
ENDBRANCH   8  20
ENDBRANCH   7   8
TORSDOF 7
ENDMDL
MODEL      247
REMARK 921   NORMALIZED FREE ENERGY PREDICTED BY IDOCK:   -3.49 KCAL/MOL
REMARK 922        TOTAL FREE ENERGY PREDICTED BY IDOCK:   -6.36 KCAL/MOL
REMARK 923 INTER-LIGAND FREE ENERGY PREDICTED BY IDOCK:   -5.30 KCAL/MOL
REMARK 924 INTRA-LIGAND FREE ENERGY PREDICTED BY IDOCK:   -1.06 KCAL/MOL
REMARK 927      BINDING AFFINITY PREDICTED BY RF-SCORE:    0.00 PKD
ROOT
HETATM    1 NA   UNL     1     -12.033  12.495  67.855  1.00  0.00    -0.261 Na 
HETATM    2 NA   UNL     2     -14.208  12.854  71.901  1.00  0.00    -0.368 Na 
HETATM    3 CA   UNL     3      -7.103  12.478  70.276  1.00  0.00    -0.357 Ca 
HETATM    4  O   UNL     4     -12.378  10.994  69.202  1.00  0.00    -0.451 OA 
HETATM    5  C   UNL     4     -12.206  10.955  70.455  1.00  0.00    -0.367 C  
HETATM    6  O   UNL     4     -12.681  11.850  71.236  1.00  0.00    -0.382 OA 
HETATM    7  C   UNL     4     -11.409   9.830  71.144  1.00  0.00    -0.389 C  
ENDROOT
BRANCH   7   8
HETATM    8  N   UNL     4     -10.472   9.007  70.331  1.00  0.00    -0.201 NA 
BRANCH   8   9
HETATM    9  C   UNL     4      -9.060   9.395  70.247  1.00  0.00    -0.245 C  
BRANCH   9  10
HETATM   10  C   UNL     4      -8.691  10.503  69.259  1.00  0.00    -0.123 C  
BRANCH  10  11
HETATM   11  N   UNL     4      -8.670  10.065  67.841  1.00  0.00    -0.125 NA 
BRANCH  11  12
HETATM   12  C   UNL     4      -9.435  10.962  66.918  1.00  0.00    -0.176 C  
HETATM   13  O   UNL     4      -9.498  10.604  64.527  1.00  0.00    -0.219 OA 
HETATM   14  O   UNL     4     -10.143   8.912  65.960  1.00  0.00    -0.260 OA 
HETATM   15  C   UNL     4      -9.774  10.106  65.645  1.00  0.00    -0.259 C  
ENDBRANCH  11  12
BRANCH  11  16
HETATM   16  C   UNL     4      -7.243   9.954  67.365  1.00  0.00    -0.086 C  
HETATM   17  C   UNL     4      -6.778   8.515  67.736  1.00  0.00    -0.066 C  
HETATM   18  O   UNL     4      -5.851   8.452  68.593  1.00  0.00    -0.042 OA 
HETATM   19  O   UNL     4      -7.613   7.620  67.330  1.00  0.00    -0.103 OA 
ENDBRANCH  11  16
ENDBRANCH  10  11
ENDBRANCH   9  10
ENDBRANCH   8   9
BRANCH   8  20
HETATM   20  C   UNL     4     -10.515   7.592  70.885  1.00  0.00    -0.213 C  
HETATM   21  C   UNL     4     -10.315   6.438  69.827  1.00  0.00    -0.200 C  
HETATM   22  O   UNL     4      -9.675   5.434  70.260  1.00  0.00    -0.169 OA 
HETATM   23  O   UNL     4     -10.802   6.606  68.656  1.00  0.00    -0.240 OA 
ENDBRANCH   8  20
ENDBRANCH   7   8
TORSDOF 7
ENDMDL
MODEL      248
REMARK 921   NORMALIZED FREE ENERGY PREDICTED BY IDOCK:   -3.47 KCAL/MOL
REMARK 922        TOTAL FREE ENERGY PREDICTED BY IDOCK:   -6.34 KCAL/MOL
REMARK 923 INTER-LIGAND FREE ENERGY PREDICTED BY IDOCK:   -6.10 KCAL/MOL
REMARK 924 INTRA-LIGAND FREE ENERGY PREDICTED BY IDOCK:   -0.24 KCAL/MOL
REMARK 927      BINDING AFFINITY PREDICTED BY RF-SCORE:    0.00 PKD
ROOT
HETATM    1 NA   UNL     1      -9.263   8.308  64.257  1.00  0.00    -0.402 Na 
HETATM    2 NA   UNL     2     -11.495   5.151  66.765  1.00  0.00    -0.450 Na 
HETATM    3 CA   UNL     3     -13.089  12.115  65.274  1.00  0.00    -0.403 Ca 
HETATM    4  O   UNL     4      -9.289   8.153  66.298  1.00  0.00    -0.195 OA 
HETATM    5  C   UNL     4     -10.254   7.989  67.099  1.00  0.00    -0.292 C  
HETATM    6  O   UNL     4     -11.107   7.047  66.955  1.00  0.00    -0.359 OA 
HETATM    7  C   UNL     4     -10.483   8.909  68.315  1.00  0.00    -0.195 C  
ENDROOT
BRANCH   7   8
HETATM    8  N   UNL     4      -9.838  10.252  68.334  1.00  0.00    -0.152 NA 
BRANCH   8   9
HETATM    9  C   UNL     4     -10.585  11.402  68.854  1.00  0.00    -0.202 C  
BRANCH   9  10
HETATM   10  C   UNL     4     -10.712  12.628  67.947  1.00  0.00    -0.218 C  
BRANCH  10  11
HETATM   11  N   UNL     4     -10.847  13.910  68.683  1.00  0.00    -0.255 NA 
BRANCH  11  12
HETATM   12  C   UNL     4     -10.450  15.113  67.884  1.00  0.00    -0.245 C  
HETATM   13  O   UNL     4      -9.636  17.141  68.919  1.00  0.00    -0.268 OA 
HETATM   14  O   UNL     4      -8.587  15.130  69.350  1.00  0.00    -0.215 OA 
HETATM   15  C   UNL     4      -9.425  15.914  68.764  1.00  0.00    -0.221 C  
ENDBRANCH  11  12
BRANCH  11  16
HETATM   16  C   UNL     4     -12.267  14.073  69.164  1.00  0.00    -0.262 C  
HETATM   17  C   UNL     4     -12.193  14.101  70.719  1.00  0.00    -0.365 C  
HETATM   18  O   UNL     4     -12.755  13.131  71.304  1.00  0.00    -0.363 OA 
HETATM   19  O   UNL     4     -11.319  14.949  71.143  1.00  0.00    -0.289 OA 
ENDBRANCH  11  16
ENDBRANCH  10  11
ENDBRANCH   9  10
ENDBRANCH   8   9
BRANCH   8  20
HETATM   20  C   UNL     4      -8.569  10.131  69.163  1.00  0.00    -0.165 C  
HETATM   21  C   UNL     4      -8.685   9.245  70.464  1.00  0.00    -0.236 C  
HETATM   22  O   UNL     4      -7.642   8.581  70.741  1.00  0.00    -0.060 OA 
HETATM   23  O   UNL     4      -9.788   9.270  71.112  1.00  0.00    -0.285 OA 
ENDBRANCH   8  20
ENDBRANCH   7   8
TORSDOF 7
ENDMDL
MODEL      249
REMARK 921   NORMALIZED FREE ENERGY PREDICTED BY IDOCK:   -3.47 KCAL/MOL
REMARK 922        TOTAL FREE ENERGY PREDICTED BY IDOCK:   -6.33 KCAL/MOL
REMARK 923 INTER-LIGAND FREE ENERGY PREDICTED BY IDOCK:   -5.47 KCAL/MOL
REMARK 924 INTRA-LIGAND FREE ENERGY PREDICTED BY IDOCK:   -0.86 KCAL/MOL
REMARK 927      BINDING AFFINITY PREDICTED BY RF-SCORE:    0.00 PKD
ROOT
HETATM    1 NA   UNL     1      -7.063  14.223  66.757  1.00  0.00    -0.259 Na 
HETATM    2 NA   UNL     2     -10.493  16.396  68.935  1.00  0.00    -0.199 Na 
HETATM    3 CA   UNL     3      -6.233  10.845  71.008  1.00  0.00    -0.117 Ca 
HETATM    4  O   UNL     4      -8.988  13.565  66.983  1.00  0.00    -0.224 OA 
HETATM    5  C   UNL     4      -9.729  13.522  68.008  1.00  0.00    -0.228 C  
HETATM    6  O   UNL     4      -9.926  14.545  68.749  1.00  0.00    -0.230 OA 
HETATM    7  C   UNL     4     -10.455  12.235  68.448  1.00  0.00    -0.233 C  
ENDROOT
BRANCH   7   8
HETATM    8  N   UNL     4      -9.970  10.923  67.938  1.00  0.00    -0.173 NA 
BRANCH   8   9
HETATM    9  C   UNL     4     -10.432   9.686  68.577  1.00  0.00    -0.212 C  
BRANCH   9  10
HETATM   10  C   UNL     4      -9.664   9.198  69.806  1.00  0.00    -0.181 C  
BRANCH  10  11
HETATM   11  N   UNL     4     -10.449   8.299  70.689  1.00  0.00    -0.200 NA 
BRANCH  11  12
HETATM   12  C   UNL     4      -9.711   7.064  71.107  1.00  0.00    -0.172 C  
HETATM   13  O   UNL     4     -10.854   5.033  71.751  1.00  0.00    -0.149 OA 
HETATM   14  O   UNL     4     -11.275   5.984  69.690  1.00  0.00    -0.394 OA 
HETATM   15  C   UNL     4     -10.670   5.855  70.821  1.00  0.00    -0.277 C  
ENDBRANCH  11  12
BRANCH  11  16
HETATM   16  C   UNL     4     -10.896   9.055  71.915  1.00  0.00    -0.343 C  
HETATM   17  C   UNL     4     -12.396   9.405  71.680  1.00  0.00    -0.385 C  
HETATM   18  O   UNL     4     -12.652  10.638  71.576  1.00  0.00    -0.388 OA 
HETATM   19  O   UNL     4     -13.082   8.369  71.334  1.00  0.00    -0.299 OA 
ENDBRANCH  11  16
ENDBRANCH  10  11
ENDBRANCH   9  10
ENDBRANCH   8   9
BRANCH   8  20
HETATM   20  C   UNL     4     -10.356  10.839  66.469  1.00  0.00    -0.244 C  
HETATM   21  C   UNL     4      -9.218  10.345  65.492  1.00  0.00    -0.184 C  
HETATM   22  O   UNL     4      -9.627   9.632  64.528  1.00  0.00    -0.224 OA 
HETATM   23  O   UNL     4      -8.015  10.697  65.746  1.00  0.00    -0.159 OA 
ENDBRANCH   8  20
ENDBRANCH   7   8
TORSDOF 7
ENDMDL
MODEL      250
REMARK 921   NORMALIZED FREE ENERGY PREDICTED BY IDOCK:   -3.47 KCAL/MOL
REMARK 922        TOTAL FREE ENERGY PREDICTED BY IDOCK:   -6.33 KCAL/MOL
REMARK 923 INTER-LIGAND FREE ENERGY PREDICTED BY IDOCK:   -5.44 KCAL/MOL
REMARK 924 INTRA-LIGAND FREE ENERGY PREDICTED BY IDOCK:   -0.89 KCAL/MOL
REMARK 927      BINDING AFFINITY PREDICTED BY RF-SCORE:    0.00 PKD
ROOT
HETATM    1 NA   UNL     1     -10.330   9.652  72.098  1.00  0.00    -0.299 Na 
HETATM    2 NA   UNL     2     -12.930   5.899  72.728  1.00  0.00    -0.500 Na 
HETATM    3 CA   UNL     3      -6.068   6.655  70.360  1.00  0.00    -0.020 Ca 
HETATM    4  O   UNL     4     -11.303   8.574  70.655  1.00  0.00    -0.259 OA 
HETATM    5  C   UNL     4     -11.353   7.327  70.452  1.00  0.00    -0.271 C  
HETATM    6  O   UNL     4     -11.670   6.498  71.373  1.00  0.00    -0.302 OA 
HETATM    7  C   UNL     4     -11.034   6.702  69.079  1.00  0.00    -0.279 C  
ENDROOT
BRANCH   7   8
HETATM    8  N   UNL     4     -10.255   7.495  68.088  1.00  0.00    -0.183 NA 
BRANCH   8   9
HETATM    9  C   UNL     4     -10.757   8.803  67.657  1.00  0.00    -0.136 C  
BRANCH   9  10
HETATM   10  C   UNL     4      -9.797   9.991  67.744  1.00  0.00    -0.157 C  
BRANCH  10  11
HETATM   11  N   UNL     4     -10.102  11.084  66.786  1.00  0.00    -0.213 NA 
BRANCH  11  12
HETATM   12  C   UNL     4     -10.313  12.417  67.435  1.00  0.00    -0.207 C  
HETATM   13  O   UNL     4     -11.208  14.313  66.230  1.00  0.00    -0.324 OA 
HETATM   14  O   UNL     4     -12.393  12.332  66.300  1.00  0.00    -0.556 OA 
HETATM   15  C   UNL     4     -11.438  13.140  66.612  1.00  0.00    -0.348 C  
ENDBRANCH  11  12
BRANCH  11  16
HETATM   16  C   UNL     4      -8.995  11.190  65.768  1.00  0.00    -0.196 C  
HETATM   17  C   UNL     4      -9.500  10.432  64.504  1.00  0.00    -0.286 C  
HETATM   18  O   UNL     4      -8.848   9.393  64.201  1.00  0.00    -0.214 OA 
HETATM   19  O   UNL     4     -10.677  10.822  64.149  1.00  0.00    -0.295 OA 
ENDBRANCH  11  16
ENDBRANCH  10  11
ENDBRANCH   9  10
ENDBRANCH   8   9
BRANCH   8  20
HETATM   20  C   UNL     4      -8.871   7.719  68.677  1.00  0.00    -0.131 C  
HETATM   21  C   UNL     4      -7.704   6.889  68.013  1.00  0.00    -0.113 C  
HETATM   22  O   UNL     4      -6.596   7.500  67.950  1.00  0.00    -0.054 OA 
HETATM   23  O   UNL     4      -7.965   5.704  67.608  1.00  0.00    -0.100 OA 
ENDBRANCH   8  20
ENDBRANCH   7   8
TORSDOF 7
ENDMDL
MODEL      251
REMARK 921   NORMALIZED FREE ENERGY PREDICTED BY IDOCK:   -3.46 KCAL/MOL
REMARK 922        TOTAL FREE ENERGY PREDICTED BY IDOCK:   -6.31 KCAL/MOL
REMARK 923 INTER-LIGAND FREE ENERGY PREDICTED BY IDOCK:   -5.64 KCAL/MOL
REMARK 924 INTRA-LIGAND FREE ENERGY PREDICTED BY IDOCK:   -0.68 KCAL/MOL
REMARK 927      BINDING AFFINITY PREDICTED BY RF-SCORE:    0.00 PKD
ROOT
HETATM    1 NA   UNL     1     -12.006   6.004  67.255  1.00  0.00    -0.424 Na 
HETATM    2 NA   UNL     2      -7.561   6.120  66.042  1.00  0.00    -0.072 Na 
HETATM    3 CA   UNL     3     -10.753   5.894  72.602  1.00  0.00    -0.184 Ca 
HETATM    4  O   UNL     4     -10.763   7.630  67.294  1.00  0.00    -0.306 OA 
HETATM    5  C   UNL     4      -9.589   7.759  67.748  1.00  0.00    -0.146 C  
HETATM    6  O   UNL     4      -8.642   6.964  67.422  1.00  0.00    -0.120 OA 
HETATM    7  C   UNL     4      -9.203   8.882  68.731  1.00  0.00    -0.140 C  
ENDROOT
BRANCH   7   8
HETATM    8  N   UNL     4     -10.278   9.572  69.496  1.00  0.00    -0.201 NA 
BRANCH   8   9
HETATM    9  C   UNL     4     -11.347  10.265  68.770  1.00  0.00    -0.167 C  
BRANCH   9  10
HETATM   10  C   UNL     4     -10.961  11.018  67.495  1.00  0.00    -0.281 C  
BRANCH  10  11
HETATM   11  N   UNL     4     -10.723  12.469  67.701  1.00  0.00    -0.214 NA 
BRANCH  11  12
HETATM   12  C   UNL     4     -11.757  13.139  68.553  1.00  0.00    -0.352 C  
HETATM   13  O   UNL     4     -11.986  15.544  68.654  1.00  0.00    -0.335 OA 
HETATM   14  O   UNL     4     -12.095  14.464  66.616  1.00  0.00    -0.419 OA 
HETATM   15  C   UNL     4     -12.030  14.541  67.901  1.00  0.00    -0.287 C  
ENDBRANCH  11  12
BRANCH  11  16
HETATM   16  C   UNL     4      -9.359  12.678  68.309  1.00  0.00    -0.195 C  
HETATM   17  C   UNL     4      -8.441  13.161  67.148  1.00  0.00    -0.169 C  
HETATM   18  O   UNL     4      -7.505  12.371  66.836  1.00  0.00    -0.078 OA 
HETATM   19  O   UNL     4      -8.963  14.147  66.501  1.00  0.00    -0.213 OA 
ENDBRANCH  11  16
ENDBRANCH  10  11
ENDBRANCH   9  10
ENDBRANCH   8   9
BRANCH   8  20
HETATM   20  C   UNL     4     -10.942   8.530  70.383  1.00  0.00    -0.238 C  
HETATM   21  C   UNL     4     -10.582   8.611  71.917  1.00  0.00    -0.340 C  
HETATM   22  O   UNL     4     -11.535   8.314  72.697  1.00  0.00    -0.395 OA 
HETATM   23  O   UNL     4      -9.392   8.956  72.237  1.00  0.00    -0.360 OA 
ENDBRANCH   8  20
ENDBRANCH   7   8
TORSDOF 7
ENDMDL
MODEL      252
REMARK 921   NORMALIZED FREE ENERGY PREDICTED BY IDOCK:   -3.45 KCAL/MOL
REMARK 922        TOTAL FREE ENERGY PREDICTED BY IDOCK:   -6.31 KCAL/MOL
REMARK 923 INTER-LIGAND FREE ENERGY PREDICTED BY IDOCK:   -5.66 KCAL/MOL
REMARK 924 INTRA-LIGAND FREE ENERGY PREDICTED BY IDOCK:   -0.65 KCAL/MOL
REMARK 927      BINDING AFFINITY PREDICTED BY RF-SCORE:    0.00 PKD
ROOT
HETATM    1 NA   UNL     1      -9.523   8.436  63.666  1.00  0.00    -0.360 Na 
HETATM    2 NA   UNL     2     -10.694   6.459  67.661  1.00  0.00    -0.141 Na 
HETATM    3 CA   UNL     3     -13.240  12.427  64.320  1.00  0.00    -0.534 Ca 
HETATM    4  O   UNL     4      -8.973   9.038  65.543  1.00  0.00    -0.184 OA 
HETATM    5  C   UNL     4      -9.663   9.197  66.593  1.00  0.00    -0.223 C  
HETATM    6  O   UNL     4     -10.437   8.285  67.044  1.00  0.00    -0.310 OA 
HETATM    7  C   UNL     4      -9.628  10.502  67.412  1.00  0.00    -0.158 C  
ENDROOT
BRANCH   7   8
HETATM    8  N   UNL     4      -9.123  11.747  66.767  1.00  0.00    -0.188 NA 
BRANCH   8   9
HETATM    9  C   UNL     4     -10.030  12.885  66.589  1.00  0.00    -0.251 C  
BRANCH   9  10
HETATM   10  C   UNL     4     -10.162  13.869  67.753  1.00  0.00    -0.237 C  
BRANCH  10  11
HETATM   11  N   UNL     4      -9.732  15.252  67.425  1.00  0.00    -0.208 NA 
BRANCH  11  12
HETATM   12  C   UNL     4     -10.866  16.187  67.135  1.00  0.00    -0.216 C  
HETATM   13  O   UNL     4     -10.733  17.886  65.419  1.00  0.00    -0.634 OA 
HETATM   14  O   UNL     4     -10.349  15.674  64.879  1.00  0.00    -0.441 OA 
HETATM   15  C   UNL     4     -10.690  16.652  65.646  1.00  0.00    -0.214 C  
ENDBRANCH  11  12
BRANCH  11  16
HETATM   16  C   UNL     4      -8.900  15.806  68.554  1.00  0.00    -0.193 C  
HETATM   17  C   UNL     4      -7.573  16.300  67.906  1.00  0.00    -0.137 C  
HETATM   18  O   UNL     4      -6.533  15.674  68.263  1.00  0.00    -0.108 OA 
HETATM   19  O   UNL     4      -7.789  17.066  66.892  1.00  0.00    -0.178 OA 
ENDBRANCH  11  16
ENDBRANCH  10  11
ENDBRANCH   9  10
ENDBRANCH   8   9
BRANCH   8  20
HETATM   20  C   UNL     4      -7.945  12.238  67.593  1.00  0.00    -0.161 C  
HETATM   21  C   UNL     4      -6.517  11.947  66.986  1.00  0.00    -0.136 C  
HETATM   22  O   UNL     4      -5.660  12.855  67.201  1.00  0.00    -0.344 OA 
HETATM   23  O   UNL     4      -6.348  10.852  66.348  1.00  0.00    -0.109 OA 
ENDBRANCH   8  20
ENDBRANCH   7   8
TORSDOF 7
ENDMDL
MODEL      253
REMARK 921   NORMALIZED FREE ENERGY PREDICTED BY IDOCK:   -3.45 KCAL/MOL
REMARK 922        TOTAL FREE ENERGY PREDICTED BY IDOCK:   -6.30 KCAL/MOL
REMARK 923 INTER-LIGAND FREE ENERGY PREDICTED BY IDOCK:   -5.40 KCAL/MOL
REMARK 924 INTRA-LIGAND FREE ENERGY PREDICTED BY IDOCK:   -0.90 KCAL/MOL
REMARK 927      BINDING AFFINITY PREDICTED BY RF-SCORE:    0.00 PKD
ROOT
HETATM    1 NA   UNL     1     -12.262  11.982  65.556  1.00  0.00    -0.371 Na 
HETATM    2 NA   UNL     2     -12.290  15.974  63.254  1.00  0.00    -0.868 Na 
HETATM    3 CA   UNL     3      -6.989  11.072  64.317  1.00  0.00    -0.325 Ca 
HETATM    4  O   UNL     4     -11.503  13.773  66.192  1.00  0.00    -0.322 OA 
HETATM    5  C   UNL     4     -10.761  14.610  65.601  1.00  0.00    -0.332 C  
HETATM    6  O   UNL     4     -11.042  15.070  64.442  1.00  0.00    -0.261 OA 
HETATM    7  C   UNL     4      -9.457  15.143  66.226  1.00  0.00    -0.309 C  
ENDROOT
BRANCH   7   8
HETATM    8  N   UNL     4      -8.823  14.377  67.335  1.00  0.00    -0.192 NA 
BRANCH   8   9
HETATM    9  C   UNL     4      -8.871  12.912  67.319  1.00  0.00    -0.206 C  
BRANCH   9  10
HETATM   10  C   UNL     4      -8.051  12.167  68.374  1.00  0.00    -0.149 C  
BRANCH  10  11
HETATM   11  N   UNL     4      -8.380  10.724  68.485  1.00  0.00    -0.131 NA 
BRANCH  11  12
HETATM   12  C   UNL     4      -9.626  10.444  69.268  1.00  0.00    -0.209 C  
HETATM   13  O   UNL     4      -9.951   8.380  70.485  1.00  0.00    -0.182 OA 
HETATM   14  O   UNL     4      -8.092   9.683  70.908  1.00  0.00    -0.293 OA 
HETATM   15  C   UNL     4      -9.232   9.402  70.374  1.00  0.00    -0.257 C  
ENDBRANCH  11  12
BRANCH  11  16
HETATM   16  C   UNL     4      -8.509  10.125  67.107  1.00  0.00    -0.125 C  
HETATM   17  C   UNL     4      -7.271   9.198  66.924  1.00  0.00    -0.086 C  
HETATM   18  O   UNL     4      -6.458   9.555  66.025  1.00  0.00    -0.070 OA 
HETATM   19  O   UNL     4      -7.128   8.387  67.916  1.00  0.00    -0.079 OA 
ENDBRANCH  11  16
ENDBRANCH  10  11
ENDBRANCH   9  10
ENDBRANCH   8   9
BRANCH   8  20
HETATM   20  C   UNL     4      -7.356  14.775  67.378  1.00  0.00    -0.185 C  
HETATM   21  C   UNL     4      -6.926  15.668  68.607  1.00  0.00    -0.125 C  
HETATM   22  O   UNL     4      -5.762  15.432  69.047  1.00  0.00    -0.097 OA 
HETATM   23  O   UNL     4      -7.764  16.531  69.044  1.00  0.00    -0.225 OA 
ENDBRANCH   8  20
ENDBRANCH   7   8
TORSDOF 7
ENDMDL
MODEL      254
REMARK 921   NORMALIZED FREE ENERGY PREDICTED BY IDOCK:   -3.44 KCAL/MOL
REMARK 922        TOTAL FREE ENERGY PREDICTED BY IDOCK:   -6.30 KCAL/MOL
REMARK 923 INTER-LIGAND FREE ENERGY PREDICTED BY IDOCK:   -6.62 KCAL/MOL
REMARK 924 INTRA-LIGAND FREE ENERGY PREDICTED BY IDOCK:    0.32 KCAL/MOL
REMARK 927      BINDING AFFINITY PREDICTED BY RF-SCORE:    0.00 PKD
ROOT
HETATM    1 NA   UNL     1      -9.937  16.299  65.231  1.00  0.00    -0.284 Na 
HETATM    2 NA   UNL     2      -8.871  20.174  67.486  1.00  0.00    -0.280 Na 
HETATM    3 CA   UNL     3      -6.983  13.229  68.697  1.00  0.00    -0.069 Ca 
HETATM    4  O   UNL     4     -10.759  16.968  66.982  1.00  0.00    -0.265 OA 
HETATM    5  C   UNL     4     -10.212  17.415  68.031  1.00  0.00    -0.345 C  
HETATM    6  O   UNL     4      -9.352  18.361  68.001  1.00  0.00    -0.277 OA 
HETATM    7  C   UNL     4     -10.534  16.857  69.432  1.00  0.00    -0.283 C  
ENDROOT
BRANCH   7   8
HETATM    8  N   UNL     4     -11.163  15.512  69.545  1.00  0.00    -0.275 NA 
BRANCH   8   9
HETATM    9  C   UNL     4     -10.483  14.348  68.967  1.00  0.00    -0.222 C  
BRANCH   9  10
HETATM   10  C   UNL     4     -11.334  13.113  68.666  1.00  0.00    -0.289 C  
BRANCH  10  11
HETATM   11  N   UNL     4     -10.567  11.979  68.092  1.00  0.00    -0.202 NA 
BRANCH  11  12
HETATM   12  C   UNL     4     -11.394  10.757  67.834  1.00  0.00    -0.299 C  
HETATM   13  O   UNL     4     -10.414   8.656  67.145  1.00  0.00    -0.285 OA 
HETATM   14  O   UNL     4      -9.693   9.679  69.085  1.00  0.00    -0.165 OA 
HETATM   15  C   UNL     4     -10.446   9.524  68.050  1.00  0.00    -0.230 C  
ENDBRANCH  11  12
BRANCH  11  16
HETATM   16  C   UNL     4      -9.900  12.413  66.811  1.00  0.00    -0.222 C  
HETATM   17  C   UNL     4     -10.971  12.250  65.692  1.00  0.00    -0.299 C  
HETATM   18  O   UNL     4     -10.707  11.379  64.815  1.00  0.00    -0.299 OA 
HETATM   19  O   UNL     4     -12.085  12.818  66.007  1.00  0.00    -0.436 OA 
ENDBRANCH  11  16
ENDBRANCH  10  11
ENDBRANCH   9  10
ENDBRANCH   8   9
BRANCH   8  20
HETATM   20  C   UNL     4     -11.355  15.227  71.027  1.00  0.00    -0.351 C  
HETATM   21  C   UNL     4     -12.840  14.936  71.478  1.00  0.00    -0.335 C  
HETATM   22  O   UNL     4     -12.949  14.075  72.401  1.00  0.00    -0.381 OA 
HETATM   23  O   UNL     4     -13.781  15.575  70.894  1.00  0.00    -0.524 OA 
ENDBRANCH   8  20
ENDBRANCH   7   8
TORSDOF 7
ENDMDL
MODEL      255
REMARK 921   NORMALIZED FREE ENERGY PREDICTED BY IDOCK:   -3.44 KCAL/MOL
REMARK 922        TOTAL FREE ENERGY PREDICTED BY IDOCK:   -6.29 KCAL/MOL
REMARK 923 INTER-LIGAND FREE ENERGY PREDICTED BY IDOCK:   -5.41 KCAL/MOL
REMARK 924 INTRA-LIGAND FREE ENERGY PREDICTED BY IDOCK:   -0.88 KCAL/MOL
REMARK 927      BINDING AFFINITY PREDICTED BY RF-SCORE:    0.00 PKD
ROOT
HETATM    1 NA   UNL     1     -10.249  10.645  70.672  1.00  0.00    -0.381 Na 
HETATM    2 NA   UNL     2     -14.322  11.144  72.769  1.00  0.00    -0.494 Na 
HETATM    3 CA   UNL     3      -8.493   7.099  74.482  1.00  0.00    -0.127 Ca 
HETATM    4  O   UNL     4     -11.831   9.348  70.610  1.00  0.00    -0.265 OA 
HETATM    5  C   UNL     4     -12.558   8.890  71.539  1.00  0.00    -0.331 C  
HETATM    6  O   UNL     4     -13.135   9.651  72.389  1.00  0.00    -0.403 OA 
HETATM    7  C   UNL     4     -12.808   7.380  71.723  1.00  0.00    -0.329 C  
ENDROOT
BRANCH   7   8
HETATM    8  N   UNL     4     -11.872   6.411  71.089  1.00  0.00    -0.316 NA 
BRANCH   8   9
HETATM    9  C   UNL     4     -11.524   6.566  69.673  1.00  0.00    -0.352 C  
BRANCH   9  10
HETATM   10  C   UNL     4     -10.056   6.381  69.283  1.00  0.00    -0.172 C  
BRANCH  10  11
HETATM   11  N   UNL     4      -9.563   7.378  68.300  1.00  0.00    -0.149 NA 
BRANCH  11  12
HETATM   12  C   UNL     4     -10.615   7.868  67.353  1.00  0.00    -0.272 C  
HETATM   13  O   UNL     4     -10.220   9.688  65.812  1.00  0.00    -0.261 OA 
HETATM   14  O   UNL     4      -8.829   7.845  65.794  1.00  0.00    -0.163 OA 
HETATM   15  C   UNL     4      -9.856   8.536  66.152  1.00  0.00    -0.157 C  
ENDBRANCH  11  12
BRANCH  11  16
HETATM   16  C   UNL     4      -8.959   8.553  69.029  1.00  0.00    -0.146 C  
HETATM   17  C   UNL     4      -7.571   8.069  69.545  1.00  0.00    -0.101 C  
HETATM   18  O   UNL     4      -7.453   8.013  70.802  1.00  0.00    -0.068 OA 
HETATM   19  O   UNL     4      -6.873   7.525  68.607  1.00  0.00    -0.061 OA 
ENDBRANCH  11  16
ENDBRANCH  10  11
ENDBRANCH   9  10
ENDBRANCH   8   9
BRANCH   8  20
HETATM   20  C   UNL     4     -10.572   6.458  71.877  1.00  0.00    -0.214 C  
HETATM   21  C   UNL     4     -10.319   5.241  72.850  1.00  0.00    -0.196 C  
HETATM   22  O   UNL     4      -9.107   4.886  72.943  1.00  0.00    -0.122 OA 
HETATM   23  O   UNL     4     -11.329   4.730  73.446  1.00  0.00    -0.331 OA 
ENDBRANCH   8  20
ENDBRANCH   7   8
TORSDOF 7
ENDMDL
MODEL      256
REMARK 921   NORMALIZED FREE ENERGY PREDICTED BY IDOCK:   -3.44 KCAL/MOL
REMARK 922        TOTAL FREE ENERGY PREDICTED BY IDOCK:   -6.29 KCAL/MOL
REMARK 923 INTER-LIGAND FREE ENERGY PREDICTED BY IDOCK:   -6.60 KCAL/MOL
REMARK 924 INTRA-LIGAND FREE ENERGY PREDICTED BY IDOCK:    0.31 KCAL/MOL
REMARK 927      BINDING AFFINITY PREDICTED BY RF-SCORE:    0.00 PKD
ROOT
HETATM    1 NA   UNL     1     -13.394  14.022  68.914  1.00  0.00    -0.302 Na 
HETATM    2 NA   UNL     2     -10.976  17.752  70.128  1.00  0.00    -0.501 Na 
HETATM    3 CA   UNL     3     -13.517  15.566  63.645  1.00  0.00    -0.525 Ca 
HETATM    4  O   UNL     4     -11.387  14.323  68.655  1.00  0.00    -0.246 OA 
HETATM    5  C   UNL     4     -10.755  15.318  68.195  1.00  0.00    -0.257 C  
HETATM    6  O   UNL     4     -10.940  16.504  68.636  1.00  0.00    -0.328 OA 
HETATM    7  C   UNL     4      -9.714  15.185  67.067  1.00  0.00    -0.231 C  
ENDROOT
BRANCH   7   8
HETATM    8  N   UNL     4      -9.735  13.970  66.205  1.00  0.00    -0.295 NA 
BRANCH   8   9
HETATM    9  C   UNL     4      -9.908  12.651  66.823  1.00  0.00    -0.235 C  
BRANCH   9  10
HETATM   10  C   UNL     4      -8.942  11.543  66.400  1.00  0.00    -0.197 C  
BRANCH  10  11
HETATM   11  N   UNL     4      -7.963  11.163  67.449  1.00  0.00    -0.121 NA 
BRANCH  11  12
HETATM   12  C   UNL     4      -7.866   9.687  67.683  1.00  0.00    -0.095 C  
HETATM   13  O   UNL     4      -7.224   8.757  69.820  1.00  0.00    -0.049 OA 
HETATM   14  O   UNL     4      -9.015  10.208  69.690  1.00  0.00    -0.202 OA 
HETATM   15  C   UNL     4      -8.070   9.466  69.224  1.00  0.00    -0.105 C  
ENDBRANCH  11  12
BRANCH  11  16
HETATM   16  C   UNL     4      -6.602  11.705  67.093  1.00  0.00    -0.134 C  
HETATM   17  C   UNL     4      -6.401  12.973  67.975  1.00  0.00    -0.115 C  
HETATM   18  O   UNL     4      -6.324  14.064  67.341  1.00  0.00    -0.323 OA 
HETATM   19  O   UNL     4      -6.641  12.736  69.219  1.00  0.00    -0.105 OA 
ENDBRANCH  11  16
ENDBRANCH  10  11
ENDBRANCH   9  10
ENDBRANCH   8   9
BRANCH   8  20
HETATM   20  C   UNL     4     -10.866  14.146  65.203  1.00  0.00    -0.372 C  
HETATM   21  C   UNL     4     -12.221  13.422  65.570  1.00  0.00    -0.455 C  
HETATM   22  O   UNL     4     -13.263  14.055  65.227  1.00  0.00    -0.782 OA 
HETATM   23  O   UNL     4     -12.156  12.291  66.162  1.00  0.00    -0.625 OA 
ENDBRANCH   8  20
ENDBRANCH   7   8
TORSDOF 7
ENDMDL
MODEL      257
REMARK 921   NORMALIZED FREE ENERGY PREDICTED BY IDOCK:   -3.44 KCAL/MOL
REMARK 922        TOTAL FREE ENERGY PREDICTED BY IDOCK:   -6.29 KCAL/MOL
REMARK 923 INTER-LIGAND FREE ENERGY PREDICTED BY IDOCK:   -4.66 KCAL/MOL
REMARK 924 INTRA-LIGAND FREE ENERGY PREDICTED BY IDOCK:   -1.63 KCAL/MOL
REMARK 927      BINDING AFFINITY PREDICTED BY RF-SCORE:    0.00 PKD
ROOT
HETATM    1 NA   UNL     1     -11.590   8.437  67.388  1.00  0.00    -0.492 Na 
HETATM    2 NA   UNL     2     -11.695  10.719  63.385  1.00  0.00    -0.578 Na 
HETATM    3 CA   UNL     3      -6.193   7.517  66.954  1.00  0.00    -0.035 Ca 
HETATM    4  O   UNL     4     -10.995  10.367  67.057  1.00  0.00    -0.244 OA 
HETATM    5  C   UNL     4     -10.264  10.859  66.149  1.00  0.00    -0.249 C  
HETATM    6  O   UNL     4     -10.486  10.649  64.907  1.00  0.00    -0.312 OA 
HETATM    7  C   UNL     4      -9.047  11.751  66.463  1.00  0.00    -0.203 C  
ENDROOT
BRANCH   7   8
HETATM    8  N   UNL     4      -8.451  11.705  67.827  1.00  0.00    -0.138 NA 
BRANCH   8   9
HETATM    9  C   UNL     4      -7.719  10.509  68.254  1.00  0.00    -0.101 C  
BRANCH   9  10
HETATM   10  C   UNL     4      -7.690  10.196  69.751  1.00  0.00    -0.168 C  
BRANCH  10  11
HETATM   11  N   UNL     4      -8.361   8.922  70.114  1.00  0.00    -0.126 NA 
BRANCH  11  12
HETATM   12  C   UNL     4      -7.419   7.845  70.554  1.00  0.00    -0.073 C  
HETATM   13  O   UNL     4      -7.947   5.496  70.328  1.00  0.00    -0.096 OA 
HETATM   14  O   UNL     4      -7.999   6.869  68.473  1.00  0.00    -0.116 OA 
HETATM   15  C   UNL     4      -7.771   6.571  69.706  1.00  0.00    -0.113 C  
ENDBRANCH  11  12
BRANCH  11  16
HETATM   16  C   UNL     4      -9.377   9.175  71.199  1.00  0.00    -0.243 C  
HETATM   17  C   UNL     4     -10.758   9.253  70.484  1.00  0.00    -0.257 C  
HETATM   18  O   UNL     4     -11.329  10.380  70.536  1.00  0.00    -0.310 OA 
HETATM   19  O   UNL     4     -10.955   8.243  69.707  1.00  0.00    -0.224 OA 
ENDBRANCH  11  16
ENDBRANCH  10  11
ENDBRANCH   9  10
ENDBRANCH   8   9
BRANCH   8  20
HETATM   20  C   UNL     4      -7.492  12.880  67.941  1.00  0.00    -0.131 C  
HETATM   21  C   UNL     4      -8.035  14.129  68.740  1.00  0.00    -0.102 C  
HETATM   22  O   UNL     4      -7.159  14.737  69.423  1.00  0.00    -0.149 OA 
HETATM   23  O   UNL     4      -9.277  14.416  68.633  1.00  0.00    -0.196 OA 
ENDBRANCH   8  20
ENDBRANCH   7   8
TORSDOF 7
ENDMDL
MODEL      258
REMARK 921   NORMALIZED FREE ENERGY PREDICTED BY IDOCK:   -3.44 KCAL/MOL
REMARK 922        TOTAL FREE ENERGY PREDICTED BY IDOCK:   -6.29 KCAL/MOL
REMARK 923 INTER-LIGAND FREE ENERGY PREDICTED BY IDOCK:   -4.92 KCAL/MOL
REMARK 924 INTRA-LIGAND FREE ENERGY PREDICTED BY IDOCK:   -1.36 KCAL/MOL
REMARK 927      BINDING AFFINITY PREDICTED BY RF-SCORE:    0.00 PKD
ROOT
HETATM    1 NA   UNL     1     -11.769   4.954  66.290  1.00  0.00    -0.497 Na 
HETATM    2 NA   UNL     2      -8.145   3.012  68.370  1.00  0.00    -0.061 Na 
HETATM    3 CA   UNL     3     -12.796   8.164  70.627  1.00  0.00    -0.467 Ca 
HETATM    4  O   UNL     4      -9.899   5.757  66.504  1.00  0.00    -0.154 OA 
HETATM    5  C   UNL     4      -9.147   5.836  67.518  1.00  0.00    -0.106 C  
HETATM    6  O   UNL     4      -8.859   4.816  68.234  1.00  0.00    -0.101 OA 
HETATM    7  C   UNL     4      -8.518   7.167  67.978  1.00  0.00    -0.122 C  
ENDROOT
BRANCH   7   8
HETATM    8  N   UNL     4      -9.113   8.448  67.504  1.00  0.00    -0.134 NA 
BRANCH   8   9
HETATM    9  C   UNL     4     -10.078   9.152  68.354  1.00  0.00    -0.196 C  
BRANCH   9  10
HETATM   10  C   UNL     4      -9.759  10.598  68.735  1.00  0.00    -0.189 C  
BRANCH  10  11
HETATM   11  N   UNL     4     -10.846  11.559  68.419  1.00  0.00    -0.198 NA 
BRANCH  11  12
HETATM   12  C   UNL     4     -10.944  11.907  66.966  1.00  0.00    -0.278 C  
HETATM   13  O   UNL     4     -12.325  13.724  66.164  1.00  0.00    -0.445 OA 
HETATM   14  O   UNL     4     -10.712  14.127  67.767  1.00  0.00    -0.244 OA 
HETATM   15  C   UNL     4     -11.353  13.422  66.898  1.00  0.00    -0.323 C  
ENDBRANCH  11  12
BRANCH  11  16
HETATM   16  C   UNL     4     -12.166  11.005  68.893  1.00  0.00    -0.030 C  
HETATM   17  C   UNL     4     -12.359  11.537  70.343  1.00  0.00    -0.305 C  
HETATM   18  O   UNL     4     -12.362  10.652  71.247  1.00  0.00    -0.360 OA 
HETATM   19  O   UNL     4     -12.189  12.813  70.413  1.00  0.00    -0.350 OA 
ENDBRANCH  11  16
ENDBRANCH  10  11
ENDBRANCH   9  10
ENDBRANCH   8   9
BRANCH   8  20
HETATM   20  C   UNL     4      -7.964   9.409  67.240  1.00  0.00    -0.106 C  
HETATM   21  C   UNL     4      -7.584   9.618  65.723  1.00  0.00    -0.103 C  
HETATM   22  O   UNL     4      -7.213  10.794  65.432  1.00  0.00    -0.061 OA 
HETATM   23  O   UNL     4      -7.678   8.614  64.936  1.00  0.00    -0.095 OA 
ENDBRANCH   8  20
ENDBRANCH   7   8
TORSDOF 7
ENDMDL
MODEL      259
REMARK 921   NORMALIZED FREE ENERGY PREDICTED BY IDOCK:   -3.43 KCAL/MOL
REMARK 922        TOTAL FREE ENERGY PREDICTED BY IDOCK:   -6.28 KCAL/MOL
REMARK 923 INTER-LIGAND FREE ENERGY PREDICTED BY IDOCK:   -7.43 KCAL/MOL
REMARK 924 INTRA-LIGAND FREE ENERGY PREDICTED BY IDOCK:    1.15 KCAL/MOL
REMARK 927      BINDING AFFINITY PREDICTED BY RF-SCORE:    0.00 PKD
ROOT
HETATM    1 NA   UNL     1     -11.139  18.608  67.403  1.00  0.00    -0.388 Na 
HETATM    2 NA   UNL     2      -6.971  18.673  65.440  1.00  0.00    -0.218 Na 
HETATM    3 CA   UNL     3     -13.228  15.559  63.339  1.00  0.00    -0.603 Ca 
HETATM    4  O   UNL     4      -9.748  17.107  67.423  1.00  0.00    -0.245 OA 
HETATM    5  C   UNL     4      -9.058  16.610  66.485  1.00  0.00    -0.272 C  
HETATM    6  O   UNL     4      -8.358  17.334  65.697  1.00  0.00    -0.475 OA 
HETATM    7  C   UNL     4      -9.006  15.094  66.214  1.00  0.00    -0.239 C  
ENDROOT
BRANCH   7   8
HETATM    8  N   UNL     4     -10.083  14.225  66.764  1.00  0.00    -0.259 NA 
BRANCH   8   9
HETATM    9  C   UNL     4     -10.362  14.245  68.203  1.00  0.00    -0.233 C  
BRANCH   9  10
HETATM   10  C   UNL     4     -10.983  12.991  68.819  1.00  0.00    -0.258 C  
BRANCH  10  11
HETATM   11  N   UNL     4     -12.242  13.245  69.563  1.00  0.00    -0.233 NA 
BRANCH  11  12
HETATM   12  C   UNL     4     -12.187  12.843  71.005  1.00  0.00    -0.116 C  
HETATM   13  O   UNL     4     -13.781  11.309  71.981  1.00  0.00    -0.165 OA 
HETATM   14  O   UNL     4     -12.558  10.672  70.128  1.00  0.00    -0.318 OA 
HETATM   15  C   UNL     4     -12.893  11.444  71.104  1.00  0.00    -0.341 C  
ENDBRANCH  11  12
BRANCH  11  16
HETATM   16  C   UNL     4     -12.605  14.706  69.463  1.00  0.00    -0.004 C  
HETATM   17  C   UNL     4     -12.723  15.220  70.928  1.00  0.00    -0.435 C  
HETATM   18  O   UNL     4     -13.881  15.587  71.279  1.00  0.00    -0.528 OA 
HETATM   19  O   UNL     4     -11.688  14.910  71.631  1.00  0.00    -0.349 OA 
ENDBRANCH  11  16
ENDBRANCH  10  11
ENDBRANCH   9  10
ENDBRANCH   8   9
BRANCH   8  20
HETATM   20  C   UNL     4     -11.374  14.601  66.053  1.00  0.00    -0.344 C  
HETATM   21  C   UNL     4     -11.923  13.536  65.025  1.00  0.00    -0.372 C  
HETATM   22  O   UNL     4     -13.186  13.454  64.978  1.00  0.00    -0.715 OA 
HETATM   23  O   UNL     4     -11.073  12.865  64.345  1.00  0.00    -0.324 OA 
ENDBRANCH   8  20
ENDBRANCH   7   8
TORSDOF 7
ENDMDL
MODEL      260
REMARK 921   NORMALIZED FREE ENERGY PREDICTED BY IDOCK:   -3.42 KCAL/MOL
REMARK 922        TOTAL FREE ENERGY PREDICTED BY IDOCK:   -6.26 KCAL/MOL
REMARK 923 INTER-LIGAND FREE ENERGY PREDICTED BY IDOCK:   -6.18 KCAL/MOL
REMARK 924 INTRA-LIGAND FREE ENERGY PREDICTED BY IDOCK:   -0.08 KCAL/MOL
REMARK 927      BINDING AFFINITY PREDICTED BY RF-SCORE:    0.00 PKD
ROOT
HETATM    1 NA   UNL     1      -8.919  12.645  62.593  1.00  0.00     0.007 Na 
HETATM    2 NA   UNL     2     -13.112  10.751  62.349  1.00  0.00    -0.785 Na 
HETATM    3 CA   UNL     3     -10.900  17.227  64.884  1.00  0.00    -0.380 Ca 
HETATM    4  O   UNL     4      -9.965  11.775  64.121  1.00  0.00    -0.266 OA 
HETATM    5  C   UNL     4     -11.168  11.920  64.484  1.00  0.00    -0.319 C  
HETATM    6  O   UNL     4     -12.145  11.805  63.667  1.00  0.00    -0.458 OA 
HETATM    7  C   UNL     4     -11.557  12.250  65.939  1.00  0.00    -0.393 C  
ENDROOT
BRANCH   7   8
HETATM    8  N   UNL     4     -10.527  12.823  66.849  1.00  0.00    -0.240 NA 
BRANCH   8   9
HETATM    9  C   UNL     4     -10.491  14.271  67.078  1.00  0.00    -0.271 C  
BRANCH   9  10
HETATM   10  C   UNL     4      -9.161  14.883  67.519  1.00  0.00    -0.183 C  
BRANCH  10  11
HETATM   11  N   UNL     4      -9.101  16.360  67.380  1.00  0.00    -0.199 NA 
BRANCH  11  12
HETATM   12  C   UNL     4      -8.758  16.825  65.998  1.00  0.00    -0.183 C  
HETATM   13  O   UNL     4      -7.387  18.776  65.596  1.00  0.00    -0.474 OA 
HETATM   14  O   UNL     4      -6.584  17.059  66.916  1.00  0.00    -0.174 OA 
HETATM   15  C   UNL     4      -7.420  17.637  66.122  1.00  0.00    -0.299 C  
ENDBRANCH  11  12
BRANCH  11  16
HETATM   16  C   UNL     4     -10.418  16.963  67.801  1.00  0.00    -0.340 C  
HETATM   17  C   UNL     4     -10.161  17.632  69.183  1.00  0.00    -0.238 C  
HETATM   18  O   UNL     4     -10.785  17.118  70.155  1.00  0.00     0.007 OA 
HETATM   19  O   UNL     4      -9.131  18.407  69.158  1.00  0.00    -0.114 OA 
ENDBRANCH  11  16
ENDBRANCH  10  11
ENDBRANCH   9  10
ENDBRANCH   8   9
BRANCH   8  20
HETATM   20  C   UNL     4     -10.704  12.160  68.206  1.00  0.00    -0.223 C  
HETATM   21  C   UNL     4     -10.380  10.616  68.259  1.00  0.00    -0.177 C  
HETATM   22  O   UNL     4      -9.850  10.228  69.343  1.00  0.00    -0.212 OA 
HETATM   23  O   UNL     4     -10.671   9.906  67.236  1.00  0.00    -0.265 OA 
ENDBRANCH   8  20
ENDBRANCH   7   8
TORSDOF 7
ENDMDL
MODEL      261
REMARK 921   NORMALIZED FREE ENERGY PREDICTED BY IDOCK:   -3.41 KCAL/MOL
REMARK 922        TOTAL FREE ENERGY PREDICTED BY IDOCK:   -6.25 KCAL/MOL
REMARK 923 INTER-LIGAND FREE ENERGY PREDICTED BY IDOCK:   -5.55 KCAL/MOL
REMARK 924 INTRA-LIGAND FREE ENERGY PREDICTED BY IDOCK:   -0.70 KCAL/MOL
REMARK 927      BINDING AFFINITY PREDICTED BY RF-SCORE:    0.00 PKD
ROOT
HETATM    1 NA   UNL     1      -7.691  18.349  68.765  1.00  0.00    -0.241 Na 
HETATM    2 NA   UNL     2     -10.336  20.326  65.552  1.00  0.00    -0.389 Na 
HETATM    3 CA   UNL     3     -12.048  17.069  71.855  1.00  0.00    -0.580 Ca 
HETATM    4  O   UNL     4      -8.795  17.399  67.328  1.00  0.00    -0.226 OA 
HETATM    5  C   UNL     4      -9.995  17.570  66.963  1.00  0.00    -0.311 C  
HETATM    6  O   UNL     4     -10.452  18.720  66.643  1.00  0.00    -0.392 OA 
HETATM    7  C   UNL     4     -11.004  16.408  66.876  1.00  0.00    -0.018 C  
ENDROOT
BRANCH   7   8
HETATM    8  N   UNL     4     -10.720  15.148  67.619  1.00  0.00    -0.278 NA 
BRANCH   8   9
HETATM    9  C   UNL     4      -9.747  14.195  67.075  1.00  0.00    -0.258 C  
BRANCH   9  10
HETATM   10  C   UNL     4     -10.286  12.869  66.534  1.00  0.00    -0.259 C  
BRANCH  10  11
HETATM   11  N   UNL     4      -9.594  11.672  67.074  1.00  0.00    -0.182 NA 
BRANCH  11  12
HETATM   12  C   UNL     4      -9.738  11.505  68.556  1.00  0.00    -0.189 C  
HETATM   13  O   UNL     4      -8.430   9.903  69.808  1.00  0.00    -0.169 OA 
HETATM   14  O   UNL     4      -7.368  11.487  68.506  1.00  0.00    -0.090 OA 
HETATM   15  C   UNL     4      -8.377  10.918  69.072  1.00  0.00    -0.114 C  
ENDBRANCH  11  12
BRANCH  11  16
HETATM   16  C   UNL     4     -10.102  10.435  66.378  1.00  0.00    -0.228 C  
HETATM   17  C   UNL     4      -9.287  10.322  65.055  1.00  0.00    -0.237 C  
HETATM   18  O   UNL     4      -9.962  10.452  63.994  1.00  0.00    -0.323 OA 
HETATM   19  O   UNL     4      -8.018  10.410  65.264  1.00  0.00    -0.150 OA 
ENDBRANCH  11  16
ENDBRANCH  10  11
ENDBRANCH   9  10
ENDBRANCH   8   9
BRANCH   8  20
HETATM   20  C   UNL     4     -10.234  15.540  69.005  1.00  0.00    -0.229 C  
HETATM   21  C   UNL     4     -11.271  15.329  70.177  1.00  0.00    -0.291 C  
HETATM   22  O   UNL     4     -10.755  14.968  71.276  1.00  0.00    -0.061 OA 
HETATM   23  O   UNL     4     -12.509  15.535  69.927  1.00  0.00    -0.336 OA 
ENDBRANCH   8  20
ENDBRANCH   7   8
TORSDOF 7
ENDMDL
MODEL      262
REMARK 921   NORMALIZED FREE ENERGY PREDICTED BY IDOCK:   -3.41 KCAL/MOL
REMARK 922        TOTAL FREE ENERGY PREDICTED BY IDOCK:   -6.24 KCAL/MOL
REMARK 923 INTER-LIGAND FREE ENERGY PREDICTED BY IDOCK:   -5.78 KCAL/MOL
REMARK 924 INTRA-LIGAND FREE ENERGY PREDICTED BY IDOCK:   -0.46 KCAL/MOL
REMARK 927      BINDING AFFINITY PREDICTED BY RF-SCORE:    0.00 PKD
ROOT
HETATM    1 NA   UNL     1      -9.403   8.240  64.140  1.00  0.00    -0.399 Na 
HETATM    2 NA   UNL     2     -11.473   5.138  66.847  1.00  0.00    -0.423 Na 
HETATM    3 CA   UNL     3     -13.633  11.719  64.548  1.00  0.00    -0.425 Ca 
HETATM    4  O   UNL     4      -9.541   8.288  66.182  1.00  0.00    -0.209 OA 
HETATM    5  C   UNL     4     -10.535   8.107  66.945  1.00  0.00    -0.309 C  
HETATM    6  O   UNL     4     -11.283   7.074  66.856  1.00  0.00    -0.302 OA 
HETATM    7  C   UNL     4     -10.926   9.116  68.042  1.00  0.00     0.031 C  
ENDROOT
BRANCH   7   8
HETATM    8  N   UNL     4     -10.416  10.513  67.954  1.00  0.00    -0.195 NA 
BRANCH   8   9
HETATM    9  C   UNL     4     -11.357  11.632  68.070  1.00  0.00    -0.296 C  
BRANCH   9  10
HETATM   10  C   UNL     4     -10.873  13.010  67.616  1.00  0.00    -0.239 C  
BRANCH  10  11
HETATM   11  N   UNL     4     -10.533  13.084  66.172  1.00  0.00    -0.274 NA 
BRANCH  11  12
HETATM   12  C   UNL     4     -11.317  12.138  65.316  1.00  0.00    -0.336 C  
HETATM   13  O   UNL     4     -10.658  11.597  63.053  1.00  0.00    -0.285 OA 
HETATM   14  O   UNL     4      -9.172  11.274  64.790  1.00  0.00    -0.185 OA 
HETATM   15  C   UNL     4     -10.311  11.559  64.258  1.00  0.00    -0.323 C  
ENDBRANCH  11  12
BRANCH  11  16
HETATM   16  C   UNL     4     -10.732  14.494  65.676  1.00  0.00    -0.327 C  
HETATM   17  C   UNL     4      -9.858  15.400  66.593  1.00  0.00    -0.255 C  
HETATM   18  O   UNL     4     -10.500  16.216  67.314  1.00  0.00    -0.300 OA 
HETATM   19  O   UNL     4      -8.648  14.965  66.684  1.00  0.00    -0.244 OA 
ENDBRANCH  11  16
ENDBRANCH  10  11
ENDBRANCH   9  10
ENDBRANCH   8   9
BRANCH   8  20
HETATM   20  C   UNL     4      -9.378  10.685  69.051  1.00  0.00    -0.180 C  
HETATM   21  C   UNL     4      -7.900  10.942  68.558  1.00  0.00    -0.126 C  
HETATM   22  O   UNL     4      -7.232  11.731  69.290  1.00  0.00    -0.084 OA 
HETATM   23  O   UNL     4      -7.511  10.349  67.493  1.00  0.00    -0.092 OA 
ENDBRANCH   8  20
ENDBRANCH   7   8
TORSDOF 7
ENDMDL
MODEL      263
REMARK 921   NORMALIZED FREE ENERGY PREDICTED BY IDOCK:   -3.40 KCAL/MOL
REMARK 922        TOTAL FREE ENERGY PREDICTED BY IDOCK:   -6.23 KCAL/MOL
REMARK 923 INTER-LIGAND FREE ENERGY PREDICTED BY IDOCK:   -5.32 KCAL/MOL
REMARK 924 INTRA-LIGAND FREE ENERGY PREDICTED BY IDOCK:   -0.91 KCAL/MOL
REMARK 927      BINDING AFFINITY PREDICTED BY RF-SCORE:    0.00 PKD
ROOT
HETATM    1 NA   UNL     1     -10.281  11.481  70.145  1.00  0.00    -0.419 Na 
HETATM    2 NA   UNL     2     -14.269  12.229  72.329  1.00  0.00    -0.315 Na 
HETATM    3 CA   UNL     3      -8.177   8.829  74.470  1.00  0.00    -0.230 Ca 
HETATM    4  O   UNL     4     -11.799  10.138  70.427  1.00  0.00    -0.267 OA 
HETATM    5  C   UNL     4     -12.458   9.845  71.466  1.00  0.00    -0.411 C  
HETATM    6  O   UNL     4     -13.030  10.736  72.183  1.00  0.00    -0.424 OA 
HETATM    7  C   UNL     4     -12.626   8.393  71.956  1.00  0.00    -0.356 C  
ENDROOT
BRANCH   7   8
HETATM    8  N   UNL     4     -11.674   7.354  71.472  1.00  0.00    -0.272 NA 
BRANCH   8   9
HETATM    9  C   UNL     4     -11.528   7.126  70.031  1.00  0.00    -0.161 C  
BRANCH   9  10
HETATM   10  C   UNL     4     -10.122   7.238  69.439  1.00  0.00    -0.183 C  
BRANCH  10  11
HETATM   11  N   UNL     4     -10.052   6.927  67.989  1.00  0.00    -0.158 NA 
BRANCH  11  12
HETATM   12  C   UNL     4     -10.867   5.737  67.584  1.00  0.00    -0.170 C  
HETATM   13  O   UNL     4     -10.719   4.761  65.376  1.00  0.00    -0.179 OA 
HETATM   14  O   UNL     4      -8.814   4.991  66.662  1.00  0.00    -0.112 OA 
HETATM   15  C   UNL     4     -10.080   5.034  66.422  1.00  0.00    -0.249 C  
ENDBRANCH  11  12
BRANCH  11  16
HETATM   16  C   UNL     4     -10.488   8.130  67.190  1.00  0.00    -0.326 C  
HETATM   17  C   UNL     4      -9.213   9.003  66.999  1.00  0.00    -0.136 C  
HETATM   18  O   UNL     4      -9.243  10.133  67.565  1.00  0.00    -0.137 OA 
HETATM   19  O   UNL     4      -8.222   8.313  66.546  1.00  0.00    -0.102 OA 
ENDBRANCH  11  16
ENDBRANCH  10  11
ENDBRANCH   9  10
ENDBRANCH   8   9
BRANCH   8  20
HETATM   20  C   UNL     4     -10.299   7.716  72.010  1.00  0.00    -0.207 C  
HETATM   21  C   UNL     4      -9.643   6.655  72.976  1.00  0.00    -0.146 C  
HETATM   22  O   UNL     4      -8.385   6.551  72.866  1.00  0.00    -0.116 OA 
HETATM   23  O   UNL     4     -10.411   6.008  73.768  1.00  0.00    -0.243 OA 
ENDBRANCH   8  20
ENDBRANCH   7   8
TORSDOF 7
ENDMDL
MODEL      264
REMARK 921   NORMALIZED FREE ENERGY PREDICTED BY IDOCK:   -3.39 KCAL/MOL
REMARK 922        TOTAL FREE ENERGY PREDICTED BY IDOCK:   -6.22 KCAL/MOL
REMARK 923 INTER-LIGAND FREE ENERGY PREDICTED BY IDOCK:   -5.45 KCAL/MOL
REMARK 924 INTRA-LIGAND FREE ENERGY PREDICTED BY IDOCK:   -0.77 KCAL/MOL
REMARK 927      BINDING AFFINITY PREDICTED BY RF-SCORE:    0.00 PKD
ROOT
HETATM    1 NA   UNL     1     -10.216  10.578  70.725  1.00  0.00    -0.353 Na 
HETATM    2 NA   UNL     2     -14.319  11.023  72.773  1.00  0.00    -0.499 Na 
HETATM    3 CA   UNL     3      -8.453   7.068  74.564  1.00  0.00    -0.126 Ca 
HETATM    4  O   UNL     4     -11.778   9.258  70.647  1.00  0.00    -0.268 OA 
HETATM    5  C   UNL     4     -12.509   8.792  71.569  1.00  0.00    -0.326 C  
HETATM    6  O   UNL     4     -13.107   9.546  72.411  1.00  0.00    -0.413 OA 
HETATM    7  C   UNL     4     -12.739   7.280  71.754  1.00  0.00    -0.335 C  
ENDROOT
BRANCH   7   8
HETATM    8  N   UNL     4     -11.782   6.322  71.133  1.00  0.00    -0.287 NA 
BRANCH   8   9
HETATM    9  C   UNL     4     -11.404   6.491  69.727  1.00  0.00    -0.393 C  
BRANCH   9  10
HETATM   10  C   UNL     4      -9.914   6.626  69.408  1.00  0.00    -0.156 C  
BRANCH  10  11
HETATM   11  N   UNL     4      -9.627   7.423  68.189  1.00  0.00    -0.141 NA 
BRANCH  11  12
HETATM   12  C   UNL     4      -8.984   8.747  68.468  1.00  0.00    -0.138 C  
HETATM   13  O   UNL     4      -8.840  10.490  66.798  1.00  0.00    -0.130 OA 
HETATM   14  O   UNL     4     -10.896   9.599  67.354  1.00  0.00    -0.274 OA 
HETATM   15  C   UNL     4      -9.624   9.772  67.465  1.00  0.00    -0.150 C  
ENDBRANCH  11  12
BRANCH  11  16
HETATM   16  C   UNL     4      -8.751   6.626  67.255  1.00  0.00    -0.118 C  
HETATM   17  C   UNL     4      -9.605   5.405  66.804  1.00  0.00    -0.147 C  
HETATM   18  O   UNL     4      -9.176   4.278  67.182  1.00  0.00    -0.128 OA 
HETATM   19  O   UNL     4     -10.766   5.764  66.372  1.00  0.00    -0.237 OA 
ENDBRANCH  11  16
ENDBRANCH  10  11
ENDBRANCH   9  10
ENDBRANCH   8   9
BRANCH   8  20
HETATM   20  C   UNL     4     -10.500   6.373  71.950  1.00  0.00    -0.209 C  
HETATM   21  C   UNL     4     -10.319   5.216  73.009  1.00  0.00    -0.193 C  
HETATM   22  O   UNL     4      -9.125   4.822  73.157  1.00  0.00    -0.117 OA 
HETATM   23  O   UNL     4     -11.362   4.785  73.611  1.00  0.00    -0.309 OA 
ENDBRANCH   8  20
ENDBRANCH   7   8
TORSDOF 7
ENDMDL
MODEL      265
REMARK 921   NORMALIZED FREE ENERGY PREDICTED BY IDOCK:   -3.38 KCAL/MOL
REMARK 922        TOTAL FREE ENERGY PREDICTED BY IDOCK:   -6.21 KCAL/MOL
REMARK 923 INTER-LIGAND FREE ENERGY PREDICTED BY IDOCK:   -5.50 KCAL/MOL
REMARK 924 INTRA-LIGAND FREE ENERGY PREDICTED BY IDOCK:   -0.71 KCAL/MOL
REMARK 927      BINDING AFFINITY PREDICTED BY RF-SCORE:    0.00 PKD
ROOT
HETATM    1 NA   UNL     1      -9.463   5.716  71.208  1.00  0.00    -0.136 Na 
HETATM    2 NA   UNL     2     -13.803   5.565  72.749  1.00  0.00    -0.562 Na 
HETATM    3 CA   UNL     3     -11.069   7.447  66.249  1.00  0.00    -0.450 Ca 
HETATM    4  O   UNL     4     -10.608   7.301  71.812  1.00  0.00    -0.206 OA 
HETATM    5  C   UNL     4     -11.800   7.613  71.525  1.00  0.00    -0.295 C  
HETATM    6  O   UNL     4     -12.768   6.787  71.644  1.00  0.00    -0.366 OA 
HETATM    7  C   UNL     4     -12.183   9.013  71.005  1.00  0.00    -0.223 C  
ENDROOT
BRANCH   7   8
HETATM    8  N   UNL     4     -11.122   9.884  70.427  1.00  0.00    -0.294 NA 
BRANCH   8   9
HETATM    9  C   UNL     4     -10.231   9.345  69.395  1.00  0.00    -0.207 C  
BRANCH   9  10
HETATM   10  C   UNL     4      -8.734   9.624  69.540  1.00  0.00    -0.185 C  
BRANCH  10  11
HETATM   11  N   UNL     4      -8.186  10.530  68.499  1.00  0.00    -0.117 NA 
BRANCH  11  12
HETATM   12  C   UNL     4      -7.316  11.622  69.041  1.00  0.00    -0.074 C  
HETATM   13  O   UNL     4      -6.864  13.649  67.803  1.00  0.00    -0.138 OA 
HETATM   14  O   UNL     4      -9.046  13.025  68.229  1.00  0.00    -0.197 OA 
HETATM   15  C   UNL     4      -7.763  12.945  68.323  1.00  0.00    -0.137 C  
ENDBRANCH  11  12
BRANCH  11  16
HETATM   16  C   UNL     4      -7.409   9.727  67.485  1.00  0.00    -0.090 C  
HETATM   17  C   UNL     4      -8.414   9.392  66.343  1.00  0.00    -0.126 C  
HETATM   18  O   UNL     4      -8.681   8.164  66.202  1.00  0.00    -0.139 OA 
HETATM   19  O   UNL     4      -9.033  10.443  65.924  1.00  0.00    -0.152 OA 
ENDBRANCH  11  16
ENDBRANCH  10  11
ENDBRANCH   9  10
ENDBRANCH   8   9
BRANCH   8  20
HETATM   20  C   UNL     4     -11.811  11.102  69.832  1.00  0.00    -0.363 C  
HETATM   21  C   UNL     4     -12.455  12.098  70.874  1.00  0.00    -0.279 C  
HETATM   22  O   UNL     4     -12.383  13.320  70.546  1.00  0.00    -0.342 OA 
HETATM   23  O   UNL     4     -12.982  11.605  71.930  1.00  0.00    -0.427 OA 
ENDBRANCH   8  20
ENDBRANCH   7   8
TORSDOF 7
ENDMDL
MODEL      266
REMARK 921   NORMALIZED FREE ENERGY PREDICTED BY IDOCK:   -3.38 KCAL/MOL
REMARK 922        TOTAL FREE ENERGY PREDICTED BY IDOCK:   -6.21 KCAL/MOL
REMARK 923 INTER-LIGAND FREE ENERGY PREDICTED BY IDOCK:   -5.51 KCAL/MOL
REMARK 924 INTRA-LIGAND FREE ENERGY PREDICTED BY IDOCK:   -0.70 KCAL/MOL
REMARK 927      BINDING AFFINITY PREDICTED BY RF-SCORE:    0.00 PKD
ROOT
HETATM    1 NA   UNL     1     -11.527  10.481  63.666  1.00  0.00    -0.478 Na 
HETATM    2 NA   UNL     2      -6.984   9.709  63.600  1.00  0.00    -0.093 Na 
HETATM    3 CA   UNL     3     -11.885   9.121  68.975  1.00  0.00    -0.435 Ca 
HETATM    4  O   UNL     4     -10.060  11.716  64.379  1.00  0.00    -0.253 OA 
HETATM    5  C   UNL     4      -9.060  11.469  65.115  1.00  0.00     0.019 C  
HETATM    6  O   UNL     4      -8.229  10.536  64.844  1.00  0.00    -0.168 OA 
HETATM    7  C   UNL     4      -8.762  12.270  66.398  1.00  0.00    -0.017 C  
ENDROOT
BRANCH   7   8
HETATM    8  N   UNL     4      -9.858  13.058  67.028  1.00  0.00    -0.233 NA 
BRANCH   8   9
HETATM    9  C   UNL     4     -10.821  12.381  67.902  1.00  0.00    -0.222 C  
BRANCH   9  10
HETATM   10  C   UNL     4     -10.600  12.489  69.412  1.00  0.00     0.269 C  
BRANCH  10  11
HETATM   11  N   UNL     4     -11.818  12.861  70.175  1.00  0.00    -0.289 NA 
BRANCH  11  12
HETATM   12  C   UNL     4     -12.526  14.066  69.637  1.00  0.00    -0.157 C  
HETATM   13  O   UNL     4     -13.645  15.656  71.075  1.00  0.00    -0.588 OA 
HETATM   14  O   UNL     4     -11.413  15.171  71.416  1.00  0.00    -0.339 OA 
HETATM   15  C   UNL     4     -12.542  15.126  70.795  1.00  0.00    -0.393 C  
ENDBRANCH  11  12
BRANCH  11  16
HETATM   16  C   UNL     4     -12.771  11.693  70.210  1.00  0.00     0.032 C  
HETATM   17  C   UNL     4     -13.062  11.421  71.716  1.00  0.00    -0.418 C  
HETATM   18  O   UNL     4     -12.649  10.309  72.152  1.00  0.00    -0.309 OA 
HETATM   19  O   UNL     4     -13.411  12.495  72.339  1.00  0.00    -0.498 OA 
ENDBRANCH  11  16
ENDBRANCH  10  11
ENDBRANCH   9  10
ENDBRANCH   8   9
BRANCH   8  20
HETATM   20  C   UNL     4      -9.208  14.161  67.848  1.00  0.00    -0.196 C  
HETATM   21  C   UNL     4      -9.129  15.575  67.150  1.00  0.00    -0.217 C  
HETATM   22  O   UNL     4      -9.276  16.558  67.935  1.00  0.00    -0.208 OA 
HETATM   23  O   UNL     4      -8.929  15.610  65.887  1.00  0.00    -0.320 OA 
ENDBRANCH   8  20
ENDBRANCH   7   8
TORSDOF 7
ENDMDL
MODEL      267
REMARK 921   NORMALIZED FREE ENERGY PREDICTED BY IDOCK:   -3.38 KCAL/MOL
REMARK 922        TOTAL FREE ENERGY PREDICTED BY IDOCK:   -6.21 KCAL/MOL
REMARK 923 INTER-LIGAND FREE ENERGY PREDICTED BY IDOCK:   -5.38 KCAL/MOL
REMARK 924 INTRA-LIGAND FREE ENERGY PREDICTED BY IDOCK:   -0.83 KCAL/MOL
REMARK 927      BINDING AFFINITY PREDICTED BY RF-SCORE:    0.00 PKD
ROOT
HETATM    1 NA   UNL     1     -13.928  10.302  69.408  1.00  0.00    -0.379 Na 
HETATM    2 NA   UNL     2     -13.115  13.163  65.888  1.00  0.00    -0.395 Na 
HETATM    3 CA   UNL     3     -11.770   6.037  66.703  1.00  0.00    -0.523 Ca 
HETATM    4  O   UNL     4     -12.137  11.155  68.906  1.00  0.00    -0.475 OA 
HETATM    5  C   UNL     4     -11.554  11.249  67.787  1.00  0.00    -0.230 C  
HETATM    6  O   UNL     4     -12.139  11.719  66.751  1.00  0.00    -0.547 OA 
HETATM    7  C   UNL     4     -10.093  10.805  67.577  1.00  0.00    -0.186 C  
ENDROOT
BRANCH   7   8
HETATM    8  N   UNL     4      -9.475   9.869  68.559  1.00  0.00    -0.144 NA 
BRANCH   8   9
HETATM    9  C   UNL     4      -9.233   8.476  68.172  1.00  0.00    -0.137 C  
BRANCH   9  10
HETATM   10  C   UNL     4      -9.990   7.390  68.939  1.00  0.00    -0.169 C  
BRANCH  10  11
HETATM   11  N   UNL     4     -10.427   7.803  70.296  1.00  0.00    -0.220 NA 
BRANCH  11  12
HETATM   12  C   UNL     4     -11.914   7.878  70.457  1.00  0.00     0.046 C  
HETATM   13  O   UNL     4     -12.956   8.507  72.547  1.00  0.00    -0.337 OA 
HETATM   14  O   UNL     4     -11.414   9.916  71.562  1.00  0.00    -0.365 OA 
HETATM   15  C   UNL     4     -12.184   8.884  71.632  1.00  0.00    -0.343 C  
ENDBRANCH  11  12
BRANCH  11  16
HETATM   16  C   UNL     4      -9.857   6.857  71.323  1.00  0.00    -0.175 C  
HETATM   17  C   UNL     4      -8.431   7.389  71.652  1.00  0.00    -0.115 C  
HETATM   18  O   UNL     4      -7.481   6.625  71.318  1.00  0.00    -0.082 OA 
HETATM   19  O   UNL     4      -8.441   8.646  71.940  1.00  0.00    -0.205 OA 
ENDBRANCH  11  16
ENDBRANCH  10  11
ENDBRANCH   9  10
ENDBRANCH   8   9
BRANCH   8  20
HETATM   20  C   UNL     4      -8.134  10.460  68.964  1.00  0.00    -0.138 C  
HETATM   21  C   UNL     4      -7.307  11.136  67.802  1.00  0.00    -0.093 C  
HETATM   22  O   UNL     4      -6.646  12.158  68.153  1.00  0.00    -0.054 OA 
HETATM   23  O   UNL     4      -7.369  10.612  66.637  1.00  0.00    -0.115 OA 
ENDBRANCH   8  20
ENDBRANCH   7   8
TORSDOF 7
ENDMDL
MODEL      268
REMARK 921   NORMALIZED FREE ENERGY PREDICTED BY IDOCK:   -3.37 KCAL/MOL
REMARK 922        TOTAL FREE ENERGY PREDICTED BY IDOCK:   -6.19 KCAL/MOL
REMARK 923 INTER-LIGAND FREE ENERGY PREDICTED BY IDOCK:   -5.11 KCAL/MOL
REMARK 924 INTRA-LIGAND FREE ENERGY PREDICTED BY IDOCK:   -1.08 KCAL/MOL
REMARK 927      BINDING AFFINITY PREDICTED BY RF-SCORE:    0.00 PKD
ROOT
HETATM    1 NA   UNL     1      -9.131  14.630  68.934  1.00  0.00    -0.158 Na 
HETATM    2 NA   UNL     2     -11.622  16.039  65.322  1.00  0.00    -0.288 Na 
HETATM    3 CA   UNL     3     -13.186  11.386  70.723  1.00  0.00    -0.307 Ca 
HETATM    4  O   UNL     4      -9.466  13.602  67.197  1.00  0.00    -0.227 OA 
HETATM    5  C   UNL     4     -10.538  13.392  66.557  1.00  0.00    -0.287 C  
HETATM    6  O   UNL     4     -11.328  14.340  66.223  1.00  0.00    -0.330 OA 
HETATM    7  C   UNL     4     -10.980  11.978  66.131  1.00  0.00    -0.302 C  
ENDROOT
BRANCH   7   8
HETATM    8  N   UNL     4     -10.389  10.798  66.821  1.00  0.00    -0.234 NA 
BRANCH   8   9
HETATM    9  C   UNL     4     -11.202  10.042  67.778  1.00  0.00    -0.065 C  
BRANCH   9  10
HETATM   10  C   UNL     4     -10.572   8.800  68.412  1.00  0.00    -0.137 C  
BRANCH  10  11
HETATM   11  N   UNL     4      -9.889   9.063  69.703  1.00  0.00    -0.173 NA 
BRANCH  11  12
HETATM   12  C   UNL     4      -8.565   9.747  69.561  1.00  0.00    -0.179 C  
HETATM   13  O   UNL     4      -6.863   9.637  71.275  1.00  0.00    -0.311 OA 
HETATM   14  O   UNL     4      -7.724   7.688  70.383  1.00  0.00    -0.087 OA 
HETATM   15  C   UNL     4      -7.558   8.963  70.476  1.00  0.00    -0.093 C  
ENDBRANCH  11  12
BRANCH  11  16
HETATM   16  C   UNL     4     -10.786   9.886  70.593  1.00  0.00    -0.330 C  
HETATM   17  C   UNL     4     -11.277   8.924  71.715  1.00  0.00    -0.362 C  
HETATM   18  O   UNL     4     -12.519   8.687  71.718  1.00  0.00    -0.309 OA 
HETATM   19  O   UNL     4     -10.298   8.296  72.272  1.00  0.00    -0.263 OA 
ENDBRANCH  11  16
ENDBRANCH  10  11
ENDBRANCH   9  10
ENDBRANCH   8   9
BRANCH   8  20
HETATM   20  C   UNL     4      -9.942   9.822  65.744  1.00  0.00    -0.279 C  
HETATM   21  C   UNL     4      -8.381   9.638  65.594  1.00  0.00    -0.129 C  
HETATM   22  O   UNL     4      -8.017   8.462  65.295  1.00  0.00    -0.110 OA 
HETATM   23  O   UNL     4      -7.636  10.661  65.781  1.00  0.00    -0.149 OA 
ENDBRANCH   8  20
ENDBRANCH   7   8
TORSDOF 7
ENDMDL
MODEL      269
REMARK 921   NORMALIZED FREE ENERGY PREDICTED BY IDOCK:   -3.37 KCAL/MOL
REMARK 922        TOTAL FREE ENERGY PREDICTED BY IDOCK:   -6.19 KCAL/MOL
REMARK 923 INTER-LIGAND FREE ENERGY PREDICTED BY IDOCK:   -5.37 KCAL/MOL
REMARK 924 INTRA-LIGAND FREE ENERGY PREDICTED BY IDOCK:   -0.82 KCAL/MOL
REMARK 927      BINDING AFFINITY PREDICTED BY RF-SCORE:    0.00 PKD
ROOT
HETATM    1 NA   UNL     1     -11.979   9.866  67.710  1.00  0.00    -0.540 Na 
HETATM    2 NA   UNL     2      -8.928  11.855  64.887  1.00  0.00    -0.351 Na 
HETATM    3 CA   UNL     3     -11.629   5.077  65.043  1.00  0.00    -0.560 Ca 
HETATM    4  O   UNL     4      -9.943   9.658  67.757  1.00  0.00    -0.156 OA 
HETATM    5  C   UNL     4      -9.117   9.425  66.827  1.00  0.00    -0.140 C  
HETATM    6  O   UNL     4      -9.084  10.122  65.755  1.00  0.00    -0.157 OA 
HETATM    7  C   UNL     4      -8.085   8.283  66.907  1.00  0.00    -0.103 C  
ENDROOT
BRANCH   7   8
HETATM    8  N   UNL     4      -8.312   7.172  67.872  1.00  0.00    -0.118 NA 
BRANCH   8   9
HETATM    9  C   UNL     4      -8.507   7.480  69.292  1.00  0.00    -0.136 C  
BRANCH   9  10
HETATM   10  C   UNL     4      -9.907   7.272  69.873  1.00  0.00    -0.178 C  
BRANCH  10  11
HETATM   11  N   UNL     4     -10.046   7.717  71.283  1.00  0.00    -0.187 NA 
BRANCH  11  12
HETATM   12  C   UNL     4      -8.918   7.286  72.169  1.00  0.00    -0.131 C  
HETATM   13  O   UNL     4      -8.628   8.157  74.406  1.00  0.00    -0.187 OA 
HETATM   14  O   UNL     4     -10.624   7.158  73.812  1.00  0.00    -0.377 OA 
HETATM   15  C   UNL     4      -9.398   7.521  73.646  1.00  0.00    -0.277 C  
ENDBRANCH  11  12
BRANCH  11  16
HETATM   16  C   UNL     4     -10.177   9.218  71.331  1.00  0.00    -0.301 C  
HETATM   17  C   UNL     4     -11.695   9.522  71.162  1.00  0.00    -0.363 C  
HETATM   18  O   UNL     4     -12.006  10.143  70.105  1.00  0.00    -0.244 OA 
HETATM   19  O   UNL     4     -12.417   8.834  71.979  1.00  0.00    -0.336 OA 
ENDBRANCH  11  16
ENDBRANCH  10  11
ENDBRANCH   9  10
ENDBRANCH   8   9
BRANCH   8  20
HETATM   20  C   UNL     4      -9.544   6.412  67.406  1.00  0.00    -0.120 C  
HETATM   21  C   UNL     4      -9.263   5.065  66.632  1.00  0.00    -0.129 C  
HETATM   22  O   UNL     4     -10.105   4.146  66.855  1.00  0.00    -0.167 OA 
HETATM   23  O   UNL     4      -8.239   5.015  65.867  1.00  0.00    -0.110 OA 
ENDBRANCH   8  20
ENDBRANCH   7   8
TORSDOF 7
ENDMDL
MODEL      270
REMARK 921   NORMALIZED FREE ENERGY PREDICTED BY IDOCK:   -3.36 KCAL/MOL
REMARK 922        TOTAL FREE ENERGY PREDICTED BY IDOCK:   -6.17 KCAL/MOL
REMARK 923 INTER-LIGAND FREE ENERGY PREDICTED BY IDOCK:   -6.24 KCAL/MOL
REMARK 924 INTRA-LIGAND FREE ENERGY PREDICTED BY IDOCK:    0.07 KCAL/MOL
REMARK 927      BINDING AFFINITY PREDICTED BY RF-SCORE:    0.00 PKD
ROOT
HETATM    1 NA   UNL     1     -13.972  14.434  65.719  1.00  0.00    -0.662 Na 
HETATM    2 NA   UNL     2     -12.743  11.084  62.803  1.00  0.00    -0.743 Na 
HETATM    3 CA   UNL     3     -11.772  11.791  70.002  1.00  0.00    -0.224 Ca 
HETATM    4  O   UNL     4     -12.110  14.110  64.933  1.00  0.00    -0.387 OA 
HETATM    5  C   UNL     4     -11.431  13.047  64.835  1.00  0.00    -0.316 C  
HETATM    6  O   UNL     4     -11.905  11.982  64.312  1.00  0.00    -0.366 OA 
HETATM    7  C   UNL     4      -9.977  12.948  65.338  1.00  0.00    -0.194 C  
ENDROOT
BRANCH   7   8
HETATM    8  N   UNL     4      -9.485  13.949  66.326  1.00  0.00    -0.253 NA 
BRANCH   8   9
HETATM    9  C   UNL     4     -10.299  15.133  66.618  1.00  0.00    -0.274 C  
BRANCH   9  10
HETATM   10  C   UNL     4      -9.797  16.083  67.706  1.00  0.00    -0.231 C  
BRANCH  10  11
HETATM   11  N   UNL     4      -8.834  17.103  67.219  1.00  0.00    -0.214 NA 
BRANCH  11  12
HETATM   12  C   UNL     4      -7.574  16.525  66.651  1.00  0.00    -0.275 C  
HETATM   13  O   UNL     4      -5.416  17.570  66.968  1.00  0.00    -0.123 OA 
HETATM   14  O   UNL     4      -6.706  17.018  68.802  1.00  0.00    -0.172 OA 
HETATM   15  C   UNL     4      -6.399  17.050  67.551  1.00  0.00    -0.149 C  
ENDBRANCH  11  12
BRANCH  11  16
HETATM   16  C   UNL     4      -9.498  17.974  66.182  1.00  0.00    -0.146 C  
HETATM   17  C   UNL     4      -9.842  19.312  66.902  1.00  0.00    -0.342 C  
HETATM   18  O   UNL     4     -11.075  19.562  67.015  1.00  0.00    -0.424 OA 
HETATM   19  O   UNL     4      -8.822  19.797  67.525  1.00  0.00    -0.307 OA 
ENDBRANCH  11  16
ENDBRANCH  10  11
ENDBRANCH   9  10
ENDBRANCH   8   9
BRANCH   8  20
HETATM   20  C   UNL     4      -9.272  13.218  67.642  1.00  0.00    -0.209 C  
HETATM   21  C   UNL     4      -7.840  12.585  67.846  1.00  0.00    -0.144 C  
HETATM   22  O   UNL     4      -7.415  12.623  69.039  1.00  0.00    -0.034 OA 
HETATM   23  O   UNL     4      -7.246  12.100  66.822  1.00  0.00    -0.053 OA 
ENDBRANCH   8  20
ENDBRANCH   7   8
TORSDOF 7
ENDMDL
MODEL      271
REMARK 921   NORMALIZED FREE ENERGY PREDICTED BY IDOCK:   -3.34 KCAL/MOL
REMARK 922        TOTAL FREE ENERGY PREDICTED BY IDOCK:   -6.15 KCAL/MOL
REMARK 923 INTER-LIGAND FREE ENERGY PREDICTED BY IDOCK:   -5.57 KCAL/MOL
REMARK 924 INTRA-LIGAND FREE ENERGY PREDICTED BY IDOCK:   -0.58 KCAL/MOL
REMARK 927      BINDING AFFINITY PREDICTED BY RF-SCORE:    0.00 PKD
ROOT
HETATM    1 NA   UNL     1      -6.730  12.486  67.589  1.00  0.00    -0.063 Na 
HETATM    2 NA   UNL     2      -5.817  16.120  70.273  1.00  0.00    -0.144 Na 
HETATM    3 CA   UNL     3     -10.485  10.572  71.111  1.00  0.00    -0.318 Ca 
HETATM    4  O   UNL     4      -7.848  14.190  67.773  1.00  0.00    -0.139 OA 
HETATM    5  C   UNL     4      -8.235  14.815  68.803  1.00  0.00    -0.163 C  
HETATM    6  O   UNL     4      -7.426  15.172  69.727  1.00  0.00    -0.203 OA 
HETATM    7  C   UNL     4      -9.711  15.197  69.031  1.00  0.00    -0.234 C  
ENDROOT
BRANCH   7   8
HETATM    8  N   UNL     4     -10.768  14.476  68.269  1.00  0.00    -0.236 NA 
BRANCH   8   9
HETATM    9  C   UNL     4     -10.871  13.018  68.382  1.00  0.00    -0.258 C  
BRANCH   9  10
HETATM   10  C   UNL     4     -11.299  12.242  67.135  1.00  0.00    -0.335 C  
BRANCH  10  11
HETATM   11  N   UNL     4     -10.324  11.210  66.703  1.00  0.00    -0.232 NA 
BRANCH  11  12
HETATM   12  C   UNL     4      -9.305  11.709  65.725  1.00  0.00    -0.205 C  
HETATM   13  O   UNL     4      -8.773  10.513  63.692  1.00  0.00    -0.177 OA 
HETATM   14  O   UNL     4     -10.957  11.121  64.128  1.00  0.00    -0.358 OA 
HETATM   15  C   UNL     4      -9.685  11.089  64.333  1.00  0.00    -0.280 C  
ENDBRANCH  11  12
BRANCH  11  16
HETATM   16  C   UNL     4      -9.622  10.638  67.910  1.00  0.00    -0.162 C  
HETATM   17  C   UNL     4     -10.339   9.292  68.225  1.00  0.00    -0.217 C  
HETATM   18  O   UNL     4     -10.955   9.254  69.328  1.00  0.00    -0.191 OA 
HETATM   19  O   UNL     4     -10.435   8.542  67.180  1.00  0.00    -0.290 OA 
ENDBRANCH  11  16
ENDBRANCH  10  11
ENDBRANCH   9  10
ENDBRANCH   8   9
BRANCH   8  20
HETATM   20  C   UNL     4     -12.108  15.054  68.698  1.00  0.00    -0.163 C  
HETATM   21  C   UNL     4     -12.494  14.828  70.212  1.00  0.00    -0.340 C  
HETATM   22  O   UNL     4     -13.130  15.788  70.740  1.00  0.00    -0.522 OA 
HETATM   23  O   UNL     4     -12.146  13.728  70.763  1.00  0.00    -0.341 OA 
ENDBRANCH   8  20
ENDBRANCH   7   8
TORSDOF 7
ENDMDL
MODEL      272
REMARK 921   NORMALIZED FREE ENERGY PREDICTED BY IDOCK:   -3.33 KCAL/MOL
REMARK 922        TOTAL FREE ENERGY PREDICTED BY IDOCK:   -6.14 KCAL/MOL
REMARK 923 INTER-LIGAND FREE ENERGY PREDICTED BY IDOCK:   -5.48 KCAL/MOL
REMARK 924 INTRA-LIGAND FREE ENERGY PREDICTED BY IDOCK:   -0.66 KCAL/MOL
REMARK 927      BINDING AFFINITY PREDICTED BY RF-SCORE:    0.00 PKD
ROOT
HETATM    1 NA   UNL     1      -6.296   7.421  70.152  1.00  0.00    -0.029 Na 
HETATM    2 NA   UNL     2      -9.190   8.630  73.528  1.00  0.00    -0.218 Na 
HETATM    3 CA   UNL     3     -10.278   4.836  67.389  1.00  0.00    -0.152 Ca 
HETATM    4  O   UNL     4      -7.659   8.947  70.114  1.00  0.00    -0.061 OA 
HETATM    5  C   UNL     4      -8.880   8.970  70.447  1.00  0.00    -0.200 C  
HETATM    6  O   UNL     4      -9.283   8.554  71.586  1.00  0.00    -0.189 OA 
HETATM    7  C   UNL     4      -9.981   9.499  69.507  1.00  0.00    -0.194 C  
ENDROOT
BRANCH   7   8
HETATM    8  N   UNL     4      -9.700   9.594  68.047  1.00  0.00    -0.144 NA 
BRANCH   8   9
HETATM    9  C   UNL     4      -8.904  10.715  67.538  1.00  0.00    -0.132 C  
BRANCH   9  10
HETATM   10  C   UNL     4      -9.437  12.127  67.786  1.00  0.00    -0.192 C  
BRANCH  10  11
HETATM   11  N   UNL     4     -10.326  12.633  66.710  1.00  0.00    -0.233 NA 
BRANCH  11  12
HETATM   12  C   UNL     4     -10.191  11.894  65.414  1.00  0.00    -0.263 C  
HETATM   13  O   UNL     4     -11.583  12.382  63.498  1.00  0.00    -0.448 OA 
HETATM   14  O   UNL     4     -10.345  14.067  64.477  1.00  0.00    -0.419 OA 
HETATM   15  C   UNL     4     -10.737  12.853  64.296  1.00  0.00    -0.406 C  
ENDBRANCH  11  12
BRANCH  11  16
HETATM   16  C   UNL     4     -11.761  12.580  67.170  1.00  0.00    -0.355 C  
HETATM   17  C   UNL     4     -12.002  13.891  67.976  1.00  0.00    -0.355 C  
HETATM   18  O   UNL     4     -12.242  13.731  69.207  1.00  0.00    -0.337 OA 
HETATM   19  O   UNL     4     -11.624  14.934  67.320  1.00  0.00    -0.360 OA 
ENDBRANCH  11  16
ENDBRANCH  10  11
ENDBRANCH   9  10
ENDBRANCH   8   9
BRANCH   8  20
HETATM   20  C   UNL     4      -8.983   8.315  67.641  1.00  0.00    -0.135 C  
HETATM   21  C   UNL     4      -9.840   7.288  66.804  1.00  0.00    -0.212 C  
HETATM   22  O   UNL     4      -9.188   6.657  65.920  1.00  0.00    -0.099 OA 
HETATM   23  O   UNL     4     -11.085   7.180  67.079  1.00  0.00    -0.345 OA 
ENDBRANCH   8  20
ENDBRANCH   7   8
TORSDOF 7
ENDMDL
MODEL      273
REMARK 921   NORMALIZED FREE ENERGY PREDICTED BY IDOCK:   -3.31 KCAL/MOL
REMARK 922        TOTAL FREE ENERGY PREDICTED BY IDOCK:   -6.11 KCAL/MOL
REMARK 923 INTER-LIGAND FREE ENERGY PREDICTED BY IDOCK:   -5.63 KCAL/MOL
REMARK 924 INTRA-LIGAND FREE ENERGY PREDICTED BY IDOCK:   -0.48 KCAL/MOL
REMARK 927      BINDING AFFINITY PREDICTED BY RF-SCORE:    0.00 PKD
ROOT
HETATM    1 NA   UNL     1     -10.817  18.839  65.465  1.00  0.00    -0.408 Na 
HETATM    2 NA   UNL     2      -6.430  20.053  64.750  1.00  0.00    -0.202 Na 
HETATM    3 CA   UNL     3      -9.921  13.745  63.617  1.00  0.00    -0.394 Ca 
HETATM    4  O   UNL     4      -9.208  18.383  66.644  1.00  0.00    -0.288 OA 
HETATM    5  C   UNL     4      -8.066  17.932  66.341  1.00  0.00    -0.261 C  
HETATM    6  O   UNL     4      -7.334  18.477  65.445  1.00  0.00    -0.516 OA 
HETATM    7  C   UNL     4      -7.462  16.688  67.023  1.00  0.00    -0.204 C  
ENDROOT
BRANCH   7   8
HETATM    8  N   UNL     4      -8.368  15.746  67.738  1.00  0.00    -0.152 NA 
BRANCH   8   9
HETATM    9  C   UNL     4      -8.641  14.428  67.156  1.00  0.00    -0.218 C  
BRANCH   9  10
HETATM   10  C   UNL     4      -9.049  13.306  68.112  1.00  0.00    -0.207 C  
BRANCH  10  11
HETATM   11  N   UNL     4      -9.733  12.168  67.448  1.00  0.00    -0.178 NA 
BRANCH  11  12
HETATM   12  C   UNL     4      -8.797  11.129  66.911  1.00  0.00    -0.157 C  
HETATM   13  O   UNL     4      -9.544   9.348  65.455  1.00  0.00    -0.273 OA 
HETATM   14  O   UNL     4      -9.941  11.548  64.877  1.00  0.00    -0.241 OA 
HETATM   15  C   UNL     4      -9.443  10.592  65.584  1.00  0.00    -0.212 C  
ENDBRANCH  11  12
BRANCH  11  16
HETATM   16  C   UNL     4     -10.698  11.524  68.411  1.00  0.00    -0.208 C  
HETATM   17  C   UNL     4     -11.773  12.605  68.728  1.00  0.00    -0.323 C  
HETATM   18  O   UNL     4     -11.799  13.006  69.927  1.00  0.00    -0.322 OA 
HETATM   19  O   UNL     4     -12.261  13.127  67.654  1.00  0.00    -0.279 OA 
ENDBRANCH  11  16
ENDBRANCH  10  11
ENDBRANCH   9  10
ENDBRANCH   8   9
BRANCH   8  20
HETATM   20  C   UNL     4      -7.776  15.512  69.119  1.00  0.00    -0.210 C  
HETATM   21  C   UNL     4      -6.206  15.362  69.173  1.00  0.00    -0.110 C  
HETATM   22  O   UNL     4      -5.667  15.855  70.208  1.00  0.00    -0.165 OA 
HETATM   23  O   UNL     4      -5.625  14.773  68.197  1.00  0.00    -0.106 OA 
ENDBRANCH   8  20
ENDBRANCH   7   8
TORSDOF 7
ENDMDL
MODEL      274
REMARK 921   NORMALIZED FREE ENERGY PREDICTED BY IDOCK:   -3.31 KCAL/MOL
REMARK 922        TOTAL FREE ENERGY PREDICTED BY IDOCK:   -6.10 KCAL/MOL
REMARK 923 INTER-LIGAND FREE ENERGY PREDICTED BY IDOCK:   -5.87 KCAL/MOL
REMARK 924 INTRA-LIGAND FREE ENERGY PREDICTED BY IDOCK:   -0.23 KCAL/MOL
REMARK 927      BINDING AFFINITY PREDICTED BY RF-SCORE:    0.00 PKD
ROOT
HETATM    1 NA   UNL     1     -14.041  11.492  63.417  1.00  0.00    -0.273 Na 
HETATM    2 NA   UNL     2     -10.092   9.365  62.361  1.00  0.00    -0.498 Na 
HETATM    3 CA   UNL     3     -13.105  10.993  68.806  1.00  0.00    -0.104 Ca 
HETATM    4  O   UNL     4     -12.161  12.299  63.459  1.00  0.00    -0.494 OA 
HETATM    5  C   UNL     4     -11.084  11.854  63.951  1.00  0.00    -0.412 C  
HETATM    6  O   UNL     4     -10.643  10.684  63.680  1.00  0.00    -0.146 OA 
HETATM    7  C   UNL     4     -10.214  12.681  64.919  1.00  0.00    -0.272 C  
ENDROOT
BRANCH   7   8
HETATM    8  N   UNL     4     -10.826  13.840  65.628  1.00  0.00    -0.283 NA 
BRANCH   8   9
HETATM    9  C   UNL     4     -10.545  14.043  67.052  1.00  0.00    -0.279 C  
BRANCH   9  10
HETATM   10  C   UNL     4      -9.091  13.914  67.510  1.00  0.00    -0.201 C  
BRANCH  10  11
HETATM   11  N   UNL     4      -8.522  15.165  68.071  1.00  0.00    -0.145 NA 
BRANCH  11  12
HETATM   12  C   UNL     4      -7.219  15.569  67.454  1.00  0.00    -0.209 C  
HETATM   13  O   UNL     4      -5.371  16.406  68.770  1.00  0.00    -0.110 OA 
HETATM   14  O   UNL     4      -6.299  14.351  69.268  1.00  0.00    -0.102 OA 
HETATM   15  C   UNL     4      -6.132  15.426  68.577  1.00  0.00    -0.093 C  
ENDBRANCH  11  12
BRANCH  11  16
HETATM   16  C   UNL     4      -9.519  16.288  67.920  1.00  0.00    -0.218 C  
HETATM   17  C   UNL     4     -10.315  16.337  69.257  1.00  0.00    -0.277 C  
HETATM   18  O   UNL     4     -11.544  16.054  69.163  1.00  0.00    -0.356 OA 
HETATM   19  O   UNL     4      -9.533  16.367  70.282  1.00  0.00     0.777 OA 
ENDBRANCH  11  16
ENDBRANCH  10  11
ENDBRANCH   9  10
ENDBRANCH   8   9
BRANCH   8  20
HETATM   20  C   UNL     4     -10.382  15.099  64.900  1.00  0.00    -0.259 C  
HETATM   21  C   UNL     4     -11.543  15.987  64.302  1.00  0.00    -0.138 C  
HETATM   22  O   UNL     4     -11.328  17.234  64.349  1.00  0.00    -1.052 OA 
HETATM   23  O   UNL     4     -12.573  15.391  63.833  1.00  0.00    -0.725 OA 
ENDBRANCH   8  20
ENDBRANCH   7   8
TORSDOF 7
ENDMDL
MODEL      275
REMARK 921   NORMALIZED FREE ENERGY PREDICTED BY IDOCK:   -3.30 KCAL/MOL
REMARK 922        TOTAL FREE ENERGY PREDICTED BY IDOCK:   -6.10 KCAL/MOL
REMARK 923 INTER-LIGAND FREE ENERGY PREDICTED BY IDOCK:   -6.43 KCAL/MOL
REMARK 924 INTRA-LIGAND FREE ENERGY PREDICTED BY IDOCK:    0.33 KCAL/MOL
REMARK 927      BINDING AFFINITY PREDICTED BY RF-SCORE:    0.00 PKD
ROOT
HETATM    1 NA   UNL     1     -11.505  16.271  66.671  1.00  0.00    -0.211 Na 
HETATM    2 NA   UNL     2      -7.868  16.203  69.501  1.00  0.00    -0.192 Na 
HETATM    3 CA   UNL     3      -9.208  12.589  63.304  1.00  0.00    -0.513 Ca 
HETATM    4  O   UNL     4     -11.060  14.842  68.066  1.00  0.00    -0.265 OA 
HETATM    5  C   UNL     4      -9.974  14.239  68.312  1.00  0.00    -0.239 C  
HETATM    6  O   UNL     4      -8.878  14.866  68.513  1.00  0.00    -0.161 OA 
HETATM    7  C   UNL     4      -9.882  12.702  68.387  1.00  0.00    -0.200 C  
ENDROOT
BRANCH   7   8
HETATM    8  N   UNL     4     -10.956  11.883  67.759  1.00  0.00    -0.215 NA 
BRANCH   8   9
HETATM    9  C   UNL     4     -11.893  11.146  68.612  1.00  0.00    -0.287 C  
BRANCH   9  10
HETATM   10  C   UNL     4     -11.299  10.196  69.654  1.00  0.00    -0.235 C  
BRANCH  10  11
HETATM   11  N   UNL     4     -10.392   9.168  69.086  1.00  0.00    -0.208 NA 
BRANCH  11  12
HETATM   12  C   UNL     4     -10.472   9.046  67.595  1.00  0.00    -0.260 C  
HETATM   13  O   UNL     4      -9.453   7.212  66.392  1.00  0.00    -0.173 OA 
HETATM   14  O   UNL     4     -10.964   6.778  68.084  1.00  0.00    -0.238 OA 
HETATM   15  C   UNL     4     -10.302   7.521  67.264  1.00  0.00    -0.296 C  
ENDBRANCH  11  12
BRANCH  11  16
HETATM   16  C   UNL     4      -8.970   9.466  69.489  1.00  0.00    -0.164 C  
HETATM   17  C   UNL     4      -8.676   8.565  70.724  1.00  0.00    -0.160 C  
HETATM   18  O   UNL     4      -8.465   9.184  71.806  1.00  0.00    -0.340 OA 
HETATM   19  O   UNL     4      -8.988   7.333  70.505  1.00  0.00    -0.152 OA 
ENDBRANCH  11  16
ENDBRANCH  10  11
ENDBRANCH   9  10
ENDBRANCH   8   9
BRANCH   8  20
HETATM   20  C   UNL     4     -11.783  12.815  66.887  1.00  0.00    -0.380 C  
HETATM   21  C   UNL     4     -11.948  12.374  65.380  1.00  0.00    -0.398 C  
HETATM   22  O   UNL     4     -13.075  12.650  64.872  1.00  0.00    -0.850 OA 
HETATM   23  O   UNL     4     -10.960  11.792  64.814  1.00  0.00    -0.295 OA 
ENDBRANCH   8  20
ENDBRANCH   7   8
TORSDOF 7
ENDMDL
MODEL      276
REMARK 921   NORMALIZED FREE ENERGY PREDICTED BY IDOCK:   -3.30 KCAL/MOL
REMARK 922        TOTAL FREE ENERGY PREDICTED BY IDOCK:   -6.09 KCAL/MOL
REMARK 923 INTER-LIGAND FREE ENERGY PREDICTED BY IDOCK:   -6.19 KCAL/MOL
REMARK 924 INTRA-LIGAND FREE ENERGY PREDICTED BY IDOCK:    0.10 KCAL/MOL
REMARK 927      BINDING AFFINITY PREDICTED BY RF-SCORE:    0.00 PKD
ROOT
HETATM    1 NA   UNL     1     -13.566  14.319  65.485  1.00  0.00    -0.647 Na 
HETATM    2 NA   UNL     2     -12.310  11.123  62.412  1.00  0.00    -0.879 Na 
HETATM    3 CA   UNL     3     -13.260  10.737  69.638  1.00  0.00    -0.301 Ca 
HETATM    4  O   UNL     4     -11.671  13.630  65.133  1.00  0.00    -0.314 OA 
HETATM    5  C   UNL     4     -11.232  12.449  65.017  1.00  0.00    -0.312 C  
HETATM    6  O   UNL     4     -11.756  11.603  64.214  1.00  0.00    -0.281 OA 
HETATM    7  C   UNL     4     -10.032  11.931  65.834  1.00  0.00    -0.234 C  
ENDROOT
BRANCH   7   8
HETATM    8  N   UNL     4      -9.635  12.657  67.073  1.00  0.00    -0.213 NA 
BRANCH   8   9
HETATM    9  C   UNL     4     -10.395  13.839  67.490  1.00  0.00    -0.241 C  
BRANCH   9  10
HETATM   10  C   UNL     4      -9.740  14.776  68.506  1.00  0.00    -0.218 C  
BRANCH  10  11
HETATM   11  N   UNL     4      -8.529  15.467  67.996  1.00  0.00    -0.142 NA 
BRANCH  11  12
HETATM   12  C   UNL     4      -8.719  16.936  67.770  1.00  0.00    -0.212 C  
HETATM   13  O   UNL     4      -7.633  18.115  65.959  1.00  0.00    -0.399 OA 
HETATM   14  O   UNL     4      -8.954  16.276  65.505  1.00  0.00    -0.336 OA 
HETATM   15  C   UNL     4      -8.434  17.192  66.247  1.00  0.00    -0.244 C  
ENDBRANCH  11  12
BRANCH  11  16
HETATM   16  C   UNL     4      -7.381  15.251  68.950  1.00  0.00    -0.146 C  
HETATM   17  C   UNL     4      -6.673  13.946  68.479  1.00  0.00    -0.100 C  
HETATM   18  O   UNL     4      -6.728  12.979  69.291  1.00  0.00    -0.109 OA 
HETATM   19  O   UNL     4      -6.403  13.974  67.219  1.00  0.00    -0.295 OA 
ENDBRANCH  11  16
ENDBRANCH  10  11
ENDBRANCH   9  10
ENDBRANCH   8   9
BRANCH   8  20
HETATM   20  C   UNL     4      -9.695  11.660  68.220  1.00  0.00    -0.197 C  
HETATM   21  C   UNL     4      -8.630  10.496  68.169  1.00  0.00    -0.123 C  
HETATM   22  O   UNL     4      -8.193  10.134  69.302  1.00  0.00    -0.130 OA 
HETATM   23  O   UNL     4      -8.307  10.028  67.023  1.00  0.00    -0.120 OA 
ENDBRANCH   8  20
ENDBRANCH   7   8
TORSDOF 7
ENDMDL
MODEL      277
REMARK 921   NORMALIZED FREE ENERGY PREDICTED BY IDOCK:   -3.30 KCAL/MOL
REMARK 922        TOTAL FREE ENERGY PREDICTED BY IDOCK:   -6.09 KCAL/MOL
REMARK 923 INTER-LIGAND FREE ENERGY PREDICTED BY IDOCK:   -5.15 KCAL/MOL
REMARK 924 INTRA-LIGAND FREE ENERGY PREDICTED BY IDOCK:   -0.94 KCAL/MOL
REMARK 927      BINDING AFFINITY PREDICTED BY RF-SCORE:    0.00 PKD
ROOT
HETATM    1 NA   UNL     1      -9.394   9.551  71.919  1.00  0.00    -0.232 Na 
HETATM    2 NA   UNL     2     -10.878   5.716  69.839  1.00  0.00    -0.199 Na 
HETATM    3 CA   UNL     3      -5.892  10.654  67.834  1.00  0.00    -0.043 Ca 
HETATM    4  O   UNL     4     -10.718   9.430  70.364  1.00  0.00    -0.224 OA 
HETATM    5  C   UNL     4     -10.663   8.774  69.283  1.00  0.00    -0.151 C  
HETATM    6  O   UNL     4     -10.426   7.517  69.261  1.00  0.00    -0.210 OA 
HETATM    7  C   UNL     4     -10.873   9.433  67.906  1.00  0.00    -0.154 C  
ENDROOT
BRANCH   7   8
HETATM    8  N   UNL     4     -10.722  10.909  67.781  1.00  0.00    -0.216 NA 
BRANCH   8   9
HETATM    9  C   UNL     4     -11.651  11.791  68.496  1.00  0.00    -0.321 C  
BRANCH   9  10
HETATM   10  C   UNL     4     -11.926  13.167  67.887  1.00  0.00    -0.303 C  
BRANCH  10  11
HETATM   11  N   UNL     4     -11.509  14.302  68.749  1.00  0.00    -0.277 NA 
BRANCH  11  12
HETATM   12  C   UNL     4     -11.416  13.957  70.203  1.00  0.00    -0.099 C  
HETATM   13  O   UNL     4     -11.656  15.619  71.943  1.00  0.00    -0.401 OA 
HETATM   14  O   UNL     4     -13.327  15.350  70.372  1.00  0.00    -0.237 OA 
HETATM   15  C   UNL     4     -12.225  15.059  70.975  1.00  0.00    -0.326 C  
ENDBRANCH  11  12
BRANCH  11  16
HETATM   16  C   UNL     4     -10.182  14.839  68.274  1.00  0.00    -0.227 C  
HETATM   17  C   UNL     4     -10.502  16.154  67.504  1.00  0.00    -0.302 C  
HETATM   18  O   UNL     4     -10.241  16.132  66.267  1.00  0.00    -0.289 OA 
HETATM   19  O   UNL     4     -11.253  16.944  68.193  1.00  0.00    -0.297 OA 
ENDBRANCH  11  16
ENDBRANCH  10  11
ENDBRANCH   9  10
ENDBRANCH   8   9
BRANCH   8  20
HETATM   20  C   UNL     4      -9.320  11.261  68.251  1.00  0.00    -0.180 C  
HETATM   21  C   UNL     4      -8.305  11.682  67.117  1.00  0.00    -0.164 C  
HETATM   22  O   UNL     4      -7.481  12.581  67.458  1.00  0.00    -0.129 OA 
HETATM   23  O   UNL     4      -8.396  11.096  65.984  1.00  0.00    -0.167 OA 
ENDBRANCH   8  20
ENDBRANCH   7   8
TORSDOF 7
ENDMDL
MODEL      278
REMARK 921   NORMALIZED FREE ENERGY PREDICTED BY IDOCK:   -3.29 KCAL/MOL
REMARK 922        TOTAL FREE ENERGY PREDICTED BY IDOCK:   -6.08 KCAL/MOL
REMARK 923 INTER-LIGAND FREE ENERGY PREDICTED BY IDOCK:   -4.95 KCAL/MOL
REMARK 924 INTRA-LIGAND FREE ENERGY PREDICTED BY IDOCK:   -1.13 KCAL/MOL
REMARK 927      BINDING AFFINITY PREDICTED BY RF-SCORE:    0.00 PKD
ROOT
HETATM    1 NA   UNL     1      -7.685   7.628  69.960  1.00  0.00    -0.076 Na 
HETATM    2 NA   UNL     2     -10.472   7.982  73.613  1.00  0.00    -0.308 Na 
HETATM    3 CA   UNL     3     -11.927   6.964  66.534  1.00  0.00    -0.393 Ca 
HETATM    4  O   UNL     4      -8.770   9.269  70.524  1.00  0.00    -0.201 OA 
HETATM    5  C   UNL     4      -9.983   9.376  70.870  1.00  0.00    -0.283 C  
HETATM    6  O   UNL     4     -10.497   8.644  71.785  1.00  0.00    -0.268 OA 
HETATM    7  C   UNL     4     -10.940  10.393  70.220  1.00  0.00    -0.284 C  
ENDROOT
BRANCH   7   8
HETATM    8  N   UNL     4     -10.587  10.970  68.892  1.00  0.00    -0.197 NA 
BRANCH   8   9
HETATM    9  C   UNL     4     -11.112  10.347  67.674  1.00  0.00    -0.293 C  
BRANCH   9  10
HETATM   10  C   UNL     4     -10.167   9.445  66.879  1.00  0.00    -0.248 C  
BRANCH  10  11
HETATM   11  N   UNL     4      -9.473  10.134  65.762  1.00  0.00    -0.192 NA 
BRANCH  11  12
HETATM   12  C   UNL     4      -8.302   9.377  65.216  1.00  0.00    -0.141 C  
HETATM   13  O   UNL     4      -6.304  10.484  64.423  1.00  0.00    -0.087 OA 
HETATM   14  O   UNL     4      -7.056  10.871  66.572  1.00  0.00    -0.125 OA 
HETATM   15  C   UNL     4      -7.045  10.295  65.418  1.00  0.00    -0.139 C  
ENDBRANCH  11  12
BRANCH  11  16
HETATM   16  C   UNL     4     -10.454  10.411  64.650  1.00  0.00     0.023 C  
HETATM   17  C   UNL     4     -10.756  11.938  64.716  1.00  0.00    -0.307 C  
HETATM   18  O   UNL     4     -11.947  12.239  65.013  1.00  0.00    -0.385 OA 
HETATM   19  O   UNL     4      -9.676  12.641  64.747  1.00  0.00    -0.081 OA 
ENDBRANCH  11  16
ENDBRANCH  10  11
ENDBRANCH   9  10
ENDBRANCH   8   9
BRANCH   8  20
HETATM   20  C   UNL     4     -11.052  12.418  68.891  1.00  0.00    -0.258 C  
HETATM   21  C   UNL     4     -10.231  13.397  67.964  1.00  0.00    -0.243 C  
HETATM   22  O   UNL     4     -10.925  14.302  67.411  1.00  0.00    -0.284 OA 
HETATM   23  O   UNL     4      -8.972  13.203  67.851  1.00  0.00    -0.181 OA 
ENDBRANCH   8  20
ENDBRANCH   7   8
TORSDOF 7
ENDMDL
MODEL      279
REMARK 921   NORMALIZED FREE ENERGY PREDICTED BY IDOCK:   -3.29 KCAL/MOL
REMARK 922        TOTAL FREE ENERGY PREDICTED BY IDOCK:   -6.07 KCAL/MOL
REMARK 923 INTER-LIGAND FREE ENERGY PREDICTED BY IDOCK:   -4.94 KCAL/MOL
REMARK 924 INTRA-LIGAND FREE ENERGY PREDICTED BY IDOCK:   -1.14 KCAL/MOL
REMARK 927      BINDING AFFINITY PREDICTED BY RF-SCORE:    0.00 PKD
ROOT
HETATM    1 NA   UNL     1     -11.109  14.783  68.033  1.00  0.00    -0.236 Na 
HETATM    2 NA   UNL     2     -13.226  14.784  63.940  1.00  0.00    -0.551 Na 
HETATM    3 CA   UNL     3     -13.582  10.116  69.539  1.00  0.00    -0.592 Ca 
HETATM    4  O   UNL     4     -10.620  13.656  66.396  1.00  0.00    -0.279 OA 
HETATM    5  C   UNL     4     -11.346  12.961  65.627  1.00  0.00    -0.311 C  
HETATM    6  O   UNL     4     -12.393  13.435  65.066  1.00  0.00    -0.398 OA 
HETATM    7  C   UNL     4     -11.031  11.487  65.305  1.00  0.00    -0.228 C  
ENDROOT
BRANCH   7   8
HETATM    8  N   UNL     4     -10.125  10.728  66.211  1.00  0.00    -0.225 NA 
BRANCH   8   9
HETATM    9  C   UNL     4     -10.105   9.263  66.148  1.00  0.00    -0.233 C  
BRANCH   9  10
HETATM   10  C   UNL     4     -10.188   8.499  67.471  1.00  0.00    -0.242 C  
BRANCH  10  11
HETATM   11  N   UNL     4      -9.070   7.547  67.689  1.00  0.00    -0.126 NA 
BRANCH  11  12
HETATM   12  C   UNL     4      -8.138   7.949  68.791  1.00  0.00    -0.126 C  
HETATM   13  O   UNL     4      -5.962   6.933  69.076  1.00  0.00    -0.021 OA 
HETATM   14  O   UNL     4      -6.518   7.911  67.059  1.00  0.00    -0.053 OA 
HETATM   15  C   UNL     4      -6.689   7.597  68.298  1.00  0.00    -0.062 C  
ENDBRANCH  11  12
BRANCH  11  16
HETATM   16  C   UNL     4      -9.622   6.173  67.975  1.00  0.00    -0.115 C  
HETATM   17  C   UNL     4      -9.722   5.456  66.596  1.00  0.00    -0.161 C  
HETATM   18  O   UNL     4     -10.896   5.178  66.217  1.00  0.00    -0.296 OA 
HETATM   19  O   UNL     4      -8.618   5.530  65.934  1.00  0.00    -0.130 OA 
ENDBRANCH  11  16
ENDBRANCH  10  11
ENDBRANCH   9  10
ENDBRANCH   8   9
BRANCH   8  20
HETATM   20  C   UNL     4      -8.707  11.206  65.938  1.00  0.00    -0.164 C  
HETATM   21  C   UNL     4      -7.825  11.491  67.215  1.00  0.00    -0.153 C  
HETATM   22  O   UNL     4      -6.599  11.199  67.082  1.00  0.00    -0.081 OA 
HETATM   23  O   UNL     4      -8.402  11.980  68.246  1.00  0.00    -0.153 OA 
ENDBRANCH   8  20
ENDBRANCH   7   8
TORSDOF 7
ENDMDL
MODEL      280
REMARK 921   NORMALIZED FREE ENERGY PREDICTED BY IDOCK:   -3.28 KCAL/MOL
REMARK 922        TOTAL FREE ENERGY PREDICTED BY IDOCK:   -6.06 KCAL/MOL
REMARK 923 INTER-LIGAND FREE ENERGY PREDICTED BY IDOCK:   -6.41 KCAL/MOL
REMARK 924 INTRA-LIGAND FREE ENERGY PREDICTED BY IDOCK:    0.34 KCAL/MOL
REMARK 927      BINDING AFFINITY PREDICTED BY RF-SCORE:    0.00 PKD
ROOT
HETATM    1 NA   UNL     1     -13.002  14.855  67.132  1.00  0.00    -0.526 Na 
HETATM    2 NA   UNL     2     -13.543  12.326  63.318  1.00  0.00    -0.685 Na 
HETATM    3 CA   UNL     3     -12.798  10.382  70.313  1.00  0.00    -0.285 Ca 
HETATM    4  O   UNL     4     -11.545  13.842  66.112  1.00  0.00    -0.335 OA 
HETATM    5  C   UNL     4     -11.523  12.658  65.667  1.00  0.00    -0.350 C  
HETATM    6  O   UNL     4     -12.454  12.192  64.924  1.00  0.00    -0.467 OA 
HETATM    7  C   UNL     4     -10.375  11.680  65.982  1.00  0.00    -0.243 C  
ENDROOT
BRANCH   7   8
HETATM    8  N   UNL     4      -9.492  11.955  67.151  1.00  0.00    -0.175 NA 
BRANCH   8   9
HETATM    9  C   UNL     4     -10.052  12.607  68.338  1.00  0.00    -0.222 C  
BRANCH   9  10
HETATM   10  C   UNL     4      -9.818  14.111  68.493  1.00  0.00    -0.230 C  
BRANCH  10  11
HETATM   11  N   UNL     4     -10.878  14.810  69.263  1.00  0.00    -0.258 NA 
BRANCH  11  12
HETATM   12  C   UNL     4     -11.580  13.938  70.258  1.00  0.00    -0.147 C  
HETATM   13  O   UNL     4     -12.605  14.828  72.259  1.00  0.00    -0.317 OA 
HETATM   14  O   UNL     4     -13.216  15.654  70.191  1.00  0.00    -0.168 OA 
HETATM   15  C   UNL     4     -12.611  14.857  71.005  1.00  0.00    -0.336 C  
ENDBRANCH  11  12
BRANCH  11  16
HETATM   16  C   UNL     4     -10.287  16.003  69.971  1.00  0.00    -0.203 C  
HETATM   17  C   UNL     4     -10.168  17.124  68.897  1.00  0.00    -0.332 C  
HETATM   18  O   UNL     4      -8.988  17.479  68.615  1.00  0.00    -0.279 OA 
HETATM   19  O   UNL     4     -11.275  17.297  68.259  1.00  0.00    -0.187 OA 
ENDBRANCH  11  16
ENDBRANCH  10  11
ENDBRANCH   9  10
ENDBRANCH   8   9
BRANCH   8  20
HETATM   20  C   UNL     4      -8.913  10.623  67.603  1.00  0.00    -0.139 C  
HETATM   21  C   UNL     4      -9.969   9.502  67.949  1.00  0.00    -0.172 C  
HETATM   22  O   UNL     4      -9.609   8.328  67.641  1.00  0.00    -0.145 OA 
HETATM   23  O   UNL     4     -11.068   9.861  68.498  1.00  0.00    -0.207 OA 
ENDBRANCH   8  20
ENDBRANCH   7   8
TORSDOF 7
ENDMDL
MODEL      281
REMARK 921   NORMALIZED FREE ENERGY PREDICTED BY IDOCK:   -3.28 KCAL/MOL
REMARK 922        TOTAL FREE ENERGY PREDICTED BY IDOCK:   -6.06 KCAL/MOL
REMARK 923 INTER-LIGAND FREE ENERGY PREDICTED BY IDOCK:   -5.00 KCAL/MOL
REMARK 924 INTRA-LIGAND FREE ENERGY PREDICTED BY IDOCK:   -1.07 KCAL/MOL
REMARK 927      BINDING AFFINITY PREDICTED BY RF-SCORE:    0.00 PKD
ROOT
HETATM    1 NA   UNL     1      -6.323   8.856  66.923  1.00  0.00    -0.050 Na 
HETATM    2 NA   UNL     2      -7.969   4.616  67.658  1.00  0.00    -0.084 Na 
HETATM    3 CA   UNL     3     -10.745  10.285  63.995  1.00  0.00    -0.378 Ca 
HETATM    4  O   UNL     4      -7.755   8.312  68.279  1.00  0.00    -0.102 OA 
HETATM    5  C   UNL     4      -8.781   7.583  68.146  1.00  0.00    -0.122 C  
HETATM    6  O   UNL     4      -8.722   6.409  67.644  1.00  0.00    -0.115 OA 
HETATM    7  C   UNL     4     -10.186   8.050  68.577  1.00  0.00    -0.207 C  
ENDROOT
BRANCH   7   8
HETATM    8  N   UNL     4     -10.439   9.506  68.759  1.00  0.00    -0.215 NA 
BRANCH   8   9
HETATM    9  C   UNL     4     -10.608  10.360  67.579  1.00  0.00    -0.262 C  
BRANCH   9  10
HETATM   10  C   UNL     4     -11.283  11.718  67.783  1.00  0.00    -0.266 C  
BRANCH  10  11
HETATM   11  N   UNL     4     -10.479  12.869  67.298  1.00  0.00    -0.233 NA 
BRANCH  11  12
HETATM   12  C   UNL     4      -9.152  13.011  67.978  1.00  0.00    -0.210 C  
HETATM   13  O   UNL     4      -8.000  15.132  68.131  1.00  0.00    -0.119 OA 
HETATM   14  O   UNL     4     -10.158  14.936  68.930  1.00  0.00    -0.224 OA 
HETATM   15  C   UNL     4      -9.046  14.509  68.437  1.00  0.00    -0.191 C  
ENDBRANCH  11  12
BRANCH  11  16
HETATM   16  C   UNL     4     -10.270  12.751  65.809  1.00  0.00    -0.289 C  
HETATM   17  C   UNL     4     -11.317  13.699  65.153  1.00  0.00    -0.309 C  
HETATM   18  O   UNL     4     -12.202  13.125  64.456  1.00  0.00    -0.384 OA 
HETATM   19  O   UNL     4     -11.285  14.880  65.668  1.00  0.00    -0.341 OA 
ENDBRANCH  11  16
ENDBRANCH  10  11
ENDBRANCH   9  10
ENDBRANCH   8   9
BRANCH   8  20
HETATM   20  C   UNL     4     -11.700   9.645  69.597  1.00  0.00     0.173 C  
HETATM   21  C   UNL     4     -11.471   9.908  71.137  1.00  0.00    -0.383 C  
HETATM   22  O   UNL     4     -12.326  10.674  71.671  1.00  0.00    -0.342 OA 
HETATM   23  O   UNL     4     -10.472   9.341  71.700  1.00  0.00    -0.344 OA 
ENDBRANCH   8  20
ENDBRANCH   7   8
TORSDOF 7
ENDMDL
MODEL      282
REMARK 921   NORMALIZED FREE ENERGY PREDICTED BY IDOCK:   -3.28 KCAL/MOL
REMARK 922        TOTAL FREE ENERGY PREDICTED BY IDOCK:   -6.06 KCAL/MOL
REMARK 923 INTER-LIGAND FREE ENERGY PREDICTED BY IDOCK:   -5.52 KCAL/MOL
REMARK 924 INTRA-LIGAND FREE ENERGY PREDICTED BY IDOCK:   -0.54 KCAL/MOL
REMARK 927      BINDING AFFINITY PREDICTED BY RF-SCORE:    0.00 PKD
ROOT
HETATM    1 NA   UNL     1     -13.199  14.758  67.002  1.00  0.00    -0.531 Na 
HETATM    2 NA   UNL     2     -12.276  14.195  62.522  1.00  0.00    -0.949 Na 
HETATM    3 CA   UNL     3     -12.154   9.476  68.088  1.00  0.00    -0.404 Ca 
HETATM    4  O   UNL     4     -11.349  14.645  66.133  1.00  0.00    -0.344 OA 
HETATM    5  C   UNL     4     -10.885  13.827  65.286  1.00  0.00    -0.324 C  
HETATM    6  O   UNL     4     -11.486  13.570  64.187  1.00  0.00    -0.384 OA 
HETATM    7  C   UNL     4      -9.560  13.072  65.508  1.00  0.00     0.047 C  
ENDROOT
BRANCH   7   8
HETATM    8  N   UNL     4      -9.017  12.958  66.891  1.00  0.00    -0.220 NA 
BRANCH   8   9
HETATM    9  C   UNL     4      -8.387  11.705  67.317  1.00  0.00    -0.158 C  
BRANCH   9  10
HETATM   10  C   UNL     4      -9.304  10.508  67.577  1.00  0.00    -0.149 C  
BRANCH  10  11
HETATM   11  N   UNL     4      -9.948  10.523  68.915  1.00  0.00    -0.194 NA 
BRANCH  11  12
HETATM   12  C   UNL     4      -9.160   9.818  69.975  1.00  0.00    -0.223 C  
HETATM   13  O   UNL     4     -10.205   8.840  71.925  1.00  0.00    -0.301 OA 
HETATM   14  O   UNL     4     -10.900   8.215  69.813  1.00  0.00    -0.245 OA 
HETATM   15  C   UNL     4     -10.148   8.815  70.671  1.00  0.00    -0.204 C  
ENDBRANCH  11  12
BRANCH  11  16
HETATM   16  C   UNL     4     -10.201  11.947  69.341  1.00  0.00     0.384 C  
HETATM   17  C   UNL     4     -11.749  12.106  69.408  1.00  0.00    -0.329 C  
HETATM   18  O   UNL     4     -12.245  12.914  68.572  1.00  0.00    -0.203 OA 
HETATM   19  O   UNL     4     -12.298  11.169  70.103  1.00  0.00    -0.304 OA 
ENDBRANCH  11  16
ENDBRANCH  10  11
ENDBRANCH   9  10
ENDBRANCH   8   9
BRANCH   8  20
HETATM   20  C   UNL     4      -7.983  14.060  67.061  1.00  0.00     0.055 C  
HETATM   21  C   UNL     4      -6.771  13.716  68.013  1.00  0.00    -0.141 C  
HETATM   22  O   UNL     4      -5.663  14.214  67.654  1.00  0.00    -0.302 OA 
HETATM   23  O   UNL     4      -7.002  12.987  69.039  1.00  0.00    -0.098 OA 
ENDBRANCH   8  20
ENDBRANCH   7   8
TORSDOF 7
ENDMDL
MODEL      283
REMARK 921   NORMALIZED FREE ENERGY PREDICTED BY IDOCK:   -3.27 KCAL/MOL
REMARK 922        TOTAL FREE ENERGY PREDICTED BY IDOCK:   -6.05 KCAL/MOL
REMARK 923 INTER-LIGAND FREE ENERGY PREDICTED BY IDOCK:   -5.07 KCAL/MOL
REMARK 924 INTRA-LIGAND FREE ENERGY PREDICTED BY IDOCK:   -0.98 KCAL/MOL
REMARK 927      BINDING AFFINITY PREDICTED BY RF-SCORE:    0.00 PKD
ROOT
HETATM    1 NA   UNL     1     -12.455   6.712  69.115  1.00  0.00    -0.601 Na 
HETATM    2 NA   UNL     2     -11.934   4.242  65.260  1.00  0.00    -0.658 Na 
HETATM    3 CA   UNL     3      -7.803   4.727  71.257  1.00  0.00    -0.067 Ca 
HETATM    4  O   UNL     4     -11.212   7.132  67.544  1.00  0.00    -0.147 OA 
HETATM    5  C   UNL     4     -10.403   6.392  66.914  1.00  0.00    -0.241 C  
HETATM    6  O   UNL     4     -10.754   5.268  66.416  1.00  0.00    -0.307 OA 
HETATM    7  C   UNL     4      -8.928   6.782  66.694  1.00  0.00    -0.144 C  
ENDROOT
BRANCH   7   8
HETATM    8  N   UNL     4      -8.316   7.819  67.572  1.00  0.00    -0.120 NA 
BRANCH   8   9
HETATM    9  C   UNL     4      -8.812   9.197  67.511  1.00  0.00    -0.119 C  
BRANCH   9  10
HETATM   10  C   UNL     4      -9.487   9.760  68.763  1.00  0.00    -0.154 C  
BRANCH  10  11
HETATM   11  N   UNL     4     -10.575  10.729  68.477  1.00  0.00    -0.182 NA 
BRANCH  11  12
HETATM   12  C   UNL     4     -10.828  10.943  67.017  1.00  0.00    -0.266 C  
HETATM   13  O   UNL     4     -11.719  13.018  66.151  1.00  0.00    -0.354 OA 
HETATM   14  O   UNL     4      -9.795  13.038  67.427  1.00  0.00    -0.209 OA 
HETATM   15  C   UNL     4     -10.766  12.494  66.777  1.00  0.00    -0.236 C  
ENDBRANCH  11  12
BRANCH  11  16
HETATM   16  C   UNL     4     -11.848  10.276  69.146  1.00  0.00     0.033 C  
HETATM   17  C   UNL     4     -11.990  11.144  70.432  1.00  0.00    -0.378 C  
HETATM   18  O   UNL     4     -11.914  10.509  71.522  1.00  0.00    -0.300 OA 
HETATM   19  O   UNL     4     -11.865  12.402  70.178  1.00  0.00    -0.324 OA 
ENDBRANCH  11  16
ENDBRANCH  10  11
ENDBRANCH   9  10
ENDBRANCH   8   9
BRANCH   8  20
HETATM   20  C   UNL     4      -8.480   7.347  69.008  1.00  0.00    -0.129 C  
HETATM   21  C   UNL     4      -7.140   7.034  69.781  1.00  0.00    -0.067 C  
HETATM   22  O   UNL     4      -7.162   7.330  71.012  1.00  0.00    -0.070 OA 
HETATM   23  O   UNL     4      -6.172   6.521  69.120  1.00  0.00    -0.031 OA 
ENDBRANCH   8  20
ENDBRANCH   7   8
TORSDOF 7
ENDMDL
MODEL      284
REMARK 921   NORMALIZED FREE ENERGY PREDICTED BY IDOCK:   -3.26 KCAL/MOL
REMARK 922        TOTAL FREE ENERGY PREDICTED BY IDOCK:   -6.04 KCAL/MOL
REMARK 923 INTER-LIGAND FREE ENERGY PREDICTED BY IDOCK:   -5.49 KCAL/MOL
REMARK 924 INTRA-LIGAND FREE ENERGY PREDICTED BY IDOCK:   -0.55 KCAL/MOL
REMARK 927      BINDING AFFINITY PREDICTED BY RF-SCORE:    0.00 PKD
ROOT
HETATM    1 NA   UNL     1     -12.730  12.236  66.474  1.00  0.00    -0.240 Na 
HETATM    2 NA   UNL     2     -13.656  14.078  62.353  1.00  0.00     0.018 Na 
HETATM    3 CA   UNL     3      -7.364  11.912  65.349  1.00  0.00    -0.244 Ca 
HETATM    4  O   UNL     4     -12.437  14.179  65.903  1.00  0.00    -0.471 OA 
HETATM    5  C   UNL     4     -11.903  14.660  64.862  1.00  0.00    -0.403 C  
HETATM    6  O   UNL     4     -12.258  14.303  63.686  1.00  0.00    -0.610 OA 
HETATM    7  C   UNL     4     -10.780  15.714  64.923  1.00  0.00    -0.382 C  
ENDROOT
BRANCH   7   8
HETATM    8  N   UNL     4     -10.008  15.875  66.187  1.00  0.00    -0.291 NA 
BRANCH   8   9
HETATM    9  C   UNL     4      -8.896  14.963  66.472  1.00  0.00    -0.221 C  
BRANCH   9  10
HETATM   10  C   UNL     4      -8.944  14.181  67.786  1.00  0.00    -0.187 C  
BRANCH  10  11
HETATM   11  N   UNL     4      -8.835  12.710  67.616  1.00  0.00    -0.174 NA 
BRANCH  11  12
HETATM   12  C   UNL     4      -7.972  12.044  68.643  1.00  0.00    -0.082 C  
HETATM   13  O   UNL     4      -5.978  10.811  68.051  1.00  0.00    -0.049 OA 
HETATM   14  O   UNL     4      -6.209  13.010  67.386  1.00  0.00    -0.217 OA 
HETATM   15  C   UNL     4      -6.537  11.933  68.014  1.00  0.00    -0.063 C  
ENDBRANCH  11  12
BRANCH  11  16
HETATM   16  C   UNL     4     -10.211  12.093  67.640  1.00  0.00    -0.197 C  
HETATM   17  C   UNL     4     -10.305  11.206  66.363  1.00  0.00    -0.252 C  
HETATM   18  O   UNL     4     -11.157  11.580  65.508  1.00  0.00    -0.271 OA 
HETATM   19  O   UNL     4      -9.296  10.410  66.256  1.00  0.00    -0.159 OA 
ENDBRANCH  11  16
ENDBRANCH  10  11
ENDBRANCH   9  10
ENDBRANCH   8   9
BRANCH   8  20
HETATM   20  C   UNL     4      -9.443  17.287  66.195  1.00  0.00    -0.179 C  
HETATM   21  C   UNL     4      -9.945  18.215  67.369  1.00  0.00    -0.323 C  
HETATM   22  O   UNL     4      -9.072  19.020  67.811  1.00  0.00    -0.285 OA 
HETATM   23  O   UNL     4     -11.154  18.084  67.763  1.00  0.00    -0.206 OA 
ENDBRANCH   8  20
ENDBRANCH   7   8
TORSDOF 7
ENDMDL
MODEL      285
REMARK 921   NORMALIZED FREE ENERGY PREDICTED BY IDOCK:   -3.26 KCAL/MOL
REMARK 922        TOTAL FREE ENERGY PREDICTED BY IDOCK:   -6.03 KCAL/MOL
REMARK 923 INTER-LIGAND FREE ENERGY PREDICTED BY IDOCK:   -5.88 KCAL/MOL
REMARK 924 INTRA-LIGAND FREE ENERGY PREDICTED BY IDOCK:   -0.15 KCAL/MOL
REMARK 927      BINDING AFFINITY PREDICTED BY RF-SCORE:    0.00 PKD
ROOT
HETATM    1 NA   UNL     1     -12.433  11.900  65.297  1.00  0.00    -0.379 Na 
HETATM    2 NA   UNL     2     -12.397  16.047  63.287  1.00  0.00    -0.868 Na 
HETATM    3 CA   UNL     3      -7.184  10.984  63.962  1.00  0.00    -0.330 Ca 
HETATM    4  O   UNL     4     -11.637  13.627  66.054  1.00  0.00    -0.318 OA 
HETATM    5  C   UNL     4     -10.882  14.490  65.520  1.00  0.00    -0.336 C  
HETATM    6  O   UNL     4     -11.161  15.037  64.398  1.00  0.00    -0.261 OA 
HETATM    7  C   UNL     4      -9.565  14.953  66.173  1.00  0.00    -0.310 C  
ENDROOT
BRANCH   7   8
HETATM    8  N   UNL     4      -8.940  14.098  67.221  1.00  0.00    -0.203 NA 
BRANCH   8   9
HETATM    9  C   UNL     4      -8.314  12.829  66.836  1.00  0.00    -0.058 C  
BRANCH   9  10
HETATM   10  C   UNL     4      -9.060  11.540  67.187  1.00  0.00    -0.167 C  
BRANCH  10  11
HETATM   11  N   UNL     4      -8.933  10.473  66.163  1.00  0.00    -0.156 NA 
BRANCH  11  12
HETATM   12  C   UNL     4      -8.429   9.170  66.704  1.00  0.00    -0.123 C  
HETATM   13  O   UNL     4      -8.607   8.587  69.044  1.00  0.00    -0.128 OA 
HETATM   14  O   UNL     4     -10.502   9.162  67.855  1.00  0.00    -0.227 OA 
HETATM   15  C   UNL     4      -9.253   8.881  68.009  1.00  0.00    -0.139 C  
ENDBRANCH  11  12
BRANCH  11  16
HETATM   16  C   UNL     4     -10.266  10.254  65.491  1.00  0.00    -0.238 C  
HETATM   17  C   UNL     4     -10.053  10.613  63.990  1.00  0.00    -0.310 C  
HETATM   18  O   UNL     4     -10.701  11.617  63.578  1.00  0.00    -0.381 OA 
HETATM   19  O   UNL     4      -9.028  10.009  63.493  1.00  0.00    -0.215 OA 
ENDBRANCH  11  16
ENDBRANCH  10  11
ENDBRANCH   9  10
ENDBRANCH   8   9
BRANCH   8  20
HETATM   20  C   UNL     4      -7.870  14.934  67.907  1.00  0.00    -0.137 C  
HETATM   21  C   UNL     4      -8.150  15.291  69.419  1.00  0.00    -0.230 C  
HETATM   22  O   UNL     4      -7.116  15.322  70.151  1.00  0.00    -0.091 OA 
HETATM   23  O   UNL     4      -9.359  15.515  69.769  1.00  0.00    -0.274 OA 
ENDBRANCH   8  20
ENDBRANCH   7   8
TORSDOF 7
ENDMDL
MODEL      286
REMARK 921   NORMALIZED FREE ENERGY PREDICTED BY IDOCK:   -3.25 KCAL/MOL
REMARK 922        TOTAL FREE ENERGY PREDICTED BY IDOCK:   -6.03 KCAL/MOL
REMARK 923 INTER-LIGAND FREE ENERGY PREDICTED BY IDOCK:   -4.92 KCAL/MOL
REMARK 924 INTRA-LIGAND FREE ENERGY PREDICTED BY IDOCK:   -1.10 KCAL/MOL
REMARK 927      BINDING AFFINITY PREDICTED BY RF-SCORE:    0.00 PKD
ROOT
HETATM    1 NA   UNL     1      -6.418  14.573  66.870  1.00  0.00    -0.128 Na 
HETATM    2 NA   UNL     2      -6.256  17.597  70.344  1.00  0.00    -0.235 Na 
HETATM    3 CA   UNL     3      -8.719  10.733  70.052  1.00  0.00    -0.326 Ca 
HETATM    4  O   UNL     4      -7.969  15.693  67.598  1.00  0.00    -0.136 OA 
HETATM    5  C   UNL     4      -8.351  15.896  68.787  1.00  0.00    -0.206 C  
HETATM    6  O   UNL     4      -7.552  16.295  69.701  1.00  0.00    -0.106 OA 
HETATM    7  C   UNL     4      -9.811  15.677  69.232  1.00  0.00    -0.269 C  
ENDROOT
BRANCH   7   8
HETATM    8  N   UNL     4     -10.700  14.824  68.397  1.00  0.00    -0.237 NA 
BRANCH   8   9
HETATM    9  C   UNL     4     -10.564  13.365  68.457  1.00  0.00    -0.253 C  
BRANCH   9  10
HETATM   10  C   UNL     4     -10.703  12.589  67.146  1.00  0.00    -0.237 C  
BRANCH  10  11
HETATM   11  N   UNL     4      -9.947  11.312  67.119  1.00  0.00    -0.190 NA 
BRANCH  11  12
HETATM   12  C   UNL     4     -10.776  10.123  66.742  1.00  0.00    -0.121 C  
HETATM   13  O   UNL     4     -10.381   7.925  67.670  1.00  0.00    -0.210 OA 
HETATM   14  O   UNL     4     -10.757   9.716  69.078  1.00  0.00    -0.217 OA 
HETATM   15  C   UNL     4     -10.678   9.114  67.941  1.00  0.00    -0.162 C  
ENDBRANCH  11  12
BRANCH  11  16
HETATM   16  C   UNL     4      -8.782  11.432  66.168  1.00  0.00    -0.153 C  
HETATM   17  C   UNL     4      -7.500  11.254  67.035  1.00  0.00    -0.139 C  
HETATM   18  O   UNL     4      -6.754  12.271  67.110  1.00  0.00    -0.149 OA 
HETATM   19  O   UNL     4      -7.562  10.197  67.771  1.00  0.00    -0.089 OA 
ENDBRANCH  11  16
ENDBRANCH  10  11
ENDBRANCH   9  10
ENDBRANCH   8   9
BRANCH   8  20
HETATM   20  C   UNL     4     -12.134  15.155  68.780  1.00  0.00    -0.165 C  
HETATM   21  C   UNL     4     -12.518  14.886  70.287  1.00  0.00    -0.336 C  
HETATM   22  O   UNL     4     -13.332  15.722  70.779  1.00  0.00    -0.539 OA 
HETATM   23  O   UNL     4     -11.991  13.876  70.869  1.00  0.00    -0.318 OA 
ENDBRANCH   8  20
ENDBRANCH   7   8
TORSDOF 7
ENDMDL
MODEL      287
REMARK 921   NORMALIZED FREE ENERGY PREDICTED BY IDOCK:   -3.25 KCAL/MOL
REMARK 922        TOTAL FREE ENERGY PREDICTED BY IDOCK:   -6.02 KCAL/MOL
REMARK 923 INTER-LIGAND FREE ENERGY PREDICTED BY IDOCK:   -6.08 KCAL/MOL
REMARK 924 INTRA-LIGAND FREE ENERGY PREDICTED BY IDOCK:    0.06 KCAL/MOL
REMARK 927      BINDING AFFINITY PREDICTED BY RF-SCORE:    0.00 PKD
ROOT
HETATM    1 NA   UNL     1      -6.953   8.810  69.712  1.00  0.00    -0.043 Na 
HETATM    2 NA   UNL     2      -9.292   6.462  72.914  1.00  0.00    -0.136 Na 
HETATM    3 CA   UNL     3     -11.012   8.259  66.053  1.00  0.00    -0.297 Ca 
HETATM    4  O   UNL     4      -8.486   9.509  70.874  1.00  0.00    -0.269 OA 
HETATM    5  C   UNL     4      -9.614   9.003  71.141  1.00  0.00    -0.286 C  
HETATM    6  O   UNL     4      -9.738   7.811  71.585  1.00  0.00    -0.159 OA 
HETATM    7  C   UNL     4     -10.932   9.780  70.951  1.00  0.00    -0.341 C  
ENDROOT
BRANCH   7   8
HETATM    8  N   UNL     4     -10.946  10.972  70.057  1.00  0.00    -0.165 NA 
BRANCH   8   9
HETATM    9  C   UNL     4     -11.114  10.787  68.613  1.00  0.00    -0.259 C  
BRANCH   9  10
HETATM   10  C   UNL     4     -10.164  11.551  67.688  1.00  0.00    -0.184 C  
BRANCH  10  11
HETATM   11  N   UNL     4     -10.815  12.091  66.468  1.00  0.00    -0.265 NA 
BRANCH  11  12
HETATM   12  C   UNL     4     -10.921  11.101  65.349  1.00  0.00    -0.081 C  
HETATM   13  O   UNL     4     -12.174  11.561  63.332  1.00  0.00    -0.350 OA 
HETATM   14  O   UNL     4     -10.496  13.002  63.997  1.00  0.00    -0.418 OA 
HETATM   15  C   UNL     4     -11.211  11.931  64.048  1.00  0.00    -0.396 C  
ENDBRANCH  11  12
BRANCH  11  16
HETATM   16  C   UNL     4     -12.189  12.608  66.812  1.00  0.00     0.011 C  
HETATM   17  C   UNL     4     -12.006  14.116  67.158  1.00  0.00    -0.426 C  
HETATM   18  O   UNL     4     -12.258  14.429  68.356  1.00  0.00    -0.275 OA 
HETATM   19  O   UNL     4     -11.344  14.741  66.244  1.00  0.00    -0.343 OA 
ENDBRANCH  11  16
ENDBRANCH  10  11
ENDBRANCH   9  10
ENDBRANCH   8   9
BRANCH   8  20
HETATM   20  C   UNL     4     -12.074  11.876  70.527  1.00  0.00    -0.331 C  
HETATM   21  C   UNL     4     -13.132  11.205  71.487  1.00  0.00    -0.385 C  
HETATM   22  O   UNL     4     -13.590  11.973  72.384  1.00  0.00    -0.338 OA 
HETATM   23  O   UNL     4     -13.433   9.978  71.285  1.00  0.00    -0.349 OA 
ENDBRANCH   8  20
ENDBRANCH   7   8
TORSDOF 7
ENDMDL
MODEL      288
REMARK 921   NORMALIZED FREE ENERGY PREDICTED BY IDOCK:   -3.25 KCAL/MOL
REMARK 922        TOTAL FREE ENERGY PREDICTED BY IDOCK:   -6.02 KCAL/MOL
REMARK 923 INTER-LIGAND FREE ENERGY PREDICTED BY IDOCK:   -4.62 KCAL/MOL
REMARK 924 INTRA-LIGAND FREE ENERGY PREDICTED BY IDOCK:   -1.40 KCAL/MOL
REMARK 927      BINDING AFFINITY PREDICTED BY RF-SCORE:    0.00 PKD
ROOT
HETATM    1 NA   UNL     1      -8.557  10.335  69.579  1.00  0.00    -0.108 Na 
HETATM    2 NA   UNL     2     -11.296  11.672  66.123  1.00  0.00    -0.264 Na 
HETATM    3 CA   UNL     3     -12.572   7.382  71.888  1.00  0.00    -0.279 Ca 
HETATM    4  O   UNL     4      -9.088   9.237  67.937  1.00  0.00    -0.128 OA 
HETATM    5  C   UNL     4     -10.220   9.045  67.404  1.00  0.00    -0.245 C  
HETATM    6  O   UNL     4     -10.996  10.010  67.087  1.00  0.00    -0.226 OA 
HETATM    7  C   UNL     4     -10.758   7.633  67.096  1.00  0.00    -0.290 C  
ENDROOT
BRANCH   7   8
HETATM    8  N   UNL     4     -10.159   6.463  67.797  1.00  0.00    -0.134 NA 
BRANCH   8   9
HETATM    9  C   UNL     4     -10.981   5.680  68.724  1.00  0.00    -0.035 C  
BRANCH   9  10
HETATM   10  C   UNL     4     -11.473   6.379  69.993  1.00  0.00    -0.428 C  
BRANCH  10  11
HETATM   11  N   UNL     4     -10.579   6.202  71.165  1.00  0.00    -0.236 NA 
BRANCH  11  12
HETATM   12  C   UNL     4     -10.027   4.816  71.302  1.00  0.00    -0.200 C  
HETATM   13  O   UNL     4      -9.356   3.899  73.436  1.00  0.00    -0.107 OA 
HETATM   14  O   UNL     4     -11.499   4.712  73.158  1.00  0.00    -0.286 OA 
HETATM   15  C   UNL     4     -10.317   4.366  72.778  1.00  0.00    -0.184 C  
ENDBRANCH  11  12
BRANCH  11  16
HETATM   16  C   UNL     4      -9.442   7.189  71.090  1.00  0.00    -0.157 C  
HETATM   17  C   UNL     4      -9.971   8.502  71.739  1.00  0.00    -0.275 C  
HETATM   18  O   UNL     4     -10.070   9.490  70.956  1.00  0.00    -0.286 OA 
HETATM   19  O   UNL     4     -10.498   8.287  72.896  1.00  0.00    -0.314 OA 
ENDBRANCH  11  16
ENDBRANCH  10  11
ENDBRANCH   9  10
ENDBRANCH   8   9
BRANCH   8  20
HETATM   20  C   UNL     4      -9.654   5.506  66.729  1.00  0.00    -0.146 C  
HETATM   21  C   UNL     4      -8.436   4.595  67.149  1.00  0.00    -0.105 C  
HETATM   22  O   UNL     4      -8.458   3.428  66.655  1.00  0.00    -0.102 OA 
HETATM   23  O   UNL     4      -7.553   5.095  67.928  1.00  0.00    -0.082 OA 
ENDBRANCH   8  20
ENDBRANCH   7   8
TORSDOF 7
ENDMDL
MODEL      289
REMARK 921   NORMALIZED FREE ENERGY PREDICTED BY IDOCK:   -3.25 KCAL/MOL
REMARK 922        TOTAL FREE ENERGY PREDICTED BY IDOCK:   -6.02 KCAL/MOL
REMARK 923 INTER-LIGAND FREE ENERGY PREDICTED BY IDOCK:   -5.56 KCAL/MOL
REMARK 924 INTRA-LIGAND FREE ENERGY PREDICTED BY IDOCK:   -0.46 KCAL/MOL
REMARK 927      BINDING AFFINITY PREDICTED BY RF-SCORE:    0.00 PKD
ROOT
HETATM    1 NA   UNL     1     -11.259  19.726  65.770  1.00  0.00    -0.392 Na 
HETATM    2 NA   UNL     2     -11.078  21.208  70.130  1.00  0.00    -0.841 Na 
HETATM    3 CA   UNL     3      -5.816  19.020  65.571  1.00  0.00    -0.140 Ca 
HETATM    4  O   UNL     4     -11.055  18.577  67.452  1.00  0.00    -0.278 OA 
HETATM    5  C   UNL     4     -10.288  18.706  68.450  1.00  0.00    -0.311 C  
HETATM    6  O   UNL     4     -10.208  19.798  69.110  1.00  0.00    -0.412 OA 
HETATM    7  C   UNL     4      -9.387  17.561  68.951  1.00  0.00    -0.169 C  
ENDROOT
BRANCH   7   8
HETATM    8  N   UNL     4      -9.077  16.431  68.032  1.00  0.00    -0.198 NA 
BRANCH   8   9
HETATM    9  C   UNL     4      -9.615  16.444  66.668  1.00  0.00    -0.256 C  
BRANCH   9  10
HETATM   10  C   UNL     4     -10.849  15.584  66.388  1.00  0.00    -0.277 C  
BRANCH  10  11
HETATM   11  N   UNL     4     -11.225  14.686  67.509  1.00  0.00    -0.320 NA 
BRANCH  11  12
HETATM   12  C   UNL     4     -12.388  15.177  68.315  1.00  0.00     0.303 C  
HETATM   13  O   UNL     4     -13.100  14.086  70.352  1.00  0.00    -0.189 OA 
HETATM   14  O   UNL     4     -10.919  14.816  70.141  1.00  0.00    -0.213 OA 
HETATM   15  C   UNL     4     -12.151  14.681  69.785  1.00  0.00    -0.324 C  
ENDBRANCH  11  12
BRANCH  11  16
HETATM   16  C   UNL     4     -11.530  13.309  66.976  1.00  0.00    -0.339 C  
HETATM   17  C   UNL     4     -10.151  12.651  66.673  1.00  0.00    -0.241 C  
HETATM   18  O   UNL     4      -9.927  12.405  65.454  1.00  0.00    -0.267 OA 
HETATM   19  O   UNL     4      -9.347  12.738  67.677  1.00  0.00    -0.178 OA 
ENDBRANCH  11  16
ENDBRANCH  10  11
ENDBRANCH   9  10
ENDBRANCH   8   9
BRANCH   8  20
HETATM   20  C   UNL     4      -7.563  16.345  67.915  1.00  0.00    -0.148 C  
HETATM   21  C   UNL     4      -6.901  15.066  68.560  1.00  0.00    -0.102 C  
HETATM   22  O   UNL     4      -5.896  14.621  67.930  1.00  0.00    -0.141 OA 
HETATM   23  O   UNL     4      -7.417  14.599  69.633  1.00  0.00    -0.129 OA 
ENDBRANCH   8  20
ENDBRANCH   7   8
TORSDOF 7
ENDMDL
MODEL      290
REMARK 921   NORMALIZED FREE ENERGY PREDICTED BY IDOCK:   -3.24 KCAL/MOL
REMARK 922        TOTAL FREE ENERGY PREDICTED BY IDOCK:   -6.01 KCAL/MOL
REMARK 923 INTER-LIGAND FREE ENERGY PREDICTED BY IDOCK:   -5.03 KCAL/MOL
REMARK 924 INTRA-LIGAND FREE ENERGY PREDICTED BY IDOCK:   -0.97 KCAL/MOL
REMARK 927      BINDING AFFINITY PREDICTED BY RF-SCORE:    0.00 PKD
ROOT
HETATM    1 NA   UNL     1     -10.272  11.524  70.112  1.00  0.00    -0.419 Na 
HETATM    2 NA   UNL     2     -14.239  12.345  72.309  1.00  0.00    -0.346 Na 
HETATM    3 CA   UNL     3      -8.121   9.027  74.506  1.00  0.00    -0.226 Ca 
HETATM    4  O   UNL     4     -11.786  10.190  70.456  1.00  0.00    -0.277 OA 
HETATM    5  C   UNL     4     -12.434   9.934  71.512  1.00  0.00    -0.411 C  
HETATM    6  O   UNL     4     -13.000  10.849  72.203  1.00  0.00    -0.419 OA 
HETATM    7  C   UNL     4     -12.595   8.500  72.054  1.00  0.00    -0.364 C  
ENDROOT
BRANCH   7   8
HETATM    8  N   UNL     4     -11.648   7.445  71.598  1.00  0.00    -0.261 NA 
BRANCH   8   9
HETATM    9  C   UNL     4     -11.510   7.172  70.164  1.00  0.00    -0.205 C  
BRANCH   9  10
HETATM   10  C   UNL     4     -10.093   7.108  69.591  1.00  0.00    -0.192 C  
BRANCH  10  11
HETATM   11  N   UNL     4      -9.613   5.730  69.320  1.00  0.00    -0.134 NA 
BRANCH  11  12
HETATM   12  C   UNL     4     -10.075   4.719  70.324  1.00  0.00    -0.234 C  
HETATM   13  O   UNL     4      -8.863   2.668  70.743  1.00  0.00    -0.070 OA 
HETATM   14  O   UNL     4      -7.787   4.701  70.946  1.00  0.00    -0.073 OA 
HETATM   15  C   UNL     4      -8.798   3.921  70.771  1.00  0.00    -0.084 C  
ENDBRANCH  11  12
BRANCH  11  16
HETATM   16  C   UNL     4     -10.049   5.303  67.941  1.00  0.00    -0.156 C  
HETATM   17  C   UNL     4      -8.811   5.504  67.018  1.00  0.00    -0.110 C  
HETATM   18  O   UNL     4      -8.946   6.384  66.120  1.00  0.00    -0.154 OA 
HETATM   19  O   UNL     4      -7.753   4.953  67.506  1.00  0.00    -0.089 OA 
ENDBRANCH  11  16
ENDBRANCH  10  11
ENDBRANCH   9  10
ENDBRANCH   8   9
BRANCH   8  20
HETATM   20  C   UNL     4     -10.268   7.822  72.116  1.00  0.00    -0.213 C  
HETATM   21  C   UNL     4      -9.736   6.963  73.328  1.00  0.00    -0.185 C  
HETATM   22  O   UNL     4      -8.488   6.749  73.312  1.00  0.00    -0.117 OA 
HETATM   23  O   UNL     4     -10.583   6.566  74.200  1.00  0.00    -0.293 OA 
ENDBRANCH   8  20
ENDBRANCH   7   8
TORSDOF 7
ENDMDL
MODEL      291
REMARK 921   NORMALIZED FREE ENERGY PREDICTED BY IDOCK:   -3.23 KCAL/MOL
REMARK 922        TOTAL FREE ENERGY PREDICTED BY IDOCK:   -5.99 KCAL/MOL
REMARK 923 INTER-LIGAND FREE ENERGY PREDICTED BY IDOCK:   -5.21 KCAL/MOL
REMARK 924 INTRA-LIGAND FREE ENERGY PREDICTED BY IDOCK:   -0.78 KCAL/MOL
REMARK 927      BINDING AFFINITY PREDICTED BY RF-SCORE:    0.00 PKD
ROOT
HETATM    1 NA   UNL     1      -9.994  17.476  68.387  1.00  0.00    -0.238 Na 
HETATM    2 NA   UNL     2     -13.868  16.080  70.455  1.00  0.00    -0.713 Na 
HETATM    3 CA   UNL     3      -6.937  13.950  71.283  1.00  0.00    -0.411 Ca 
HETATM    4  O   UNL     4     -11.057  15.774  67.985  1.00  0.00    -0.320 OA 
HETATM    5  C   UNL     4     -11.535  14.898  68.763  1.00  0.00    -0.307 C  
HETATM    6  O   UNL     4     -12.279  15.203  69.757  1.00  0.00    -0.315 OA 
HETATM    7  C   UNL     4     -11.259  13.393  68.578  1.00  0.00    -0.283 C  
ENDROOT
BRANCH   7   8
HETATM    8  N   UNL     4     -10.094  12.968  67.753  1.00  0.00    -0.224 NA 
BRANCH   8   9
HETATM    9  C   UNL     4      -9.206  11.913  68.249  1.00  0.00    -0.187 C  
BRANCH   9  10
HETATM   10  C   UNL     4      -8.099  11.424  67.313  1.00  0.00    -0.148 C  
BRANCH  10  11
HETATM   11  N   UNL     4      -7.408  10.198  67.785  1.00  0.00    -0.088 NA 
BRANCH  11  12
HETATM   12  C   UNL     4      -6.290  10.463  68.746  1.00  0.00    -0.047 C  
HETATM   13  O   UNL     4      -5.211   8.694  69.992  1.00  0.00    -0.028 OA 
HETATM   14  O   UNL     4      -5.304   8.584  67.688  1.00  0.00    -0.033 OA 
HETATM   15  C   UNL     4      -5.463   9.132  68.844  1.00  0.00    -0.037 C  
ENDBRANCH  11  12
BRANCH  11  16
HETATM   16  C   UNL     4      -8.408   9.266  68.423  1.00  0.00    -0.119 C  
HETATM   17  C   UNL     4      -9.155   8.568  67.248  1.00  0.00    -0.133 C  
HETATM   18  O   UNL     4     -10.386   8.838  67.157  1.00  0.00    -0.257 OA 
HETATM   19  O   UNL     4      -8.336   8.066  66.389  1.00  0.00    -0.114 OA 
ENDBRANCH  11  16
ENDBRANCH  10  11
ENDBRANCH   9  10
ENDBRANCH   8   9
BRANCH   8  20
HETATM   20  C   UNL     4     -10.637  12.501  66.411  1.00  0.00    -0.247 C  
HETATM   21  C   UNL     4     -10.180  13.346  65.158  1.00  0.00    -0.299 C  
HETATM   22  O   UNL     4      -9.999  12.667  64.104  1.00  0.00    -0.293 OA 
HETATM   23  O   UNL     4     -10.034  14.608  65.306  1.00  0.00    -0.366 OA 
ENDBRANCH   8  20
ENDBRANCH   7   8
TORSDOF 7
ENDMDL
MODEL      292
REMARK 921   NORMALIZED FREE ENERGY PREDICTED BY IDOCK:   -3.22 KCAL/MOL
REMARK 922        TOTAL FREE ENERGY PREDICTED BY IDOCK:   -5.98 KCAL/MOL
REMARK 923 INTER-LIGAND FREE ENERGY PREDICTED BY IDOCK:   -5.14 KCAL/MOL
REMARK 924 INTRA-LIGAND FREE ENERGY PREDICTED BY IDOCK:   -0.84 KCAL/MOL
REMARK 927      BINDING AFFINITY PREDICTED BY RF-SCORE:    0.00 PKD
ROOT
HETATM    1 NA   UNL     1      -5.219  16.551  65.830  1.00  0.00     0.007 Na 
HETATM    2 NA   UNL     2      -5.657  15.738  70.345  1.00  0.00    -0.122 Na 
HETATM    3 CA   UNL     3      -6.842  11.463  64.550  1.00  0.00    -0.322 Ca 
HETATM    4  O   UNL     4      -6.957  16.522  66.911  1.00  0.00    -0.194 OA 
HETATM    5  C   UNL     4      -7.388  15.684  67.756  1.00  0.00    -0.150 C  
HETATM    6  O   UNL     4      -6.687  15.301  68.754  1.00  0.00    -0.098 OA 
HETATM    7  C   UNL     4      -8.791  15.055  67.651  1.00  0.00    -0.179 C  
ENDROOT
BRANCH   7   8
HETATM    8  N   UNL     4      -9.500  15.086  66.341  1.00  0.00    -0.279 NA 
BRANCH   8   9
HETATM    9  C   UNL     4     -10.560  14.109  66.072  1.00  0.00    -0.297 C  
BRANCH   9  10
HETATM   10  C   UNL     4     -10.133  12.669  65.780  1.00  0.00    -0.271 C  
BRANCH  10  11
HETATM   11  N   UNL     4      -9.983  11.828  66.994  1.00  0.00    -0.203 NA 
BRANCH  11  12
HETATM   12  C   UNL     4     -11.239  11.125  67.405  1.00  0.00    -0.294 C  
HETATM   13  O   UNL     4     -11.744  10.626  69.716  1.00  0.00    -0.268 OA 
HETATM   14  O   UNL     4     -11.302  12.801  69.080  1.00  0.00    -0.267 OA 
HETATM   15  C   UNL     4     -11.519  11.545  68.892  1.00  0.00    -0.289 C  
ENDBRANCH  11  12
BRANCH  11  16
HETATM   16  C   UNL     4      -8.888  10.813  66.775  1.00  0.00    -0.142 C  
HETATM   17  C   UNL     4      -7.668  11.314  67.603  1.00  0.00    -0.115 C  
HETATM   18  O   UNL     4      -6.654  11.645  66.923  1.00  0.00    -0.133 OA 
HETATM   19  O   UNL     4      -7.992  11.588  68.820  1.00  0.00    -0.145 OA 
ENDBRANCH  11  16
ENDBRANCH  10  11
ENDBRANCH   9  10
ENDBRANCH   8   9
BRANCH   8  20
HETATM   20  C   UNL     4     -10.118  16.468  66.195  1.00  0.00    -0.348 C  
HETATM   21  C   UNL     4     -10.761  17.070  67.505  1.00  0.00    -0.266 C  
HETATM   22  O   UNL     4     -10.629  18.324  67.626  1.00  0.00    -0.406 OA 
HETATM   23  O   UNL     4     -11.346  16.267  68.310  1.00  0.00    -0.352 OA 
ENDBRANCH   8  20
ENDBRANCH   7   8
TORSDOF 7
ENDMDL
MODEL      293
REMARK 921   NORMALIZED FREE ENERGY PREDICTED BY IDOCK:   -3.21 KCAL/MOL
REMARK 922        TOTAL FREE ENERGY PREDICTED BY IDOCK:   -5.97 KCAL/MOL
REMARK 923 INTER-LIGAND FREE ENERGY PREDICTED BY IDOCK:   -5.30 KCAL/MOL
REMARK 924 INTRA-LIGAND FREE ENERGY PREDICTED BY IDOCK:   -0.66 KCAL/MOL
REMARK 927      BINDING AFFINITY PREDICTED BY RF-SCORE:    0.00 PKD
ROOT
HETATM    1 NA   UNL     1      -8.865   5.292  67.580  1.00  0.00    -0.108 Na 
HETATM    2 NA   UNL     2      -5.326   5.704  70.503  1.00  0.00    -0.006 Na 
HETATM    3 CA   UNL     3     -12.536   5.842  71.628  1.00  0.00    -0.289 Ca 
HETATM    4  O   UNL     4      -8.139   7.023  68.394  1.00  0.00    -0.121 OA 
HETATM    5  C   UNL     4      -7.836   7.308  69.589  1.00  0.00    -0.118 C  
HETATM    6  O   UNL     4      -7.051   6.578  70.286  1.00  0.00    -0.067 OA 
HETATM    7  C   UNL     4      -8.389   8.556  70.306  1.00  0.00    -0.125 C  
ENDROOT
BRANCH   7   8
HETATM    8  N   UNL     4      -9.611   9.216  69.767  1.00  0.00    -0.173 NA 
BRANCH   8   9
HETATM    9  C   UNL     4      -9.653   9.610  68.355  1.00  0.00    -0.144 C  
BRANCH   9  10
HETATM   10  C   UNL     4     -10.976  10.156  67.815  1.00  0.00    -0.277 C  
BRANCH  10  11
HETATM   11  N   UNL     4     -10.817  11.180  66.751  1.00  0.00    -0.274 NA 
BRANCH  11  12
HETATM   12  C   UNL     4     -11.021  12.585  67.226  1.00  0.00    -0.261 C  
HETATM   13  O   UNL     4     -11.340  14.431  65.697  1.00  0.00    -0.318 OA 
HETATM   14  O   UNL     4     -12.736  12.595  65.588  1.00  0.00    -0.540 OA 
HETATM   15  C   UNL     4     -11.801  13.331  66.085  1.00  0.00    -0.390 C  
ENDBRANCH  11  12
BRANCH  11  16
HETATM   16  C   UNL     4      -9.449  11.055  66.128  1.00  0.00    -0.203 C  
HETATM   17  C   UNL     4      -9.637  10.180  64.853  1.00  0.00    -0.306 C  
HETATM   18  O   UNL     4      -9.054   9.058  64.879  1.00  0.00    -0.183 OA 
HETATM   19  O   UNL     4     -10.594  10.616  64.108  1.00  0.00    -0.283 OA 
ENDBRANCH  11  16
ENDBRANCH  10  11
ENDBRANCH   9  10
ENDBRANCH   8   9
BRANCH   8  20
HETATM   20  C   UNL     4     -10.777   8.268  70.001  1.00  0.00    -0.239 C  
HETATM   21  C   UNL     4     -11.543   8.454  71.369  1.00  0.00    -0.284 C  
HETATM   22  O   UNL     4     -12.792   8.251  71.303  1.00  0.00    -0.274 OA 
HETATM   23  O   UNL     4     -10.861   8.784  72.399  1.00  0.00    -0.320 OA 
ENDBRANCH   8  20
ENDBRANCH   7   8
TORSDOF 7
ENDMDL
MODEL      294
REMARK 921   NORMALIZED FREE ENERGY PREDICTED BY IDOCK:   -3.18 KCAL/MOL
REMARK 922        TOTAL FREE ENERGY PREDICTED BY IDOCK:   -5.92 KCAL/MOL
REMARK 923 INTER-LIGAND FREE ENERGY PREDICTED BY IDOCK:   -6.82 KCAL/MOL
REMARK 924 INTRA-LIGAND FREE ENERGY PREDICTED BY IDOCK:    0.90 KCAL/MOL
REMARK 927      BINDING AFFINITY PREDICTED BY RF-SCORE:    0.00 PKD
ROOT
HETATM    1 NA   UNL     1      -9.045   8.957  67.434  1.00  0.00    -0.123 Na 
HETATM    2 NA   UNL     2      -8.295   8.114  62.966  1.00  0.00    -0.143 Na 
HETATM    3 CA   UNL     3      -6.001  13.527  67.291  1.00  0.00    -0.132 Ca 
HETATM    4  O   UNL     4      -9.958   9.863  65.843  1.00  0.00    -0.261 OA 
HETATM    5  C   UNL     4      -9.471  10.355  64.783  1.00  0.00    -0.273 C  
HETATM    6  O   UNL     4      -8.673   9.698  64.032  1.00  0.00    -0.191 OA 
HETATM    7  C   UNL     4      -9.797  11.786  64.313  1.00  0.00    -0.206 C  
ENDROOT
BRANCH   7   8
HETATM    8  N   UNL     4     -10.341  12.763  65.297  1.00  0.00    -0.292 NA 
BRANCH   8   9
HETATM    9  C   UNL     4     -10.174  14.199  65.054  1.00  0.00    -0.370 C  
BRANCH   9  10
HETATM   10  C   UNL     4     -10.879  15.163  66.010  1.00  0.00    -0.335 C  
BRANCH  10  11
HETATM   11  N   UNL     4      -9.987  16.199  66.588  1.00  0.00    -0.249 NA 
BRANCH  11  12
HETATM   12  C   UNL     4     -10.488  16.783  67.873  1.00  0.00    -0.335 C  
HETATM   13  O   UNL     4      -9.781  18.955  68.667  1.00  0.00    -0.359 OA 
HETATM   14  O   UNL     4     -10.720  18.749  66.567  1.00  0.00    -0.382 OA 
HETATM   15  C   UNL     4     -10.355  18.342  67.735  1.00  0.00    -0.401 C  
ENDBRANCH  11  12
BRANCH  11  16
HETATM   16  C   UNL     4      -8.610  15.622  66.802  1.00  0.00    -0.274 C  
HETATM   17  C   UNL     4      -8.566  15.160  68.289  1.00  0.00    -0.164 C  
HETATM   18  O   UNL     4      -7.749  15.785  69.024  1.00  0.00    -0.171 OA 
HETATM   19  O   UNL     4      -9.577  14.420  68.592  1.00  0.00    -0.213 OA 
ENDBRANCH  11  16
ENDBRANCH  10  11
ENDBRANCH   9  10
ENDBRANCH   8   9
BRANCH   8  20
HETATM   20  C   UNL     4     -11.834  12.501  65.416  1.00  0.00    -0.428 C  
HETATM   21  C   UNL     4     -12.666  12.676  64.086  1.00  0.00    -0.281 C  
HETATM   22  O   UNL     4     -13.627  11.861  63.955  1.00  0.00    -0.492 OA 
HETATM   23  O   UNL     4     -12.313  13.600  63.274  1.00  0.00    -0.743 OA 
ENDBRANCH   8  20
ENDBRANCH   7   8
TORSDOF 7
ENDMDL
MODEL      295
REMARK 921   NORMALIZED FREE ENERGY PREDICTED BY IDOCK:   -3.16 KCAL/MOL
REMARK 922        TOTAL FREE ENERGY PREDICTED BY IDOCK:   -5.89 KCAL/MOL
REMARK 923 INTER-LIGAND FREE ENERGY PREDICTED BY IDOCK:   -5.14 KCAL/MOL
REMARK 924 INTRA-LIGAND FREE ENERGY PREDICTED BY IDOCK:   -0.75 KCAL/MOL
REMARK 927      BINDING AFFINITY PREDICTED BY RF-SCORE:    0.00 PKD
ROOT
HETATM    1 NA   UNL     1      -9.760   6.082  71.199  1.00  0.00    -0.159 Na 
HETATM    2 NA   UNL     2     -13.449   8.264  72.889  1.00  0.00    -0.492 Na 
HETATM    3 CA   UNL     3     -11.771   6.212  66.089  1.00  0.00    -0.596 Ca 
HETATM    4  O   UNL     4     -10.156   8.087  71.095  1.00  0.00    -0.186 OA 
HETATM    5  C   UNL     4     -11.211   8.702  70.767  1.00  0.00    -0.261 C  
HETATM    6  O   UNL     4     -12.345   8.442  71.298  1.00  0.00    -0.305 OA 
HETATM    7  C   UNL     4     -11.219   9.814  69.699  1.00  0.00    -0.178 C  
ENDROOT
BRANCH   7   8
HETATM    8  N   UNL     4     -10.088   9.896  68.734  1.00  0.00    -0.166 NA 
BRANCH   8   9
HETATM    9  C   UNL     4     -10.359  10.233  67.333  1.00  0.00    -0.233 C  
BRANCH   9  10
HETATM   10  C   UNL     4      -9.311  11.065  66.592  1.00  0.00    -0.177 C  
BRANCH  10  11
HETATM   11  N   UNL     4      -9.081  10.635  65.190  1.00  0.00    -0.193 NA 
BRANCH  11  12
HETATM   12  C   UNL     4      -8.558   9.237  65.063  1.00  0.00    -0.177 C  
HETATM   13  O   UNL     4      -6.996   8.595  63.332  1.00  0.00    -0.089 OA 
HETATM   14  O   UNL     4      -6.480  10.338  64.756  1.00  0.00    -0.128 OA 
HETATM   15  C   UNL     4      -7.177   9.344  64.322  1.00  0.00    -0.105 C  
ENDBRANCH  11  12
BRANCH  11  16
HETATM   16  C   UNL     4     -10.360  10.765  64.402  1.00  0.00    -0.335 C  
HETATM   17  C   UNL     4     -10.136  11.948  63.414  1.00  0.00    -0.438 C  
HETATM   18  O   UNL     4     -10.872  12.958  63.607  1.00  0.00    -0.379 OA 
HETATM   19  O   UNL     4      -9.038  11.820  62.751  1.00  0.00    -0.293 OA 
ENDBRANCH  11  16
ENDBRANCH  10  11
ENDBRANCH   9  10
ENDBRANCH   8   9
BRANCH   8  20
HETATM   20  C   UNL     4      -9.116  10.938  69.264  1.00  0.00     0.023 C  
HETATM   21  C   UNL     4      -7.598  10.504  69.293  1.00  0.00    -0.134 C  
HETATM   22  O   UNL     4      -6.780  11.437  69.039  1.00  0.00    -0.075 OA 
HETATM   23  O   UNL     4      -7.328   9.283  69.564  1.00  0.00    -0.064 OA 
ENDBRANCH   8  20
ENDBRANCH   7   8
TORSDOF 7
ENDMDL
MODEL      296
REMARK 921   NORMALIZED FREE ENERGY PREDICTED BY IDOCK:   -3.15 KCAL/MOL
REMARK 922        TOTAL FREE ENERGY PREDICTED BY IDOCK:   -5.89 KCAL/MOL
REMARK 923 INTER-LIGAND FREE ENERGY PREDICTED BY IDOCK:   -4.93 KCAL/MOL
REMARK 924 INTRA-LIGAND FREE ENERGY PREDICTED BY IDOCK:   -0.96 KCAL/MOL
REMARK 927      BINDING AFFINITY PREDICTED BY RF-SCORE:    0.00 PKD
ROOT
HETATM    1 NA   UNL     1     -13.156  15.266  67.867  1.00  0.00    -0.212 Na 
HETATM    2 NA   UNL     2     -12.328  15.441  63.337  1.00  0.00    -0.802 Na 
HETATM    3 CA   UNL     3     -12.071   9.885  68.063  1.00  0.00    -0.540 Ca 
HETATM    4  O   UNL     4     -11.325  15.307  66.953  1.00  0.00    -0.307 OA 
HETATM    5  C   UNL     4     -10.877  14.640  65.975  1.00  0.00    -0.318 C  
HETATM    6  O   UNL     4     -11.501  14.561  64.862  1.00  0.00    -0.360 OA 
HETATM    7  C   UNL     4      -9.545  13.868  66.045  1.00  0.00    -0.187 C  
ENDROOT
BRANCH   7   8
HETATM    8  N   UNL     4      -8.972  13.536  67.379  1.00  0.00    -0.208 NA 
BRANCH   8   9
HETATM    9  C   UNL     4      -9.077  12.165  67.888  1.00  0.00    -0.185 C  
BRANCH   9  10
HETATM   10  C   UNL     4      -8.813  11.026  66.902  1.00  0.00    -0.149 C  
BRANCH  10  11
HETATM   11  N   UNL     4      -8.716   9.688  67.539  1.00  0.00    -0.126 NA 
BRANCH  11  12
HETATM   12  C   UNL     4      -9.310   9.626  68.913  1.00  0.00    -0.151 C  
HETATM   13  O   UNL     4      -8.531   8.064  70.587  1.00  0.00    -0.120 OA 
HETATM   14  O   UNL     4      -7.040   9.517  69.589  1.00  0.00    -0.061 OA 
HETATM   15  C   UNL     4      -8.202   9.025  69.849  1.00  0.00    -0.124 C  
ENDBRANCH  11  12
BRANCH  11  16
HETATM   16  C   UNL     4      -9.378   8.657  66.659  1.00  0.00    -0.192 C  
HETATM   17  C   UNL     4      -8.223   7.925  65.913  1.00  0.00    -0.126 C  
HETATM   18  O   UNL     4      -8.202   8.088  64.660  1.00  0.00    -0.148 OA 
HETATM   19  O   UNL     4      -7.309   7.517  66.726  1.00  0.00    -0.088 OA 
ENDBRANCH  11  16
ENDBRANCH  10  11
ENDBRANCH   9  10
ENDBRANCH   8   9
BRANCH   8  20
HETATM   20  C   UNL     4      -7.493  13.885  67.335  1.00  0.00    -0.128 C  
HETATM   21  C   UNL     4      -7.124  15.352  67.787  1.00  0.00    -0.165 C  
HETATM   22  O   UNL     4      -6.024  15.449  68.408  1.00  0.00    -0.094 OA 
HETATM   23  O   UNL     4      -7.940  16.293  67.496  1.00  0.00    -0.141 OA 
ENDBRANCH   8  20
ENDBRANCH   7   8
TORSDOF 7
ENDMDL
MODEL      297
REMARK 921   NORMALIZED FREE ENERGY PREDICTED BY IDOCK:   -3.15 KCAL/MOL
REMARK 922        TOTAL FREE ENERGY PREDICTED BY IDOCK:   -5.88 KCAL/MOL
REMARK 923 INTER-LIGAND FREE ENERGY PREDICTED BY IDOCK:   -5.81 KCAL/MOL
REMARK 924 INTRA-LIGAND FREE ENERGY PREDICTED BY IDOCK:   -0.07 KCAL/MOL
REMARK 927      BINDING AFFINITY PREDICTED BY RF-SCORE:    0.00 PKD
ROOT
HETATM    1 NA   UNL     1      -9.659   8.835  68.390  1.00  0.00    -0.138 Na 
HETATM    2 NA   UNL     2      -7.758   6.449  64.936  1.00  0.00    -0.066 Na 
HETATM    3 CA   UNL     3      -6.709  13.310  67.192  1.00  0.00    -0.140 Ca 
HETATM    4  O   UNL     4     -10.127   8.965  66.402  1.00  0.00    -0.288 OA 
HETATM    5  C   UNL     4      -9.382   9.069  65.385  1.00  0.00    -0.144 C  
HETATM    6  O   UNL     4      -8.411   8.266  65.167  1.00  0.00    -0.153 OA 
HETATM    7  C   UNL     4      -9.580  10.171  64.325  1.00  0.00    -0.290 C  
ENDROOT
BRANCH   7   8
HETATM    8  N   UNL     4     -10.369  11.383  64.684  1.00  0.00    -0.286 NA 
BRANCH   8   9
HETATM    9  C   UNL     4      -9.668  12.608  65.081  1.00  0.00     0.001 C  
BRANCH   9  10
HETATM   10  C   UNL     4     -10.019  13.212  66.441  1.00  0.00    -0.282 C  
BRANCH  10  11
HETATM   11  N   UNL     4     -10.063  12.222  67.547  1.00  0.00    -0.199 NA 
BRANCH  11  12
HETATM   12  C   UNL     4      -9.114  12.520  68.667  1.00  0.00     0.043 C  
HETATM   13  O   UNL     4      -7.846  10.788  69.780  1.00  0.00    -0.057 OA 
HETATM   14  O   UNL     4      -7.693  11.031  67.489  1.00  0.00    -0.109 OA 
HETATM   15  C   UNL     4      -8.063  11.353  68.681  1.00  0.00    -0.141 C  
ENDBRANCH  11  12
BRANCH  11  16
HETATM   16  C   UNL     4     -11.467  12.131  68.090  1.00  0.00    -0.317 C  
HETATM   17  C   UNL     4     -11.863  13.580  68.501  1.00  0.00    -0.362 C  
HETATM   18  O   UNL     4     -12.052  13.758  69.738  1.00  0.00    -0.315 OA 
HETATM   19  O   UNL     4     -11.645  14.424  67.551  1.00  0.00    -0.336 OA 
ENDBRANCH  11  16
ENDBRANCH  10  11
ENDBRANCH   9  10
ENDBRANCH   8   9
BRANCH   8  20
HETATM   20  C   UNL     4     -11.233  11.732  63.481  1.00  0.00    -0.408 C  
HETATM   21  C   UNL     4     -12.478  12.655  63.780  1.00  0.00    -0.420 C  
HETATM   22  O   UNL     4     -12.753  13.480  62.859  1.00  0.00    -0.569 OA 
HETATM   23  O   UNL     4     -13.088  12.499  64.893  1.00  0.00    -0.833 OA 
ENDBRANCH   8  20
ENDBRANCH   7   8
TORSDOF 7
ENDMDL
MODEL      298
REMARK 921   NORMALIZED FREE ENERGY PREDICTED BY IDOCK:   -3.12 KCAL/MOL
REMARK 922        TOTAL FREE ENERGY PREDICTED BY IDOCK:   -5.84 KCAL/MOL
REMARK 923 INTER-LIGAND FREE ENERGY PREDICTED BY IDOCK:   -5.19 KCAL/MOL
REMARK 924 INTRA-LIGAND FREE ENERGY PREDICTED BY IDOCK:   -0.65 KCAL/MOL
REMARK 927      BINDING AFFINITY PREDICTED BY RF-SCORE:    0.00 PKD
ROOT
HETATM    1 NA   UNL     1     -12.392   6.664  69.009  1.00  0.00    -0.592 Na 
HETATM    2 NA   UNL     2     -11.572   4.068  65.291  1.00  0.00    -0.524 Na 
HETATM    3 CA   UNL     3      -7.329   5.820  70.965  1.00  0.00    -0.063 Ca 
HETATM    4  O   UNL     4     -11.343   7.207  67.338  1.00  0.00    -0.097 OA 
HETATM    5  C   UNL     4     -10.432   6.600  66.703  1.00  0.00    -0.152 C  
HETATM    6  O   UNL     4     -10.569   5.394  66.301  1.00  0.00    -0.260 OA 
HETATM    7  C   UNL     4      -9.081   7.261  66.364  1.00  0.00    -0.158 C  
ENDROOT
BRANCH   7   8
HETATM    8  N   UNL     4      -8.652   8.461  67.135  1.00  0.00    -0.122 NA 
BRANCH   8   9
HETATM    9  C   UNL     4      -9.141   9.785  66.737  1.00  0.00    -0.146 C  
BRANCH   9  10
HETATM   10  C   UNL     4      -9.916  10.593  67.780  1.00  0.00    -0.167 C  
BRANCH  10  11
HETATM   11  N   UNL     4     -10.436  11.888  67.275  1.00  0.00    -0.218 NA 
BRANCH  11  12
HETATM   12  C   UNL     4     -11.909  11.885  67.002  1.00  0.00    -0.113 C  
HETATM   13  O   UNL     4     -12.933  13.401  65.420  1.00  0.00    -0.625 OA 
HETATM   14  O   UNL     4     -11.210  12.022  64.740  1.00  0.00    -0.309 OA 
HETATM   15  C   UNL     4     -12.095  12.477  65.560  1.00  0.00    -0.419 C  
ENDBRANCH  11  12
BRANCH  11  16
HETATM   16  C   UNL     4     -10.110  12.984  68.258  1.00  0.00    -0.239 C  
HETATM   17  C   UNL     4      -9.008  13.853  67.583  1.00  0.00    -0.192 C  
HETATM   18  O   UNL     4      -7.883  13.841  68.160  1.00  0.00    -0.125 OA 
HETATM   19  O   UNL     4      -9.339  14.203  66.387  1.00  0.00    -0.275 OA 
ENDBRANCH  11  16
ENDBRANCH  10  11
ENDBRANCH   9  10
ENDBRANCH   8   9
BRANCH   8  20
HETATM   20  C   UNL     4      -9.071   8.245  68.580  1.00  0.00    -0.140 C  
HETATM   21  C   UNL     4      -7.892   8.022  69.606  1.00  0.00    -0.104 C  
HETATM   22  O   UNL     4      -8.093   8.523  70.753  1.00  0.00    -0.099 OA 
HETATM   23  O   UNL     4      -6.864   7.375  69.208  1.00  0.00    -0.050 OA 
ENDBRANCH   8  20
ENDBRANCH   7   8
TORSDOF 7
ENDMDL
MODEL      299
REMARK 921   NORMALIZED FREE ENERGY PREDICTED BY IDOCK:   -3.11 KCAL/MOL
REMARK 922        TOTAL FREE ENERGY PREDICTED BY IDOCK:   -5.83 KCAL/MOL
REMARK 923 INTER-LIGAND FREE ENERGY PREDICTED BY IDOCK:   -5.27 KCAL/MOL
REMARK 924 INTRA-LIGAND FREE ENERGY PREDICTED BY IDOCK:   -0.56 KCAL/MOL
REMARK 927      BINDING AFFINITY PREDICTED BY RF-SCORE:    0.00 PKD
ROOT
HETATM    1 NA   UNL     1      -7.606   4.926  63.591  1.00  0.00    -0.053 Na 
HETATM    2 NA   UNL     2     -11.476   2.492  64.169  1.00  0.00    -0.461 Na 
HETATM    3 CA   UNL     3     -10.378   9.661  63.356  1.00  0.00    -0.457 Ca 
HETATM    4  O   UNL     4      -8.680   4.717  65.320  1.00  0.00    -0.131 OA 
HETATM    5  C   UNL     4      -9.922   4.821  65.536  1.00  0.00    -0.136 C  
HETATM    6  O   UNL     4     -10.789   4.181  64.848  1.00  0.00    -0.243 OA 
HETATM    7  C   UNL     4     -10.494   5.726  66.645  1.00  0.00    -0.268 C  
ENDROOT
BRANCH   7   8
HETATM    8  N   UNL     4      -9.643   6.816  67.198  1.00  0.00    -0.138 NA 
BRANCH   8   9
HETATM    9  C   UNL     4     -10.180   8.177  67.286  1.00  0.00    -0.278 C  
BRANCH   9  10
HETATM   10  C   UNL     4      -9.810   9.154  66.169  1.00  0.00    -0.293 C  
BRANCH  10  11
HETATM   11  N   UNL     4      -9.146  10.393  66.647  1.00  0.00    -0.150 NA 
BRANCH  11  12
HETATM   12  C   UNL     4      -7.694  10.480  66.289  1.00  0.00    -0.135 C  
HETATM   13  O   UNL     4      -6.185  12.022  67.379  1.00  0.00    -0.103 OA 
HETATM   14  O   UNL     4      -7.400  10.518  68.641  1.00  0.00    -0.082 OA 
HETATM   15  C   UNL     4      -6.958  11.049  67.553  1.00  0.00    -0.086 C  
ENDBRANCH  11  12
BRANCH  11  16
HETATM   16  C   UNL     4      -9.870  11.599  66.104  1.00  0.00    -0.223 C  
HETATM   17  C   UNL     4     -10.908  12.003  67.193  1.00  0.00    -0.253 C  
HETATM   18  O   UNL     4     -12.120  11.886  66.853  1.00  0.00    -0.599 OA 
HETATM   19  O   UNL     4     -10.365  12.107  68.358  1.00  0.00    -0.219 OA 
ENDBRANCH  11  16
ENDBRANCH  10  11
ENDBRANCH   9  10
ENDBRANCH   8   9
BRANCH   8  20
HETATM   20  C   UNL     4      -9.239   6.403  68.605  1.00  0.00    -0.125 C  
HETATM   21  C   UNL     4     -10.427   6.025  69.573  1.00  0.00    -0.266 C  
HETATM   22  O   UNL     4     -10.166   5.087  70.383  1.00  0.00    -0.251 OA 
HETATM   23  O   UNL     4     -11.522   6.677  69.462  1.00  0.00    -0.320 OA 
ENDBRANCH   8  20
ENDBRANCH   7   8
TORSDOF 7
ENDMDL
MODEL      300
REMARK 921   NORMALIZED FREE ENERGY PREDICTED BY IDOCK:   -3.09 KCAL/MOL
REMARK 922        TOTAL FREE ENERGY PREDICTED BY IDOCK:   -5.80 KCAL/MOL
REMARK 923 INTER-LIGAND FREE ENERGY PREDICTED BY IDOCK:   -5.58 KCAL/MOL
REMARK 924 INTRA-LIGAND FREE ENERGY PREDICTED BY IDOCK:   -0.22 KCAL/MOL
REMARK 927      BINDING AFFINITY PREDICTED BY RF-SCORE:    0.00 PKD
ROOT
HETATM    1 NA   UNL     1     -11.696  10.951  66.827  1.00  0.00    -0.286 Na 
HETATM    2 NA   UNL     2     -10.531  11.963  62.485  1.00  0.00    -0.559 Na 
HETATM    3 CA   UNL     3     -12.017   5.584  65.704  1.00  0.00    -0.652 Ca 
HETATM    4  O   UNL     4      -9.854  10.726  65.965  1.00  0.00    -0.215 OA 
HETATM    5  C   UNL     4      -9.520  10.214  64.856  1.00  0.00    -0.289 C  
HETATM    6  O   UNL     4     -10.063  10.565  63.753  1.00  0.00    -0.315 OA 
HETATM    7  C   UNL     4      -8.434   9.126  64.744  1.00  0.00    -0.178 C  
ENDROOT
BRANCH   7   8
HETATM    8  N   UNL     4      -8.059   8.352  65.960  1.00  0.00    -0.100 NA 
BRANCH   8   9
HETATM    9  C   UNL     4      -9.096   7.989  66.931  1.00  0.00    -0.152 C  
BRANCH   9  10
HETATM   10  C   UNL     4      -8.772   8.181  68.414  1.00  0.00    -0.134 C  
BRANCH  10  11
HETATM   11  N   UNL     4      -9.940   8.006  69.313  1.00  0.00    -0.186 NA 
BRANCH  11  12
HETATM   12  C   UNL     4     -10.751   9.250  69.505  1.00  0.00    -0.222 C  
HETATM   13  O   UNL     4     -12.260   9.534  71.373  1.00  0.00    -0.322 OA 
HETATM   14  O   UNL     4     -10.038   9.036  71.756  1.00  0.00    -0.326 OA 
HETATM   15  C   UNL     4     -11.065   9.345  71.040  1.00  0.00    -0.344 C  
ENDBRANCH  11  12
BRANCH  11  16
HETATM   16  C   UNL     4     -10.827   6.906  68.785  1.00  0.00    -0.192 C  
HETATM   17  C   UNL     4     -10.448   5.626  69.588  1.00  0.00    -0.304 C  
HETATM   18  O   UNL     4      -9.928   4.697  68.908  1.00  0.00    -0.164 OA 
HETATM   19  O   UNL     4     -10.454   5.838  70.860  1.00  0.00    -0.226 OA 
ENDBRANCH  11  16
ENDBRANCH  10  11
ENDBRANCH   9  10
ENDBRANCH   8   9
BRANCH   8  20
HETATM   20  C   UNL     4      -7.412   7.058  65.491  1.00  0.00    -0.086 C  
HETATM   21  C   UNL     4      -8.410   5.911  65.067  1.00  0.00    -0.131 C  
HETATM   22  O   UNL     4      -8.012   5.200  64.097  1.00  0.00    -0.095 OA 
HETATM   23  O   UNL     4      -9.506   5.798  65.718  1.00  0.00    -0.102 OA 
ENDBRANCH   8  20
ENDBRANCH   7   8
TORSDOF 7
ENDMDL
MODEL      301
REMARK 921   NORMALIZED FREE ENERGY PREDICTED BY IDOCK:   -3.09 KCAL/MOL
REMARK 922        TOTAL FREE ENERGY PREDICTED BY IDOCK:   -5.79 KCAL/MOL
REMARK 923 INTER-LIGAND FREE ENERGY PREDICTED BY IDOCK:   -5.80 KCAL/MOL
REMARK 924 INTRA-LIGAND FREE ENERGY PREDICTED BY IDOCK:    0.00 KCAL/MOL
REMARK 927      BINDING AFFINITY PREDICTED BY RF-SCORE:    0.00 PKD
ROOT
HETATM    1 NA   UNL     1     -12.229  13.906  69.995  1.00  0.00    -0.242 Na 
HETATM    2 NA   UNL     2     -12.436  10.136  72.637  1.00  0.00    -0.293 Na 
HETATM    3 CA   UNL     3      -6.856  13.222  69.087  1.00  0.00    -0.081 Ca 
HETATM    4  O   UNL     4     -12.289  11.961  69.360  1.00  0.00    -0.164 OA 
HETATM    5  C   UNL     4     -11.631  10.950  69.740  1.00  0.00    -0.322 C  
HETATM    6  O   UNL     4     -11.553  10.611  70.970  1.00  0.00    -0.299 OA 
HETATM    7  C   UNL     4     -10.868  10.044  68.753  1.00  0.00    -0.219 C  
ENDROOT
BRANCH   7   8
HETATM    8  N   UNL     4     -10.533  10.570  67.401  1.00  0.00    -0.227 NA 
BRANCH   8   9
HETATM    9  C   UNL     4      -9.411  11.501  67.248  1.00  0.00    -0.166 C  
BRANCH   9  10
HETATM   10  C   UNL     4      -9.744  12.968  66.971  1.00  0.00    -0.235 C  
BRANCH  10  11
HETATM   11  N   UNL     4     -10.731  13.167  65.880  1.00  0.00    -0.271 NA 
BRANCH  11  12
HETATM   12  C   UNL     4     -11.552  14.412  66.024  1.00  0.00    -0.363 C  
HETATM   13  O   UNL     4     -13.027  15.195  64.276  1.00  0.00    -0.414 OA 
HETATM   14  O   UNL     4     -13.267  13.054  65.108  1.00  0.00    -0.703 OA 
HETATM   15  C   UNL     4     -12.781  14.247  65.061  1.00  0.00    -0.280 C  
ENDBRANCH  11  12
BRANCH  11  16
HETATM   16  C   UNL     4     -10.020  13.186  64.550  1.00  0.00    -0.110 C  
HETATM   17  C   UNL     4     -10.064  11.722  64.020  1.00  0.00    -0.327 C  
HETATM   18  O   UNL     4      -8.940  11.151  63.919  1.00  0.00    -0.116 OA 
HETATM   19  O   UNL     4     -11.257  11.236  64.051  1.00  0.00    -0.340 OA 
ENDBRANCH  11  16
ENDBRANCH  10  11
ENDBRANCH   9  10
ENDBRANCH   8   9
BRANCH   8  20
HETATM   20  C   UNL     4     -10.246   9.373  66.508  1.00  0.00    -0.238 C  
HETATM   21  C   UNL     4      -9.032   8.467  66.951  1.00  0.00    -0.145 C  
HETATM   22  O   UNL     4      -9.192   7.230  66.729  1.00  0.00    -0.142 OA 
HETATM   23  O   UNL     4      -8.017   9.039  67.480  1.00  0.00    -0.100 OA 
ENDBRANCH   8  20
ENDBRANCH   7   8
TORSDOF 7
ENDMDL
MODEL      302
REMARK 921   NORMALIZED FREE ENERGY PREDICTED BY IDOCK:   -3.08 KCAL/MOL
REMARK 922        TOTAL FREE ENERGY PREDICTED BY IDOCK:   -5.78 KCAL/MOL
REMARK 923 INTER-LIGAND FREE ENERGY PREDICTED BY IDOCK:   -6.60 KCAL/MOL
REMARK 924 INTRA-LIGAND FREE ENERGY PREDICTED BY IDOCK:    0.82 KCAL/MOL
REMARK 927      BINDING AFFINITY PREDICTED BY RF-SCORE:    0.00 PKD
ROOT
HETATM    1 NA   UNL     1      -9.584   8.711  62.344  1.00  0.00    -0.478 Na 
HETATM    2 NA   UNL     2      -5.508   6.909  63.517  1.00  0.00    -0.025 Na 
HETATM    3 CA   UNL     3     -12.052   6.493  66.721  1.00  0.00    -0.633 Ca 
HETATM    4  O   UNL     4      -8.301   9.404  63.781  1.00  0.00    -0.160 OA 
HETATM    5  C   UNL     4      -7.689   8.792  64.703  1.00  0.00    -0.119 C  
HETATM    6  O   UNL     4      -6.974   7.757  64.475  1.00  0.00    -0.057 OA 
HETATM    7  C   UNL     4      -7.755   9.240  66.176  1.00  0.00    -0.096 C  
ENDROOT
BRANCH   7   8
HETATM    8  N   UNL     4      -8.866  10.132  66.610  1.00  0.00    -0.132 NA 
BRANCH   8   9
HETATM    9  C   UNL     4     -10.134  10.114  65.873  1.00  0.00    -0.254 C  
BRANCH   9  10
HETATM   10  C   UNL     4     -10.422  11.290  64.938  1.00  0.00    -0.314 C  
BRANCH  10  11
HETATM   11  N   UNL     4     -10.588  12.589  65.638  1.00  0.00    -0.263 NA 
BRANCH  11  12
HETATM   12  C   UNL     4     -10.335  13.783  64.769  1.00  0.00    -0.398 C  
HETATM   13  O   UNL     4     -10.346  16.039  65.639  1.00  0.00    -0.352 OA 
HETATM   14  O   UNL     4      -8.949  14.455  66.572  1.00  0.00    -0.239 OA 
HETATM   15  C   UNL     4      -9.795  14.914  65.714  1.00  0.00    -0.348 C  
ENDBRANCH  11  12
BRANCH  11  16
HETATM   16  C   UNL     4     -11.977  12.678  66.220  1.00  0.00    -0.374 C  
HETATM   17  C   UNL     4     -12.895  13.179  65.066  1.00  0.00    -0.302 C  
HETATM   18  O   UNL     4     -13.411  14.319  65.243  1.00  0.00    -0.660 OA 
HETATM   19  O   UNL     4     -12.741  12.480  63.992  1.00  0.00    -0.669 OA 
ENDBRANCH  11  16
ENDBRANCH  10  11
ENDBRANCH   9  10
ENDBRANCH   8   9
BRANCH   8  20
HETATM   20  C   UNL     4      -9.186   9.784  68.056  1.00  0.00    -0.124 C  
HETATM   21  C   UNL     4      -9.842  10.941  68.907  1.00  0.00    -0.192 C  
HETATM   22  O   UNL     4     -10.699  10.549  69.753  1.00  0.00    -0.258 OA 
HETATM   23  O   UNL     4      -9.464  12.142  68.679  1.00  0.00    -0.156 OA 
ENDBRANCH   8  20
ENDBRANCH   7   8
TORSDOF 7
ENDMDL
MODEL      303
REMARK 921   NORMALIZED FREE ENERGY PREDICTED BY IDOCK:   -3.08 KCAL/MOL
REMARK 922        TOTAL FREE ENERGY PREDICTED BY IDOCK:   -5.78 KCAL/MOL
REMARK 923 INTER-LIGAND FREE ENERGY PREDICTED BY IDOCK:   -4.99 KCAL/MOL
REMARK 924 INTRA-LIGAND FREE ENERGY PREDICTED BY IDOCK:   -0.80 KCAL/MOL
REMARK 927      BINDING AFFINITY PREDICTED BY RF-SCORE:    0.00 PKD
ROOT
HETATM    1 NA   UNL     1      -7.999   5.342  71.343  1.00  0.00    -0.090 Na 
HETATM    2 NA   UNL     2      -7.662   9.015  74.105  1.00  0.00    -0.163 Na 
HETATM    3 CA   UNL     3     -13.042   6.780  69.709  1.00  0.00    -0.620 Ca 
HETATM    4  O   UNL     4      -7.583   7.266  70.784  1.00  0.00    -0.082 OA 
HETATM    5  C   UNL     4      -8.145   8.356  71.099  1.00  0.00    -0.125 C  
HETATM    6  O   UNL     4      -8.352   8.688  72.316  1.00  0.00    -0.317 OA 
HETATM    7  C   UNL     4      -8.627   9.371  70.044  1.00  0.00    -0.203 C  
ENDROOT
BRANCH   7   8
HETATM    8  N   UNL     4      -8.833   8.912  68.642  1.00  0.00    -0.137 NA 
BRANCH   8   9
HETATM    9  C   UNL     4      -9.956   9.446  67.866  1.00  0.00    -0.182 C  
BRANCH   9  10
HETATM   10  C   UNL     4      -9.762  10.803  67.187  1.00  0.00    -0.170 C  
BRANCH  10  11
HETATM   11  N   UNL     4     -10.801  11.805  67.533  1.00  0.00    -0.227 NA 
BRANCH  11  12
HETATM   12  C   UNL     4     -11.379  12.515  66.347  1.00  0.00    -0.329 C  
HETATM   13  O   UNL     4     -11.409  14.926  66.174  1.00  0.00    -0.344 OA 
HETATM   14  O   UNL     4      -9.410  13.824  66.520  1.00  0.00    -0.269 OA 
HETATM   15  C   UNL     4     -10.673  13.915  66.280  1.00  0.00    -0.285 C  
ENDBRANCH  11  12
BRANCH  11  16
HETATM   16  C   UNL     4     -11.911  11.138  68.308  1.00  0.00    -0.190 C  
HETATM   17  C   UNL     4     -11.890  11.782  69.726  1.00  0.00    -0.349 C  
HETATM   18  O   UNL     4     -11.589  10.997  70.670  1.00  0.00    -0.312 OA 
HETATM   19  O   UNL     4     -11.893  13.070  69.669  1.00  0.00    -0.305 OA 
ENDBRANCH  11  16
ENDBRANCH  10  11
ENDBRANCH   9  10
ENDBRANCH   8   9
BRANCH   8  20
HETATM   20  C   UNL     4      -7.562   9.234  67.870  1.00  0.00    -0.084 C  
HETATM   21  C   UNL     4      -6.931   8.033  67.063  1.00  0.00    -0.074 C  
HETATM   22  O   UNL     4      -6.398   8.363  65.962  1.00  0.00    -0.051 OA 
HETATM   23  O   UNL     4      -7.007   6.862  67.572  1.00  0.00    -0.077 OA 
ENDBRANCH   8  20
ENDBRANCH   7   8
TORSDOF 7
ENDMDL
MODEL      304
REMARK 921   NORMALIZED FREE ENERGY PREDICTED BY IDOCK:   -3.07 KCAL/MOL
REMARK 922        TOTAL FREE ENERGY PREDICTED BY IDOCK:   -5.77 KCAL/MOL
REMARK 923 INTER-LIGAND FREE ENERGY PREDICTED BY IDOCK:   -4.46 KCAL/MOL
REMARK 924 INTRA-LIGAND FREE ENERGY PREDICTED BY IDOCK:   -1.31 KCAL/MOL
REMARK 927      BINDING AFFINITY PREDICTED BY RF-SCORE:    0.00 PKD
ROOT
HETATM    1 NA   UNL     1     -12.310   6.566  68.099  1.00  0.00    -0.461 Na 
HETATM    2 NA   UNL     2     -10.888   3.150  65.352  1.00  0.00    -0.367 Na 
HETATM    3 CA   UNL     3      -7.749   6.287  71.146  1.00  0.00    -0.082 Ca 
HETATM    4  O   UNL     4     -10.941   6.697  66.583  1.00  0.00    -0.274 OA 
HETATM    5  C   UNL     4      -9.948   5.964  66.304  1.00  0.00    -0.058 C  
HETATM    6  O   UNL     4     -10.050   4.695  66.187  1.00  0.00    -0.220 OA 
HETATM    7  C   UNL     4      -8.535   6.539  66.084  1.00  0.00    -0.137 C  
ENDROOT
BRANCH   7   8
HETATM    8  N   UNL     4      -8.218   7.896  66.608  1.00  0.00    -0.116 NA 
BRANCH   8   9
HETATM    9  C   UNL     4      -7.948   8.070  68.039  1.00  0.00    -0.128 C  
BRANCH   9  10
HETATM   10  C   UNL     4      -8.224   9.447  68.646  1.00  0.00    -0.112 C  
BRANCH  10  11
HETATM   11  N   UNL     4      -9.559   9.568  69.284  1.00  0.00    -0.168 NA 
BRANCH  11  12
HETATM   12  C   UNL     4      -9.554   9.301  70.758  1.00  0.00    -0.275 C  
HETATM   13  O   UNL     4     -11.566   8.745  71.977  1.00  0.00    -0.332 OA 
HETATM   14  O   UNL     4     -10.941   7.476  70.152  1.00  0.00    -0.257 OA 
HETATM   15  C   UNL     4     -10.799   8.390  71.050  1.00  0.00    -0.238 C  
ENDBRANCH  11  12
BRANCH  11  16
HETATM   16  C   UNL     4     -10.123  10.942  69.025  1.00  0.00    -0.196 C  
HETATM   17  C   UNL     4     -10.351  11.030  67.487  1.00  0.00    -0.198 C  
HETATM   18  O   UNL     4      -9.635  11.880  66.884  1.00  0.00    -0.193 OA 
HETATM   19  O   UNL     4     -11.015  10.019  67.041  1.00  0.00    -0.181 OA 
ENDBRANCH  11  16
ENDBRANCH  10  11
ENDBRANCH   9  10
ENDBRANCH   8   9
BRANCH   8  20
HETATM   20  C   UNL     4      -6.993   8.396  65.858  1.00  0.00    -0.068 C  
HETATM   21  C   UNL     4      -7.176   9.759  65.084  1.00  0.00    -0.122 C  
HETATM   22  O   UNL     4      -6.150  10.501  65.077  1.00  0.00    -0.127 OA 
HETATM   23  O   UNL     4      -8.311   9.994  64.543  1.00  0.00    -0.149 OA 
ENDBRANCH   8  20
ENDBRANCH   7   8
TORSDOF 7
ENDMDL
MODEL      305
REMARK 921   NORMALIZED FREE ENERGY PREDICTED BY IDOCK:   -3.07 KCAL/MOL
REMARK 922        TOTAL FREE ENERGY PREDICTED BY IDOCK:   -5.77 KCAL/MOL
REMARK 923 INTER-LIGAND FREE ENERGY PREDICTED BY IDOCK:   -5.36 KCAL/MOL
REMARK 924 INTRA-LIGAND FREE ENERGY PREDICTED BY IDOCK:   -0.41 KCAL/MOL
REMARK 927      BINDING AFFINITY PREDICTED BY RF-SCORE:    0.00 PKD
ROOT
HETATM    1 NA   UNL     1     -12.777  10.781  63.089  1.00  0.00    -0.582 Na 
HETATM    2 NA   UNL     2      -8.347  11.994  62.710  1.00  0.00    -0.473 Na 
HETATM    3 CA   UNL     3     -11.476   6.005  65.468  1.00  0.00    -0.367 Ca 
HETATM    4  O   UNL     4     -11.573  11.516  64.571  1.00  0.00    -0.211 OA 
HETATM    5  C   UNL     4     -10.398  11.194  64.914  1.00  0.00    -0.313 C  
HETATM    6  O   UNL     4      -9.435  11.136  64.075  1.00  0.00    -0.221 OA 
HETATM    7  C   UNL     4     -10.030  10.844  66.370  1.00  0.00    -0.221 C  
ENDROOT
BRANCH   7   8
HETATM    8  N   UNL     4     -11.115  10.461  67.316  1.00  0.00    -0.250 NA 
BRANCH   8   9
HETATM    9  C   UNL     4     -10.815   9.552  68.427  1.00  0.00    -0.137 C  
BRANCH   9  10
HETATM   10  C   UNL     4      -9.388   9.011  68.529  1.00  0.00    -0.139 C  
BRANCH  10  11
HETATM   11  N   UNL     4      -9.302   7.636  69.081  1.00  0.00    -0.148 NA 
BRANCH  11  12
HETATM   12  C   UNL     4      -8.060   6.899  68.686  1.00  0.00    -0.121 C  
HETATM   13  O   UNL     4      -8.087   4.564  68.059  1.00  0.00    -0.090 OA 
HETATM   14  O   UNL     4      -9.439   6.068  66.945  1.00  0.00    -0.125 OA 
HETATM   15  C   UNL     4      -8.521   5.706  67.774  1.00  0.00    -0.102 C  
ENDBRANCH  11  12
BRANCH  11  16
HETATM   16  C   UNL     4      -9.398   7.686  70.586  1.00  0.00    -0.163 C  
HETATM   17  C   UNL     4     -10.603   6.777  70.969  1.00  0.00    -0.222 C  
HETATM   18  O   UNL     4     -11.583   7.374  71.499  1.00  0.00    -0.259 OA 
HETATM   19  O   UNL     4     -10.524   5.615  70.415  1.00  0.00    -0.243 OA 
ENDBRANCH  11  16
ENDBRANCH  10  11
ENDBRANCH   9  10
ENDBRANCH   8   9
BRANCH   8  20
HETATM   20  C   UNL     4     -11.659  11.745  67.923  1.00  0.00    -0.307 C  
HETATM   21  C   UNL     4     -10.591  12.874  68.201  1.00  0.00    -0.237 C  
HETATM   22  O   UNL     4     -11.014  14.054  68.017  1.00  0.00    -0.242 OA 
HETATM   23  O   UNL     4      -9.422  12.515  68.579  1.00  0.00    -0.187 OA 
ENDBRANCH   8  20
ENDBRANCH   7   8
TORSDOF 7
ENDMDL
MODEL      306
REMARK 921   NORMALIZED FREE ENERGY PREDICTED BY IDOCK:   -3.06 KCAL/MOL
REMARK 922        TOTAL FREE ENERGY PREDICTED BY IDOCK:   -5.76 KCAL/MOL
REMARK 923 INTER-LIGAND FREE ENERGY PREDICTED BY IDOCK:   -5.47 KCAL/MOL
REMARK 924 INTRA-LIGAND FREE ENERGY PREDICTED BY IDOCK:   -0.29 KCAL/MOL
REMARK 927      BINDING AFFINITY PREDICTED BY RF-SCORE:    0.00 PKD
ROOT
HETATM    1 NA   UNL     1     -12.467  14.653  66.156  1.00  0.00    -0.371 Na 
HETATM    2 NA   UNL     2     -13.989  12.559  62.344  1.00  0.00     0.072 Na 
HETATM    3 CA   UNL     3     -13.481  10.223  69.239  1.00  0.00    -0.515 Ca 
HETATM    4  O   UNL     4     -11.460  13.277  65.024  1.00  0.00    -0.296 OA 
HETATM    5  C   UNL     4     -11.833  12.162  64.558  1.00  0.00    -0.343 C  
HETATM    6  O   UNL     4     -12.905  12.035  63.871  1.00  0.00    -0.624 OA 
HETATM    7  C   UNL     4     -11.031  10.865  64.779  1.00  0.00     0.034 C  
ENDROOT
BRANCH   7   8
HETATM    8  N   UNL     4     -10.040  10.809  65.891  1.00  0.00    -0.247 NA 
BRANCH   8   9
HETATM    9  C   UNL     4     -10.438  11.247  67.232  1.00  0.00    -0.214 C  
BRANCH   9  10
HETATM   10  C   UNL     4      -9.480  12.172  67.985  1.00  0.00    -0.201 C  
BRANCH  10  11
HETATM   11  N   UNL     4     -10.107  13.430  68.463  1.00  0.00    -0.230 NA 
BRANCH  11  12
HETATM   12  C   UNL     4      -9.840  14.614  67.585  1.00  0.00    -0.218 C  
HETATM   13  O   UNL     4      -8.309  16.374  68.222  1.00  0.00    -0.177 OA 
HETATM   14  O   UNL     4      -7.581  14.184  68.165  1.00  0.00    -0.112 OA 
HETATM   15  C   UNL     4      -8.417  15.147  67.980  1.00  0.00    -0.148 C  
ENDBRANCH  11  12
BRANCH  11  16
HETATM   16  C   UNL     4     -11.596  13.234  68.601  1.00  0.00    -0.327 C  
HETATM   17  C   UNL     4     -11.928  13.502  70.099  1.00  0.00    -0.329 C  
HETATM   18  O   UNL     4     -12.355  12.503  70.744  1.00  0.00    -0.377 OA 
HETATM   19  O   UNL     4     -11.433  14.621  70.507  1.00  0.00    -0.268 OA 
ENDBRANCH  11  16
ENDBRANCH  10  11
ENDBRANCH   9  10
ENDBRANCH   8   9
BRANCH   8  20
HETATM   20  C   UNL     4      -9.576   9.366  66.011  1.00  0.00    -0.261 C  
HETATM   21  C   UNL     4      -8.094   9.166  66.515  1.00  0.00    -0.107 C  
HETATM   22  O   UNL     4      -7.923   8.151  67.253  1.00  0.00    -0.110 OA 
HETATM   23  O   UNL     4      -7.214  10.019  66.147  1.00  0.00    -0.099 OA 
ENDBRANCH   8  20
ENDBRANCH   7   8
TORSDOF 7
ENDMDL
MODEL      307
REMARK 921   NORMALIZED FREE ENERGY PREDICTED BY IDOCK:   -3.06 KCAL/MOL
REMARK 922        TOTAL FREE ENERGY PREDICTED BY IDOCK:   -5.75 KCAL/MOL
REMARK 923 INTER-LIGAND FREE ENERGY PREDICTED BY IDOCK:   -5.09 KCAL/MOL
REMARK 924 INTRA-LIGAND FREE ENERGY PREDICTED BY IDOCK:   -0.66 KCAL/MOL
REMARK 927      BINDING AFFINITY PREDICTED BY RF-SCORE:    0.00 PKD
ROOT
HETATM    1 NA   UNL     1      -7.558  11.770  70.266  1.00  0.00    -0.318 Na 
HETATM    2 NA   UNL     2      -8.509  16.075  68.925  1.00  0.00    -0.152 Na 
HETATM    3 CA   UNL     3     -12.840  10.294  69.969  1.00  0.00    -0.329 Ca 
HETATM    4  O   UNL     4      -7.929  12.409  68.357  1.00  0.00    -0.151 OA 
HETATM    5  C   UNL     4      -8.846  13.152  67.901  1.00  0.00    -0.196 C  
HETATM    6  O   UNL     4      -9.106  14.299  68.402  1.00  0.00    -0.186 OA 
HETATM    7  C   UNL     4      -9.726  12.737  66.705  1.00  0.00    -0.243 C  
ENDROOT
BRANCH   7   8
HETATM    8  N   UNL     4      -9.808  11.296  66.336  1.00  0.00    -0.205 NA 
BRANCH   8   9
HETATM    9  C   UNL     4     -10.469  10.355  67.245  1.00  0.00    -0.252 C  
BRANCH   9  10
HETATM   10  C   UNL     4     -10.713   8.934  66.735  1.00  0.00    -0.028 C  
BRANCH  10  11
HETATM   11  N   UNL     4      -9.985   7.887  67.495  1.00  0.00    -0.176 NA 
BRANCH  11  12
HETATM   12  C   UNL     4      -8.647   7.539  66.919  1.00  0.00    -0.124 C  
HETATM   13  O   UNL     4      -7.812   5.270  66.869  1.00  0.00    -0.099 OA 
HETATM   14  O   UNL     4      -9.852   5.765  65.907  1.00  0.00    -0.044 OA 
HETATM   15  C   UNL     4      -8.729   6.034  66.480  1.00  0.00    -0.128 C  
ENDBRANCH  11  12
BRANCH  11  16
HETATM   16  C   UNL     4      -9.817   8.324  68.928  1.00  0.00    -0.180 C  
HETATM   17  C   UNL     4     -10.749   7.404  69.770  1.00  0.00    -0.241 C  
HETATM   18  O   UNL     4     -11.709   7.991  70.347  1.00  0.00    -0.154 OA 
HETATM   19  O   UNL     4     -10.562   6.157  69.502  1.00  0.00    -0.225 OA 
ENDBRANCH  11  16
ENDBRANCH  10  11
ENDBRANCH   9  10
ENDBRANCH   8   9
BRANCH   8  20
HETATM   20  C   UNL     4     -10.532  11.212  65.001  1.00  0.00    -0.293 C  
HETATM   21  C   UNL     4     -11.742  12.210  64.818  1.00  0.00    -0.327 C  
HETATM   22  O   UNL     4     -11.880  12.658  63.641  1.00  0.00    -0.446 OA 
HETATM   23  O   UNL     4     -12.462  12.476  65.842  1.00  0.00    -0.596 OA 
ENDBRANCH   8  20
ENDBRANCH   7   8
TORSDOF 7
ENDMDL
MODEL      308
REMARK 921   NORMALIZED FREE ENERGY PREDICTED BY IDOCK:   -3.05 KCAL/MOL
REMARK 922        TOTAL FREE ENERGY PREDICTED BY IDOCK:   -5.75 KCAL/MOL
REMARK 923 INTER-LIGAND FREE ENERGY PREDICTED BY IDOCK:   -5.35 KCAL/MOL
REMARK 924 INTRA-LIGAND FREE ENERGY PREDICTED BY IDOCK:   -0.40 KCAL/MOL
REMARK 927      BINDING AFFINITY PREDICTED BY RF-SCORE:    0.00 PKD
ROOT
HETATM    1 NA   UNL     1     -12.825  13.270  65.907  1.00  0.00    -0.403 Na 
HETATM    2 NA   UNL     2     -13.662  14.675  70.215  1.00  0.00    -0.541 Na 
HETATM    3 CA   UNL     3      -7.546  14.754  66.233  1.00  0.00    -0.274 Ca 
HETATM    4  O   UNL     4     -12.353  12.282  67.635  1.00  0.00    -0.312 OA 
HETATM    5  C   UNL     4     -11.799  12.694  68.696  1.00  0.00    -0.302 C  
HETATM    6  O   UNL     4     -12.216  13.725  69.326  1.00  0.00    -0.337 OA 
HETATM    7  C   UNL     4     -10.576  11.990  69.314  1.00  0.00     0.054 C  
ENDROOT
BRANCH   7   8
HETATM    8  N   UNL     4      -9.761  11.077  68.464  1.00  0.00    -0.183 NA 
BRANCH   8   9
HETATM    9  C   UNL     4     -10.113   9.656  68.390  1.00  0.00    -0.176 C  
BRANCH   9  10
HETATM   10  C   UNL     4     -11.266   9.168  69.269  1.00  0.00     0.132 C  
BRANCH  10  11
HETATM   11  N   UNL     4     -10.867   8.161  70.284  1.00  0.00    -0.243 NA 
BRANCH  11  12
HETATM   12  C   UNL     4     -11.224   8.539  71.688  1.00  0.00    -0.292 C  
HETATM   13  O   UNL     4     -10.081   7.612  73.606  1.00  0.00    -0.321 OA 
HETATM   14  O   UNL     4      -8.872   8.681  71.955  1.00  0.00    -0.199 OA 
HETATM   15  C   UNL     4      -9.941   8.286  72.557  1.00  0.00    -0.303 C  
ENDBRANCH  11  12
BRANCH  11  16
HETATM   16  C   UNL     4     -11.490   6.828  69.949  1.00  0.00    -0.300 C  
HETATM   17  C   UNL     4     -10.448   6.077  69.068  1.00  0.00    -0.256 C  
HETATM   18  O   UNL     4     -10.809   5.854  67.877  1.00  0.00    -0.271 OA 
HETATM   19  O   UNL     4      -9.278   6.069  69.610  1.00  0.00    -0.136 OA 
ENDBRANCH  11  16
ENDBRANCH  10  11
ENDBRANCH   9  10
ENDBRANCH   8   9
BRANCH   8  20
HETATM   20  C   UNL     4      -9.805  11.623  67.045  1.00  0.00    -0.193 C  
HETATM   21  C   UNL     4      -8.653  11.127  66.087  1.00  0.00    -0.172 C  
HETATM   22  O   UNL     4      -9.007  10.959  64.883  1.00  0.00    -0.193 OA 
HETATM   23  O   UNL     4      -7.492  10.942  66.590  1.00  0.00    -0.126 OA 
ENDBRANCH   8  20
ENDBRANCH   7   8
TORSDOF 7
ENDMDL
MODEL      309
REMARK 921   NORMALIZED FREE ENERGY PREDICTED BY IDOCK:   -3.04 KCAL/MOL
REMARK 922        TOTAL FREE ENERGY PREDICTED BY IDOCK:   -5.72 KCAL/MOL
REMARK 923 INTER-LIGAND FREE ENERGY PREDICTED BY IDOCK:   -5.06 KCAL/MOL
REMARK 924 INTRA-LIGAND FREE ENERGY PREDICTED BY IDOCK:   -0.67 KCAL/MOL
REMARK 927      BINDING AFFINITY PREDICTED BY RF-SCORE:    0.00 PKD
ROOT
HETATM    1 NA   UNL     1     -12.739   6.515  69.251  1.00  0.00    -0.524 Na 
HETATM    2 NA   UNL     2     -10.540   3.477  66.574  1.00  0.00    -0.399 Na 
HETATM    3 CA   UNL     3      -9.310   5.608  73.445  1.00  0.00    -0.131 Ca 
HETATM    4  O   UNL     4     -10.978   6.807  68.252  1.00  0.00    -0.237 OA 
HETATM    5  C   UNL     4      -9.944   6.082  68.175  1.00  0.00    -0.147 C  
HETATM    6  O   UNL     4     -10.000   4.848  67.843  1.00  0.00    -0.158 OA 
HETATM    7  C   UNL     4      -8.532   6.623  68.477  1.00  0.00    -0.122 C  
ENDROOT
BRANCH   7   8
HETATM    8  N   UNL     4      -8.394   7.875  69.271  1.00  0.00    -0.134 NA 
BRANCH   8   9
HETATM    9  C   UNL     4      -8.162   9.146  68.577  1.00  0.00    -0.115 C  
BRANCH   9  10
HETATM   10  C   UNL     4      -9.296  10.172  68.587  1.00  0.00    -0.161 C  
BRANCH  10  11
HETATM   11  N   UNL     4      -9.832  10.492  67.240  1.00  0.00    -0.172 NA 
BRANCH  11  12
HETATM   12  C   UNL     4      -9.712   9.368  66.257  1.00  0.00    -0.264 C  
HETATM   13  O   UNL     4      -9.461   9.749  63.883  1.00  0.00    -0.232 OA 
HETATM   14  O   UNL     4      -7.967  10.702  65.364  1.00  0.00    -0.148 OA 
HETATM   15  C   UNL     4      -8.950   9.945  65.012  1.00  0.00    -0.201 C  
ENDBRANCH  11  12
BRANCH  11  16
HETATM   16  C   UNL     4     -11.277  10.907  67.354  1.00  0.00    -0.273 C  
HETATM   17  C   UNL     4     -11.305  12.441  67.090  1.00  0.00    -0.329 C  
HETATM   18  O   UNL     4     -11.661  13.152  68.073  1.00  0.00    -0.291 OA 
HETATM   19  O   UNL     4     -10.678  12.754  66.007  1.00  0.00    -0.267 OA 
ENDBRANCH  11  16
ENDBRANCH  10  11
ENDBRANCH   9  10
ENDBRANCH   8   9
BRANCH   8  20
HETATM   20  C   UNL     4      -9.668   8.037  70.086  1.00  0.00    -0.176 C  
HETATM   21  C   UNL     4      -9.470   8.146  71.648  1.00  0.00    -0.177 C  
HETATM   22  O   UNL     4     -10.282   8.926  72.228  1.00  0.00    -0.296 OA 
HETATM   23  O   UNL     4      -8.534   7.457  72.184  1.00  0.00    -0.107 OA 
ENDBRANCH   8  20
ENDBRANCH   7   8
TORSDOF 7
ENDMDL
MODEL      310
REMARK 921   NORMALIZED FREE ENERGY PREDICTED BY IDOCK:   -3.04 KCAL/MOL
REMARK 922        TOTAL FREE ENERGY PREDICTED BY IDOCK:   -5.72 KCAL/MOL
REMARK 923 INTER-LIGAND FREE ENERGY PREDICTED BY IDOCK:   -5.05 KCAL/MOL
REMARK 924 INTRA-LIGAND FREE ENERGY PREDICTED BY IDOCK:   -0.67 KCAL/MOL
REMARK 927      BINDING AFFINITY PREDICTED BY RF-SCORE:    0.00 PKD
ROOT
HETATM    1 NA   UNL     1     -11.929   6.453  66.702  1.00  0.00    -0.592 Na 
HETATM    2 NA   UNL     2      -9.077   8.220  63.542  1.00  0.00    -0.405 Na 
HETATM    3 CA   UNL     3      -7.753   4.391  69.612  1.00  0.00    -0.050 Ca 
HETATM    4  O   UNL     4     -10.820   8.165  66.868  1.00  0.00    -0.250 OA 
HETATM    5  C   UNL     4      -9.601   8.385  66.609  1.00  0.00    -0.229 C  
HETATM    6  O   UNL     4      -9.078   8.081  65.482  1.00  0.00    -0.080 OA 
HETATM    7  C   UNL     4      -8.645   9.036  67.629  1.00  0.00    -0.120 C  
ENDROOT
BRANCH   7   8
HETATM    8  N   UNL     4      -9.016   9.029  69.071  1.00  0.00    -0.138 NA 
BRANCH   8   9
HETATM    9  C   UNL     4      -8.916   7.781  69.834  1.00  0.00    -0.146 C  
BRANCH   9  10
HETATM   10  C   UNL     4     -10.207   6.997  70.077  1.00  0.00    -0.194 C  
BRANCH  10  11
HETATM   11  N   UNL     4     -10.609   6.924  71.504  1.00  0.00    -0.217 NA 
BRANCH  11  12
HETATM   12  C   UNL     4      -9.831   5.922  72.302  1.00  0.00    -0.160 C  
HETATM   13  O   UNL     4     -10.445   5.314  74.561  1.00  0.00    -0.274 OA 
HETATM   14  O   UNL     4     -11.987   5.102  72.854  1.00  0.00    -0.218 OA 
HETATM   15  C   UNL     4     -10.826   5.333  73.365  1.00  0.00    -0.302 C  
ENDBRANCH  11  12
BRANCH  11  16
HETATM   16  C   UNL     4     -10.475   8.285  72.140  1.00  0.00    -0.301 C  
HETATM   17  C   UNL     4     -11.789   9.048  71.800  1.00  0.00    -0.372 C  
HETATM   18  O   UNL     4     -11.649  10.059  71.054  1.00  0.00    -0.343 OA 
HETATM   19  O   UNL     4     -12.836   8.354  72.091  1.00  0.00    -0.338 OA 
ENDBRANCH  11  16
ENDBRANCH  10  11
ENDBRANCH   9  10
ENDBRANCH   8   9
BRANCH   8  20
HETATM   20  C   UNL     4      -8.134  10.052  69.770  1.00  0.00    -0.177 C  
HETATM   21  C   UNL     4      -6.598   9.988  69.409  1.00  0.00    -0.053 C  
HETATM   22  O   UNL     4      -6.021  11.115  69.368  1.00  0.00    -0.047 OA 
HETATM   23  O   UNL     4      -6.079   8.838  69.197  1.00  0.00    -0.041 OA 
ENDBRANCH   8  20
ENDBRANCH   7   8
TORSDOF 7
ENDMDL
MODEL      311
REMARK 921   NORMALIZED FREE ENERGY PREDICTED BY IDOCK:   -3.03 KCAL/MOL
REMARK 922        TOTAL FREE ENERGY PREDICTED BY IDOCK:   -5.71 KCAL/MOL
REMARK 923 INTER-LIGAND FREE ENERGY PREDICTED BY IDOCK:   -6.11 KCAL/MOL
REMARK 924 INTRA-LIGAND FREE ENERGY PREDICTED BY IDOCK:    0.40 KCAL/MOL
REMARK 927      BINDING AFFINITY PREDICTED BY RF-SCORE:    0.00 PKD
ROOT
HETATM    1 NA   UNL     1     -13.490  14.287  65.381  1.00  0.00    -0.605 Na 
HETATM    2 NA   UNL     2     -13.713  14.753  69.960  1.00  0.00    -0.587 Na 
HETATM    3 CA   UNL     3      -8.379  16.291  65.222  1.00  0.00    -0.142 Ca 
HETATM    4  O   UNL     4     -12.653  13.055  66.784  1.00  0.00    -0.225 OA 
HETATM    5  C   UNL     4     -11.967  13.323  67.812  1.00  0.00    -0.314 C  
HETATM    6  O   UNL     4     -12.360  14.162  68.693  1.00  0.00    -0.257 OA 
HETATM    7  C   UNL     4     -10.601  12.664  68.088  1.00  0.00    -0.228 C  
ENDROOT
BRANCH   7   8
HETATM    8  N   UNL     4      -9.865  12.029  66.960  1.00  0.00    -0.193 NA 
BRANCH   8   9
HETATM    9  C   UNL     4     -10.157  10.637  66.601  1.00  0.00    -0.220 C  
BRANCH   9  10
HETATM   10  C   UNL     4     -10.876   9.777  67.642  1.00  0.00    -0.239 C  
BRANCH  10  11
HETATM   11  N   UNL     4     -10.234   8.461  67.884  1.00  0.00    -0.207 NA 
BRANCH  11  12
HETATM   12  C   UNL     4      -9.561   7.883  66.677  1.00  0.00    -0.226 C  
HETATM   13  O   UNL     4      -8.653   5.642  66.652  1.00  0.00    -0.115 OA 
HETATM   14  O   UNL     4     -10.871   5.977  67.201  1.00  0.00    -0.301 OA 
HETATM   15  C   UNL     4      -9.697   6.323  66.795  1.00  0.00    -0.156 C  
ENDBRANCH  11  12
BRANCH  11  16
HETATM   16  C   UNL     4      -9.234   8.582  69.006  1.00  0.00    -0.146 C  
HETATM   17  C   UNL     4     -10.030   8.327  70.320  1.00  0.00    -0.186 C  
HETATM   18  O   UNL     4     -10.108   9.316  71.104  1.00  0.00    -0.288 OA 
HETATM   19  O   UNL     4     -10.727   7.244  70.257  1.00  0.00    -0.224 OA 
ENDBRANCH  11  16
ENDBRANCH  10  11
ENDBRANCH   9  10
ENDBRANCH   8   9
BRANCH   8  20
HETATM   20  C   UNL     4     -10.121  12.873  65.721  1.00  0.00    -0.287 C  
HETATM   21  C   UNL     4     -10.196  12.080  64.358  1.00  0.00    -0.302 C  
HETATM   22  O   UNL     4     -11.034  12.541  63.527  1.00  0.00    -0.445 OA 
HETATM   23  O   UNL     4      -9.427  11.069  64.209  1.00  0.00    -0.221 OA 
ENDBRANCH   8  20
ENDBRANCH   7   8
TORSDOF 7
ENDMDL
MODEL      312
REMARK 921   NORMALIZED FREE ENERGY PREDICTED BY IDOCK:   -3.01 KCAL/MOL
REMARK 922        TOTAL FREE ENERGY PREDICTED BY IDOCK:   -5.69 KCAL/MOL
REMARK 923 INTER-LIGAND FREE ENERGY PREDICTED BY IDOCK:   -5.02 KCAL/MOL
REMARK 924 INTRA-LIGAND FREE ENERGY PREDICTED BY IDOCK:   -0.67 KCAL/MOL
REMARK 927      BINDING AFFINITY PREDICTED BY RF-SCORE:    0.00 PKD
ROOT
HETATM    1 NA   UNL     1      -6.173   7.385  70.599  1.00  0.00    -0.031 Na 
HETATM    2 NA   UNL     2      -9.131   8.887  73.797  1.00  0.00    -0.144 Na 
HETATM    3 CA   UNL     3     -10.203   5.094  67.655  1.00  0.00    -0.141 Ca 
HETATM    4  O   UNL     4      -7.399   9.018  70.469  1.00  0.00    -0.063 OA 
HETATM    5  C   UNL     4      -8.629   9.148  70.733  1.00  0.00    -0.219 C  
HETATM    6  O   UNL     4      -9.127   8.786  71.854  1.00  0.00    -0.248 OA 
HETATM    7  C   UNL     4      -9.630   9.750  69.728  1.00  0.00    -0.230 C  
ENDROOT
BRANCH   7   8
HETATM    8  N   UNL     4      -9.264   9.797  68.285  1.00  0.00    -0.129 NA 
BRANCH   8   9
HETATM    9  C   UNL     4      -8.307  10.804  67.816  1.00  0.00    -0.113 C  
BRANCH   9  10
HETATM   10  C   UNL     4      -8.497  12.240  68.309  1.00  0.00    -0.173 C  
BRANCH  10  11
HETATM   11  N   UNL     4      -9.777  12.859  67.881  1.00  0.00    -0.211 NA 
BRANCH  11  12
HETATM   12  C   UNL     4     -10.017  14.219  68.462  1.00  0.00    -0.235 C  
HETATM   13  O   UNL     4     -12.241  15.120  68.766  1.00  0.00    -0.204 OA 
HETATM   14  O   UNL     4     -11.685  13.087  69.711  1.00  0.00    -0.300 OA 
HETATM   15  C   UNL     4     -11.460  14.189  69.082  1.00  0.00    -0.296 C  
ENDBRANCH  11  12
BRANCH  11  16
HETATM   16  C   UNL     4      -9.824  12.941  66.376  1.00  0.00    -0.268 C  
HETATM   17  C   UNL     4     -10.934  11.945  65.927  1.00  0.00    -0.307 C  
HETATM   18  O   UNL     4     -10.530  10.957  65.249  1.00  0.00    -0.271 OA 
HETATM   19  O   UNL     4     -12.036  12.132  66.569  1.00  0.00    -0.627 OA 
ENDBRANCH  11  16
ENDBRANCH  10  11
ENDBRANCH   9  10
ENDBRANCH   8   9
BRANCH   8  20
HETATM   20  C   UNL     4      -8.695   8.435  67.919  1.00  0.00    -0.138 C  
HETATM   21  C   UNL     4      -9.507   7.625  66.835  1.00  0.00    -0.172 C  
HETATM   22  O   UNL     4      -8.791   6.936  66.049  1.00  0.00    -0.156 OA 
HETATM   23  O   UNL     4     -10.782   7.726  66.840  1.00  0.00    -0.345 OA 
ENDBRANCH   8  20
ENDBRANCH   7   8
TORSDOF 7
ENDMDL
MODEL      313
REMARK 921   NORMALIZED FREE ENERGY PREDICTED BY IDOCK:   -3.01 KCAL/MOL
REMARK 922        TOTAL FREE ENERGY PREDICTED BY IDOCK:   -5.68 KCAL/MOL
REMARK 923 INTER-LIGAND FREE ENERGY PREDICTED BY IDOCK:   -6.62 KCAL/MOL
REMARK 924 INTRA-LIGAND FREE ENERGY PREDICTED BY IDOCK:    0.94 KCAL/MOL
REMARK 927      BINDING AFFINITY PREDICTED BY RF-SCORE:    0.00 PKD
ROOT
HETATM    1 NA   UNL     1      -9.620   8.664  67.667  1.00  0.00    -0.138 Na 
HETATM    2 NA   UNL     2      -9.947   8.868  63.075  1.00  0.00    -0.390 Na 
HETATM    3 CA   UNL     3      -5.569  12.372  67.745  1.00  0.00    -0.049 Ca 
HETATM    4  O   UNL     4     -10.541  10.121  66.563  1.00  0.00    -0.189 OA 
HETATM    5  C   UNL     4     -10.145  10.757  65.544  1.00  0.00    -0.274 C  
HETATM    6  O   UNL     4      -9.697  10.164  64.503  1.00  0.00    -0.302 OA 
HETATM    7  C   UNL     4     -10.166  12.297  65.471  1.00  0.00    -0.269 C  
ENDROOT
BRANCH   7   8
HETATM    8  N   UNL     4     -10.247  13.078  66.737  1.00  0.00    -0.243 NA 
BRANCH   8   9
HETATM    9  C   UNL     4      -9.259  14.128  67.000  1.00  0.00    -0.239 C  
BRANCH   9  10
HETATM   10  C   UNL     4      -9.773  15.458  67.555  1.00  0.00    -0.208 C  
BRANCH  10  11
HETATM   11  N   UNL     4      -8.753  16.537  67.576  1.00  0.00    -0.181 NA 
BRANCH  11  12
HETATM   12  C   UNL     4      -7.974  16.660  66.303  1.00  0.00    -0.305 C  
HETATM   13  O   UNL     4      -5.964  17.996  66.143  1.00  0.00    -0.161 OA 
HETATM   14  O   UNL     4      -6.113  16.329  67.735  1.00  0.00    -0.111 OA 
HETATM   15  C   UNL     4      -6.502  17.017  66.716  1.00  0.00    -0.223 C  
ENDBRANCH  11  12
BRANCH  11  16
HETATM   16  C   UNL     4      -9.416  17.855  67.888  1.00  0.00    -0.272 C  
HETATM   17  C   UNL     4      -9.708  18.525  66.513  1.00  0.00    -0.343 C  
HETATM   18  O   UNL     4      -9.074  19.595  66.289  1.00  0.00    -0.362 OA 
HETATM   19  O   UNL     4     -10.322  17.724  65.710  1.00  0.00    -0.570 OA 
ENDBRANCH  11  16
ENDBRANCH  10  11
ENDBRANCH   9  10
ENDBRANCH   8   9
BRANCH   8  20
HETATM   20  C   UNL     4     -11.618  13.734  66.777  1.00  0.00    -0.370 C  
HETATM   21  C   UNL     4     -12.217  14.148  65.376  1.00  0.00    -0.433 C  
HETATM   22  O   UNL     4     -13.474  14.016  65.283  1.00  0.00    -0.622 OA 
HETATM   23  O   UNL     4     -11.409  14.570  64.479  1.00  0.00    -0.368 OA 
ENDBRANCH   8  20
ENDBRANCH   7   8
TORSDOF 7
ENDMDL
MODEL      314
REMARK 921   NORMALIZED FREE ENERGY PREDICTED BY IDOCK:   -3.01 KCAL/MOL
REMARK 922        TOTAL FREE ENERGY PREDICTED BY IDOCK:   -5.68 KCAL/MOL
REMARK 923 INTER-LIGAND FREE ENERGY PREDICTED BY IDOCK:   -4.53 KCAL/MOL
REMARK 924 INTRA-LIGAND FREE ENERGY PREDICTED BY IDOCK:   -1.15 KCAL/MOL
REMARK 927      BINDING AFFINITY PREDICTED BY RF-SCORE:    0.00 PKD
ROOT
HETATM    1 NA   UNL     1     -11.078   7.265  66.245  1.00  0.00    -0.451 Na 
HETATM    2 NA   UNL     2     -10.314   9.935  62.567  1.00  0.00    -0.504 Na 
HETATM    3 CA   UNL     3      -5.771   5.899  66.609  1.00  0.00    -0.012 Ca 
HETATM    4  O   UNL     4     -10.293   9.155  66.240  1.00  0.00    -0.244 OA 
HETATM    5  C   UNL     4      -9.381   9.666  65.528  1.00  0.00    -0.248 C  
HETATM    6  O   UNL     4      -9.398   9.603  64.251  1.00  0.00    -0.244 OA 
HETATM    7  C   UNL     4      -8.174  10.406  66.138  1.00  0.00    -0.144 C  
ENDROOT
BRANCH   7   8
HETATM    8  N   UNL     4      -7.831  10.170  67.568  1.00  0.00    -0.102 NA 
BRANCH   8   9
HETATM    9  C   UNL     4      -7.396   8.836  67.993  1.00  0.00    -0.088 C  
BRANCH   9  10
HETATM   10  C   UNL     4      -7.263   8.583  69.496  1.00  0.00    -0.060 C  
BRANCH  10  11
HETATM   11  N   UNL     4      -8.450   7.932  70.106  1.00  0.00    -0.128 NA 
BRANCH  11  12
HETATM   12  C   UNL     4      -9.125   6.940  69.209  1.00  0.00    -0.140 C  
HETATM   13  O   UNL     4     -11.405   6.217  69.567  1.00  0.00    -0.409 OA 
HETATM   14  O   UNL     4     -10.934   8.467  69.342  1.00  0.00    -0.146 OA 
HETATM   15  C   UNL     4     -10.668   7.206  69.334  1.00  0.00    -0.231 C  
ENDBRANCH  11  12
BRANCH  11  16
HETATM   16  C   UNL     4      -8.053   7.256  71.394  1.00  0.00    -0.102 C  
HETATM   17  C   UNL     4      -8.488   8.220  72.537  1.00  0.00    -0.187 C  
HETATM   18  O   UNL     4      -7.543   8.710  73.218  1.00  0.00    -0.364 OA 
HETATM   19  O   UNL     4      -9.717   8.589  72.412  1.00  0.00    -0.288 OA 
ENDBRANCH  11  16
ENDBRANCH  10  11
ENDBRANCH   9  10
ENDBRANCH   8   9
BRANCH   8  20
HETATM   20  C   UNL     4      -6.718  11.140  67.932  1.00  0.00    -0.063 C  
HETATM   21  C   UNL     4      -7.172  12.446  68.693  1.00  0.00    -0.104 C  
HETATM   22  O   UNL     4      -6.350  12.860  69.563  1.00  0.00    -0.112 OA 
HETATM   23  O   UNL     4      -8.298  12.964  68.377  1.00  0.00    -0.157 OA 
ENDBRANCH   8  20
ENDBRANCH   7   8
TORSDOF 7
ENDMDL
MODEL      315
REMARK 921   NORMALIZED FREE ENERGY PREDICTED BY IDOCK:   -3.01 KCAL/MOL
REMARK 922        TOTAL FREE ENERGY PREDICTED BY IDOCK:   -5.68 KCAL/MOL
REMARK 923 INTER-LIGAND FREE ENERGY PREDICTED BY IDOCK:   -5.80 KCAL/MOL
REMARK 924 INTRA-LIGAND FREE ENERGY PREDICTED BY IDOCK:    0.12 KCAL/MOL
REMARK 927      BINDING AFFINITY PREDICTED BY RF-SCORE:    0.00 PKD
ROOT
HETATM    1 NA   UNL     1     -11.267  10.648  64.024  1.00  0.00    -0.410 Na 
HETATM    2 NA   UNL     2      -7.410   8.233  64.752  1.00  0.00    -0.071 Na 
HETATM    3 CA   UNL     3     -12.743  10.268  69.300  1.00  0.00    -0.520 Ca 
HETATM    4  O   UNL     4      -9.528  11.331  64.859  1.00  0.00    -0.218 OA 
HETATM    5  C   UNL     4      -8.797  10.832  65.764  1.00  0.00    -0.188 C  
HETATM    6  O   UNL     4      -8.370   9.628  65.708  1.00  0.00    -0.123 OA 
HETATM    7  C   UNL     4      -8.362  11.633  67.007  1.00  0.00    -0.169 C  
ENDROOT
BRANCH   7   8
HETATM    8  N   UNL     4      -9.129  12.852  67.386  1.00  0.00    -0.188 NA 
BRANCH   8   9
HETATM    9  C   UNL     4      -8.411  14.106  67.636  1.00  0.00    -0.185 C  
BRANCH   9  10
HETATM   10  C   UNL     4      -8.559  15.222  66.601  1.00  0.00    -0.270 C  
BRANCH  10  11
HETATM   11  N   UNL     4      -7.956  16.513  67.016  1.00  0.00    -0.183 NA 
BRANCH  11  12
HETATM   12  C   UNL     4      -6.459  16.527  66.967  1.00  0.00    -0.186 C  
HETATM   13  O   UNL     4      -5.141  18.139  68.197  1.00  0.00    -0.159 OA 
HETATM   14  O   UNL     4      -6.660  16.805  69.313  1.00  0.00    -0.202 OA 
HETATM   15  C   UNL     4      -5.977  17.208  68.297  1.00  0.00    -0.143 C  
ENDBRANCH  11  12
BRANCH  11  16
HETATM   16  C   UNL     4      -8.496  17.626  66.154  1.00  0.00    -0.132 C  
HETATM   17  C   UNL     4      -9.656  18.274  66.967  1.00  0.00    -0.291 C  
HETATM   18  O   UNL     4     -10.807  18.149  66.458  1.00  0.00    -0.205 OA 
HETATM   19  O   UNL     4      -9.293  18.572  68.168  1.00  0.00    -0.294 OA 
ENDBRANCH  11  16
ENDBRANCH  10  11
ENDBRANCH   9  10
ENDBRANCH   8   9
BRANCH   8  20
HETATM   20  C   UNL     4     -10.127  13.122  66.271  1.00  0.00    -0.285 C  
HETATM   21  C   UNL     4     -11.648  12.986  66.668  1.00  0.00    -0.359 C  
HETATM   22  O   UNL     4     -12.418  13.811  66.093  1.00  0.00    -0.446 OA 
HETATM   23  O   UNL     4     -11.969  12.080  67.513  1.00  0.00    -0.572 OA 
ENDBRANCH   8  20
ENDBRANCH   7   8
TORSDOF 7
ENDMDL
MODEL      316
REMARK 921   NORMALIZED FREE ENERGY PREDICTED BY IDOCK:   -3.00 KCAL/MOL
REMARK 922        TOTAL FREE ENERGY PREDICTED BY IDOCK:   -5.67 KCAL/MOL
REMARK 923 INTER-LIGAND FREE ENERGY PREDICTED BY IDOCK:   -6.09 KCAL/MOL
REMARK 924 INTRA-LIGAND FREE ENERGY PREDICTED BY IDOCK:    0.42 KCAL/MOL
REMARK 927      BINDING AFFINITY PREDICTED BY RF-SCORE:    0.00 PKD
ROOT
HETATM    1 NA   UNL     1      -8.948  13.924  65.324  1.00  0.00    -0.455 Na 
HETATM    2 NA   UNL     2      -7.232   9.947  63.749  1.00  0.00    -0.098 Na 
HETATM    3 CA   UNL     3     -14.115  12.261  64.486  1.00  0.00    -0.624 Ca 
HETATM    4  O   UNL     4      -8.845  12.145  66.331  1.00  0.00    -0.184 OA 
HETATM    5  C   UNL     4      -9.161  10.974  65.969  1.00  0.00    -0.193 C  
HETATM    6  O   UNL     4      -8.728  10.456  64.884  1.00  0.00    -0.171 OA 
HETATM    7  C   UNL     4     -10.095  10.077  66.806  1.00  0.00    -0.226 C  
ENDROOT
BRANCH   7   8
HETATM    8  N   UNL     4     -10.979  10.707  67.825  1.00  0.00    -0.285 NA 
BRANCH   8   9
HETATM    9  C   UNL     4     -10.443  11.006  69.157  1.00  0.00    -0.210 C  
BRANCH   9  10
HETATM   10  C   UNL     4      -9.695   9.888  69.884  1.00  0.00    -0.235 C  
BRANCH  10  11
HETATM   11  N   UNL     4     -10.583   8.887  70.526  1.00  0.00    -0.209 NA 
BRANCH  11  12
HETATM   12  C   UNL     4     -11.916   9.433  70.936  1.00  0.00    -0.280 C  
HETATM   13  O   UNL     4     -13.713   8.010  71.706  1.00  0.00    -0.348 OA 
HETATM   14  O   UNL     4     -11.658   7.937  72.758  1.00  0.00    -0.383 OA 
HETATM   15  C   UNL     4     -12.538   8.388  71.930  1.00  0.00    -0.349 C  
ENDBRANCH  11  12
BRANCH  11  16
HETATM   16  C   UNL     4     -10.784   7.716  69.596  1.00  0.00    -0.228 C  
HETATM   17  C   UNL     4      -9.526   6.814  69.763  1.00  0.00    -0.144 C  
HETATM   18  O   UNL     4      -8.793   6.715  68.738  1.00  0.00    -0.127 OA 
HETATM   19  O   UNL     4      -9.281   6.556  71.003  1.00  0.00    -0.159 OA 
ENDBRANCH  11  16
ENDBRANCH  10  11
ENDBRANCH   9  10
ENDBRANCH   8   9
BRANCH   8  20
HETATM   20  C   UNL     4     -11.482  12.017  67.240  1.00  0.00    -0.335 C  
HETATM   21  C   UNL     4     -11.791  13.158  68.286  1.00  0.00    -0.349 C  
HETATM   22  O   UNL     4     -11.520  14.328  67.883  1.00  0.00    -0.281 OA 
HETATM   23  O   UNL     4     -12.276  12.817  69.420  1.00  0.00    -0.212 OA 
ENDBRANCH   8  20
ENDBRANCH   7   8
TORSDOF 7
ENDMDL
MODEL      317
REMARK 921   NORMALIZED FREE ENERGY PREDICTED BY IDOCK:   -3.00 KCAL/MOL
REMARK 922        TOTAL FREE ENERGY PREDICTED BY IDOCK:   -5.67 KCAL/MOL
REMARK 923 INTER-LIGAND FREE ENERGY PREDICTED BY IDOCK:   -5.11 KCAL/MOL
REMARK 924 INTRA-LIGAND FREE ENERGY PREDICTED BY IDOCK:   -0.56 KCAL/MOL
REMARK 927      BINDING AFFINITY PREDICTED BY RF-SCORE:    0.00 PKD
ROOT
HETATM    1 NA   UNL     1      -5.725   8.918  71.423  1.00  0.00    -0.031 Na 
HETATM    2 NA   UNL     2      -6.843   5.264  73.999  1.00  0.00    -0.061 Na 
HETATM    3 CA   UNL     3      -8.756   7.128  67.207  1.00  0.00    -0.113 Ca 
HETATM    4  O   UNL     4      -7.478   8.618  72.435  1.00  0.00    -0.279 OA 
HETATM    5  C   UNL     4      -8.236   7.606  72.489  1.00  0.00    -0.118 C  
HETATM    6  O   UNL     4      -7.796   6.440  72.778  1.00  0.00    -0.103 OA 
HETATM    7  C   UNL     4      -9.749   7.692  72.208  1.00  0.00    -0.174 C  
ENDROOT
BRANCH   7   8
HETATM    8  N   UNL     4     -10.278   8.865  71.457  1.00  0.00    -0.300 NA 
BRANCH   8   9
HETATM    9  C   UNL     4     -10.002   8.986  70.022  1.00  0.00    -0.188 C  
BRANCH   9  10
HETATM   10  C   UNL     4      -9.264  10.240  69.550  1.00  0.00    -0.170 C  
BRANCH  10  11
HETATM   11  N   UNL     4     -10.010  11.035  68.542  1.00  0.00    -0.186 NA 
BRANCH  11  12
HETATM   12  C   UNL     4      -9.808  10.571  67.133  1.00  0.00    -0.176 C  
HETATM   13  O   UNL     4     -10.454  11.913  65.227  1.00  0.00    -0.255 OA 
HETATM   14  O   UNL     4      -9.017  12.784  66.811  1.00  0.00    -0.218 OA 
HETATM   15  C   UNL     4      -9.724  11.865  66.247  1.00  0.00    -0.229 C  
ENDBRANCH  11  12
BRANCH  11  16
HETATM   16  C   UNL     4     -11.482  11.017  68.871  1.00  0.00    -0.296 C  
HETATM   17  C   UNL     4     -11.783  12.378  69.565  1.00  0.00    -0.322 C  
HETATM   18  O   UNL     4     -12.138  12.299  70.776  1.00  0.00    -0.340 OA 
HETATM   19  O   UNL     4     -11.337  13.376  68.881  1.00  0.00    -0.254 OA 
ENDBRANCH  11  16
ENDBRANCH  10  11
ENDBRANCH   9  10
ENDBRANCH   8   9
BRANCH   8  20
HETATM   20  C   UNL     4     -11.790   8.864  71.624  1.00  0.00    -0.345 C  
HETATM   21  C   UNL     4     -12.507   7.487  71.335  1.00  0.00    -0.352 C  
HETATM   22  O   UNL     4     -13.505   7.250  72.078  1.00  0.00    -0.232 OA 
HETATM   23  O   UNL     4     -12.035   6.749  70.403  1.00  0.00    -0.373 OA 
ENDBRANCH   8  20
ENDBRANCH   7   8
TORSDOF 7
ENDMDL
MODEL      318
REMARK 921   NORMALIZED FREE ENERGY PREDICTED BY IDOCK:   -3.00 KCAL/MOL
REMARK 922        TOTAL FREE ENERGY PREDICTED BY IDOCK:   -5.67 KCAL/MOL
REMARK 923 INTER-LIGAND FREE ENERGY PREDICTED BY IDOCK:   -4.99 KCAL/MOL
REMARK 924 INTRA-LIGAND FREE ENERGY PREDICTED BY IDOCK:   -0.67 KCAL/MOL
REMARK 927      BINDING AFFINITY PREDICTED BY RF-SCORE:    0.00 PKD
ROOT
HETATM    1 NA   UNL     1     -12.760  11.836  68.735  1.00  0.00    -0.252 Na 
HETATM    2 NA   UNL     2     -13.530  13.533  64.520  1.00  0.00    -0.627 Na 
HETATM    3 CA   UNL     3     -12.365   6.704  66.818  1.00  0.00    -0.580 Ca 
HETATM    4  O   UNL     4     -11.368  12.180  67.275  1.00  0.00    -0.291 OA 
HETATM    5  C   UNL     4     -11.373  11.882  66.045  1.00  0.00    -0.316 C  
HETATM    6  O   UNL     4     -12.347  12.186  65.274  1.00  0.00    -0.513 OA 
HETATM    7  C   UNL     4     -10.207  11.128  65.374  1.00  0.00    -0.271 C  
ENDROOT
BRANCH   7   8
HETATM    8  N   UNL     4      -9.256  10.363  66.228  1.00  0.00    -0.163 NA 
BRANCH   8   9
HETATM    9  C   UNL     4      -8.967   8.962  65.906  1.00  0.00    -0.200 C  
BRANCH   9  10
HETATM   10  C   UNL     4      -9.782   7.890  66.632  1.00  0.00    -0.235 C  
BRANCH  10  11
HETATM   11  N   UNL     4      -8.977   7.025  67.531  1.00  0.00    -0.118 NA 
BRANCH  11  12
HETATM   12  C   UNL     4      -9.592   5.686  67.796  1.00  0.00    -0.119 C  
HETATM   13  O   UNL     4      -9.870   4.812  70.033  1.00  0.00    -0.189 OA 
HETATM   14  O   UNL     4     -10.767   6.867  69.482  1.00  0.00    -0.224 OA 
HETATM   15  C   UNL     4     -10.176   5.745  69.252  1.00  0.00    -0.226 C  
ENDBRANCH  11  12
BRANCH  11  16
HETATM   16  C   UNL     4      -7.596   6.839  66.952  1.00  0.00    -0.091 C  
HETATM   17  C   UNL     4      -6.604   7.047  68.134  1.00  0.00    -0.055 C  
HETATM   18  O   UNL     4      -5.844   8.052  68.029  1.00  0.00    -0.039 OA 
HETATM   19  O   UNL     4      -6.922   6.334  69.160  1.00  0.00    -0.063 OA 
ENDBRANCH  11  16
ENDBRANCH  10  11
ENDBRANCH   9  10
ENDBRANCH   8   9
BRANCH   8  20
HETATM   20  C   UNL     4      -7.931  11.109  66.208  1.00  0.00    -0.125 C  
HETATM   21  C   UNL     4      -7.321  11.453  67.623  1.00  0.00    -0.102 C  
HETATM   22  O   UNL     4      -6.057  11.398  67.677  1.00  0.00    -0.048 OA 
HETATM   23  O   UNL     4      -8.129  11.752  68.568  1.00  0.00    -0.147 OA 
ENDBRANCH   8  20
ENDBRANCH   7   8
TORSDOF 7
ENDMDL
MODEL      319
REMARK 921   NORMALIZED FREE ENERGY PREDICTED BY IDOCK:   -2.99 KCAL/MOL
REMARK 922        TOTAL FREE ENERGY PREDICTED BY IDOCK:   -5.66 KCAL/MOL
REMARK 923 INTER-LIGAND FREE ENERGY PREDICTED BY IDOCK:   -5.23 KCAL/MOL
REMARK 924 INTRA-LIGAND FREE ENERGY PREDICTED BY IDOCK:   -0.43 KCAL/MOL
REMARK 927      BINDING AFFINITY PREDICTED BY RF-SCORE:    0.00 PKD
ROOT
HETATM    1 NA   UNL     1     -11.345  17.606  67.246  1.00  0.00    -0.277 Na 
HETATM    2 NA   UNL     2     -13.862  14.265  65.313  1.00  0.00    -0.774 Na 
HETATM    3 CA   UNL     3     -11.067  14.911  72.024  1.00  0.00    -0.346 Ca 
HETATM    4  O   UNL     4     -10.665  15.814  66.528  1.00  0.00    -0.313 OA 
HETATM    5  C   UNL     4     -11.098  14.639  66.702  1.00  0.00    -0.334 C  
HETATM    6  O   UNL     4     -12.322  14.327  66.500  1.00  0.00    -0.445 OA 
HETATM    7  C   UNL     4     -10.190  13.486  67.175  1.00  0.00    -0.247 C  
ENDROOT
BRANCH   7   8
HETATM    8  N   UNL     4      -8.899  13.812  67.842  1.00  0.00    -0.176 NA 
BRANCH   8   9
HETATM    9  C   UNL     4      -7.997  12.725  68.234  1.00  0.00    -0.151 C  
BRANCH   9  10
HETATM   10  C   UNL     4      -8.073  11.422  67.437  1.00  0.00    -0.142 C  
BRANCH  10  11
HETATM   11  N   UNL     4      -8.302  10.216  68.272  1.00  0.00    -0.113 NA 
BRANCH  11  12
HETATM   12  C   UNL     4      -9.543  10.284  69.108  1.00  0.00    -0.218 C  
HETATM   13  O   UNL     4     -10.037   8.652  70.823  1.00  0.00    -0.184 OA 
HETATM   14  O   UNL     4      -8.042   9.814  70.882  1.00  0.00    -0.252 OA 
HETATM   15  C   UNL     4      -9.221   9.528  70.446  1.00  0.00    -0.253 C  
ENDBRANCH  11  12
BRANCH  11  16
HETATM   16  C   UNL     4      -8.355   8.992  67.393  1.00  0.00    -0.112 C  
HETATM   17  C   UNL     4      -6.891   8.734  66.928  1.00  0.00    -0.070 C  
HETATM   18  O   UNL     4      -6.689   8.864  65.687  1.00  0.00    -0.070 OA 
HETATM   19  O   UNL     4      -6.068   8.720  67.920  1.00  0.00    -0.049 OA 
ENDBRANCH  11  16
ENDBRANCH  10  11
ENDBRANCH   9  10
ENDBRANCH   8   9
BRANCH   8  20
HETATM   20  C   UNL     4      -8.122  14.721  66.902  1.00  0.00    -0.048 C  
HETATM   21  C   UNL     4      -7.160  15.761  67.599  1.00  0.00    -0.168 C  
HETATM   22  O   UNL     4      -6.085  15.986  66.968  1.00  0.00    -0.324 OA 
HETATM   23  O   UNL     4      -7.535  16.275  68.708  1.00  0.00    -0.170 OA 
ENDBRANCH   8  20
ENDBRANCH   7   8
TORSDOF 7
ENDMDL
MODEL      320
REMARK 921   NORMALIZED FREE ENERGY PREDICTED BY IDOCK:   -2.98 KCAL/MOL
REMARK 922        TOTAL FREE ENERGY PREDICTED BY IDOCK:   -5.64 KCAL/MOL
REMARK 923 INTER-LIGAND FREE ENERGY PREDICTED BY IDOCK:   -4.74 KCAL/MOL
REMARK 924 INTRA-LIGAND FREE ENERGY PREDICTED BY IDOCK:   -0.90 KCAL/MOL
REMARK 927      BINDING AFFINITY PREDICTED BY RF-SCORE:    0.00 PKD
ROOT
HETATM    1 NA   UNL     1     -12.786   6.592  69.087  1.00  0.00    -0.484 Na 
HETATM    2 NA   UNL     2     -11.811   4.859  64.930  1.00  0.00    -0.663 Na 
HETATM    3 CA   UNL     3      -8.770   3.693  71.461  1.00  0.00    -0.077 Ca 
HETATM    4  O   UNL     4     -11.255   7.153  67.850  1.00  0.00    -0.048 OA 
HETATM    5  C   UNL     4     -10.414   6.456  67.211  1.00  0.00    -0.263 C  
HETATM    6  O   UNL     4     -10.768   5.497  66.443  1.00  0.00    -0.281 OA 
HETATM    7  C   UNL     4      -8.896   6.702  67.308  1.00  0.00    -0.116 C  
ENDROOT
BRANCH   7   8
HETATM    8  N   UNL     4      -8.361   7.470  68.467  1.00  0.00    -0.125 NA 
BRANCH   8   9
HETATM    9  C   UNL     4      -8.001   6.760  69.698  1.00  0.00    -0.124 C  
BRANCH   9  10
HETATM   10  C   UNL     4      -9.142   6.182  70.538  1.00  0.00    -0.154 C  
BRANCH  10  11
HETATM   11  N   UNL     4      -9.730   7.147  71.501  1.00  0.00    -0.164 NA 
BRANCH  11  12
HETATM   12  C   UNL     4     -11.196   7.383  71.304  1.00  0.00    -0.252 C  
HETATM   13  O   UNL     4     -12.264   9.460  71.931  1.00  0.00    -0.365 OA 
HETATM   14  O   UNL     4     -10.465   9.485  70.484  1.00  0.00    -0.252 OA 
HETATM   15  C   UNL     4     -11.385   8.939  71.203  1.00  0.00    -0.291 C  
ENDBRANCH  11  12
BRANCH  11  16
HETATM   16  C   UNL     4      -9.483   6.670  72.911  1.00  0.00    -0.138 C  
HETATM   17  C   UNL     4      -8.234   7.452  73.415  1.00  0.00    -0.119 C  
HETATM   18  O   UNL     4      -7.214   6.743  73.651  1.00  0.00    -0.079 OA 
HETATM   19  O   UNL     4      -8.353   8.722  73.227  1.00  0.00    -0.389 OA 
ENDBRANCH  11  16
ENDBRANCH  10  11
ENDBRANCH   9  10
ENDBRANCH   8   9
BRANCH   8  20
HETATM   20  C   UNL     4      -7.114   8.198  67.989  1.00  0.00    -0.086 C  
HETATM   21  C   UNL     4      -7.368   9.543  67.202  1.00  0.00    -0.088 C  
HETATM   22  O   UNL     4      -6.505  10.446  67.413  1.00  0.00    -0.064 OA 
HETATM   23  O   UNL     4      -8.393   9.607  66.439  1.00  0.00    -0.118 OA 
ENDBRANCH   8  20
ENDBRANCH   7   8
TORSDOF 7
ENDMDL
MODEL      321
REMARK 921   NORMALIZED FREE ENERGY PREDICTED BY IDOCK:   -2.97 KCAL/MOL
REMARK 922        TOTAL FREE ENERGY PREDICTED BY IDOCK:   -5.63 KCAL/MOL
REMARK 923 INTER-LIGAND FREE ENERGY PREDICTED BY IDOCK:   -4.95 KCAL/MOL
REMARK 924 INTRA-LIGAND FREE ENERGY PREDICTED BY IDOCK:   -0.68 KCAL/MOL
REMARK 927      BINDING AFFINITY PREDICTED BY RF-SCORE:    0.00 PKD
ROOT
HETATM    1 NA   UNL     1      -8.282  15.038  69.027  1.00  0.00    -0.121 Na 
HETATM    2 NA   UNL     2     -11.076  17.635  66.441  1.00  0.00    -0.289 Na 
HETATM    3 CA   UNL     3     -12.422  11.789  70.597  1.00  0.00    -0.261 Ca 
HETATM    4  O   UNL     4      -9.012  14.584  67.170  1.00  0.00    -0.207 OA 
HETATM    5  C   UNL     4     -10.187  14.661  66.705  1.00  0.00    -0.268 C  
HETATM    6  O   UNL     4     -10.883  15.730  66.786  1.00  0.00    -0.316 OA 
HETATM    7  C   UNL     4     -10.876  13.473  66.005  1.00  0.00    -0.278 C  
ENDROOT
BRANCH   7   8
HETATM    8  N   UNL     4     -10.354  12.097  66.235  1.00  0.00    -0.217 NA 
BRANCH   8   9
HETATM    9  C   UNL     4     -10.691  11.397  67.479  1.00  0.00    -0.222 C  
BRANCH   9  10
HETATM   10  C   UNL     4     -10.136   9.984  67.665  1.00  0.00    -0.190 C  
BRANCH  10  11
HETATM   11  N   UNL     4      -9.139   9.866  68.759  1.00  0.00    -0.141 NA 
BRANCH  11  12
HETATM   12  C   UNL     4      -8.207  11.035  68.858  1.00  0.00    -0.127 C  
HETATM   13  O   UNL     4      -6.462  11.156  70.527  1.00  0.00    -0.306 OA 
HETATM   14  O   UNL     4      -6.560   9.346  69.097  1.00  0.00    -0.048 OA 
HETATM   15  C   UNL     4      -6.901  10.504  69.549  1.00  0.00    -0.098 C  
ENDBRANCH  11  12
BRANCH  11  16
HETATM   16  C   UNL     4      -9.851   9.679  70.075  1.00  0.00    -0.246 C  
HETATM   17  C   UNL     4     -10.108   8.149  70.210  1.00  0.00    -0.192 C  
HETATM   18  O   UNL     4     -11.324   7.803  70.203  1.00  0.00    -0.225 OA 
HETATM   19  O   UNL     4      -9.035   7.462  70.008  1.00  0.00    -0.144 OA 
ENDBRANCH  11  16
ENDBRANCH  10  11
ENDBRANCH   9  10
ENDBRANCH   8   9
BRANCH   8  20
HETATM   20  C   UNL     4     -10.843  11.230  65.086  1.00  0.00    -0.200 C  
HETATM   21  C   UNL     4     -10.081  11.417  63.717  1.00  0.00    -0.362 C  
HETATM   22  O   UNL     4      -9.947  10.354  63.041  1.00  0.00    -0.237 OA 
HETATM   23  O   UNL     4      -9.675  12.591  63.411  1.00  0.00    -0.253 OA 
ENDBRANCH   8  20
ENDBRANCH   7   8
TORSDOF 7
ENDMDL
MODEL      322
REMARK 921   NORMALIZED FREE ENERGY PREDICTED BY IDOCK:   -2.96 KCAL/MOL
REMARK 922        TOTAL FREE ENERGY PREDICTED BY IDOCK:   -5.61 KCAL/MOL
REMARK 923 INTER-LIGAND FREE ENERGY PREDICTED BY IDOCK:   -6.90 KCAL/MOL
REMARK 924 INTRA-LIGAND FREE ENERGY PREDICTED BY IDOCK:    1.29 KCAL/MOL
REMARK 927      BINDING AFFINITY PREDICTED BY RF-SCORE:    0.00 PKD
ROOT
HETATM    1 NA   UNL     1     -12.569  12.516  70.667  1.00  0.00    -0.283 Na 
HETATM    2 NA   UNL     2     -11.749   8.580  72.919  1.00  0.00    -0.340 Na 
HETATM    3 CA   UNL     3      -7.236  13.829  70.606  1.00  0.00    -0.359 Ca 
HETATM    4  O   UNL     4     -11.851  10.772  69.872  1.00  0.00    -0.280 OA 
HETATM    5  C   UNL     4     -10.929  10.003  70.271  1.00  0.00    -0.316 C  
HETATM    6  O   UNL     4     -10.891   9.547  71.465  1.00  0.00    -0.355 OA 
HETATM    7  C   UNL     4      -9.776   9.552  69.353  1.00  0.00    -0.183 C  
ENDROOT
BRANCH   7   8
HETATM    8  N   UNL     4      -9.483  10.339  68.123  1.00  0.00    -0.145 NA 
BRANCH   8   9
HETATM    9  C   UNL     4      -9.997  11.707  68.003  1.00  0.00    -0.188 C  
BRANCH   9  10
HETATM   10  C   UNL     4     -11.009  11.986  66.890  1.00  0.00    -0.281 C  
BRANCH  10  11
HETATM   11  N   UNL     4     -10.894  13.342  66.296  1.00  0.00    -0.283 NA 
BRANCH  11  12
HETATM   12  C   UNL     4     -10.923  13.353  64.799  1.00  0.00    -0.360 C  
HETATM   13  O   UNL     4     -12.678  12.274  63.533  1.00  0.00    -0.729 OA 
HETATM   14  O   UNL     4     -13.216  13.860  65.123  1.00  0.00    -0.768 OA 
HETATM   15  C   UNL     4     -12.425  13.163  64.382  1.00  0.00    -0.310 C  
ENDBRANCH  11  12
BRANCH  11  16
HETATM   16  C   UNL     4     -11.997  14.223  66.827  1.00  0.00    -0.436 C  
HETATM   17  C   UNL     4     -11.485  14.779  68.188  1.00  0.00    -0.323 C  
HETATM   18  O   UNL     4     -12.134  14.399  69.204  1.00  0.00    -0.318 OA 
HETATM   19  O   UNL     4     -10.307  15.294  68.085  1.00  0.00    -0.237 OA 
ENDBRANCH  11  16
ENDBRANCH  10  11
ENDBRANCH   9  10
ENDBRANCH   8   9
BRANCH   8  20
HETATM   20  C   UNL     4      -7.971  10.415  67.984  1.00  0.00    -0.105 C  
HETATM   21  C   UNL     4      -7.395  10.029  66.566  1.00  0.00    -0.101 C  
HETATM   22  O   UNL     4      -6.382  10.701  66.210  1.00  0.00    -0.098 OA 
HETATM   23  O   UNL     4      -7.980   9.097  65.914  1.00  0.00    -0.103 OA 
ENDBRANCH   8  20
ENDBRANCH   7   8
TORSDOF 7
ENDMDL
MODEL      323
REMARK 921   NORMALIZED FREE ENERGY PREDICTED BY IDOCK:   -2.96 KCAL/MOL
REMARK 922        TOTAL FREE ENERGY PREDICTED BY IDOCK:   -5.61 KCAL/MOL
REMARK 923 INTER-LIGAND FREE ENERGY PREDICTED BY IDOCK:   -5.27 KCAL/MOL
REMARK 924 INTRA-LIGAND FREE ENERGY PREDICTED BY IDOCK:   -0.34 KCAL/MOL
REMARK 927      BINDING AFFINITY PREDICTED BY RF-SCORE:    0.00 PKD
ROOT
HETATM    1 NA   UNL     1      -9.322   8.265  71.072  1.00  0.00    -0.135 Na 
HETATM    2 NA   UNL     2     -13.588   6.927  72.189  1.00  0.00    -0.317 Na 
HETATM    3 CA   UNL     3     -10.996  10.259  66.235  1.00  0.00    -0.226 Ca 
HETATM    4  O   UNL     4     -10.842   9.451  71.759  1.00  0.00    -0.354 OA 
HETATM    5  C   UNL     4     -12.055   9.523  71.406  1.00  0.00    -0.378 C  
HETATM    6  O   UNL     4     -12.807   8.492  71.337  1.00  0.00    -0.310 OA 
HETATM    7  C   UNL     4     -12.725  10.859  71.027  1.00  0.00    -0.407 C  
ENDROOT
BRANCH   7   8
HETATM    8  N   UNL     4     -11.867  12.018  70.656  1.00  0.00    -0.158 NA 
BRANCH   8   9
HETATM    9  C   UNL     4     -11.044  11.947  69.445  1.00  0.00    -0.153 C  
BRANCH   9  10
HETATM   10  C   UNL     4     -11.079  10.644  68.644  1.00  0.00    -0.263 C  
BRANCH  10  11
HETATM   11  N   UNL     4      -9.737  10.128  68.273  1.00  0.00    -0.139 NA 
BRANCH  11  12
HETATM   12  C   UNL     4      -8.605  10.846  68.941  1.00  0.00    -0.140 C  
HETATM   13  O   UNL     4      -6.384  10.924  67.989  1.00  0.00    -0.056 OA 
HETATM   14  O   UNL     4      -8.191  11.655  66.751  1.00  0.00    -0.164 OA 
HETATM   15  C   UNL     4      -7.588  11.226  67.806  1.00  0.00    -0.104 C  
ENDBRANCH  11  12
BRANCH  11  16
HETATM   16  C   UNL     4      -9.654   8.656  68.591  1.00  0.00    -0.155 C  
HETATM   17  C   UNL     4      -9.682   7.919  67.219  1.00  0.00    -0.176 C  
HETATM   18  O   UNL     4     -10.697   7.193  67.018  1.00  0.00    -0.327 OA 
HETATM   19  O   UNL     4      -8.814   8.402  66.397  1.00  0.00    -0.136 OA 
ENDBRANCH  11  16
ENDBRANCH  10  11
ENDBRANCH   9  10
ENDBRANCH   8   9
BRANCH   8  20
HETATM   20  C   UNL     4     -12.778  13.226  70.507  1.00  0.00    -0.099 C  
HETATM   21  C   UNL     4     -13.001  14.079  71.817  1.00  0.00    -0.353 C  
HETATM   22  O   UNL     4     -13.108  15.326  71.620  1.00  0.00    -0.359 OA 
HETATM   23  O   UNL     4     -13.054  13.460  72.935  1.00  0.00    -0.358 OA 
ENDBRANCH   8  20
ENDBRANCH   7   8
TORSDOF 7
ENDMDL
MODEL      324
REMARK 921   NORMALIZED FREE ENERGY PREDICTED BY IDOCK:   -2.95 KCAL/MOL
REMARK 922        TOTAL FREE ENERGY PREDICTED BY IDOCK:   -5.60 KCAL/MOL
REMARK 923 INTER-LIGAND FREE ENERGY PREDICTED BY IDOCK:   -5.06 KCAL/MOL
REMARK 924 INTRA-LIGAND FREE ENERGY PREDICTED BY IDOCK:   -0.54 KCAL/MOL
REMARK 927      BINDING AFFINITY PREDICTED BY RF-SCORE:    0.00 PKD
ROOT
HETATM    1 NA   UNL     1      -8.768   5.644  70.783  1.00  0.00    -0.112 Na 
HETATM    2 NA   UNL     2     -12.571   5.229  73.352  1.00  0.00    -0.529 Na 
HETATM    3 CA   UNL     3     -11.701   6.337  66.192  1.00  0.00    -0.580 Ca 
HETATM    4  O   UNL     4      -9.979   7.157  71.440  1.00  0.00    -0.187 OA 
HETATM    5  C   UNL     4     -11.239   7.274  71.417  1.00  0.00    -0.248 C  
HETATM    6  O   UNL     4     -12.015   6.369  71.878  1.00  0.00    -0.329 OA 
HETATM    7  C   UNL     4     -11.942   8.514  70.830  1.00  0.00    -0.181 C  
ENDROOT
BRANCH   7   8
HETATM    8  N   UNL     4     -11.187   9.400  69.901  1.00  0.00    -0.201 NA 
BRANCH   8   9
HETATM    9  C   UNL     4     -10.744   8.874  68.605  1.00  0.00    -0.078 C  
BRANCH   9  10
HETATM   10  C   UNL     4      -9.362   9.300  68.107  1.00  0.00    -0.134 C  
BRANCH  10  11
HETATM   11  N   UNL     4      -8.714   8.311  67.209  1.00  0.00    -0.123 NA 
BRANCH  11  12
HETATM   12  C   UNL     4      -7.523   8.847  66.475  1.00  0.00    -0.088 C  
HETATM   13  O   UNL     4      -7.083   8.307  64.159  1.00  0.00    -0.079 OA 
HETATM   14  O   UNL     4      -9.108   9.242  64.756  1.00  0.00    -0.212 OA 
HETATM   15  C   UNL     4      -7.900   8.838  64.950  1.00  0.00    -0.120 C  
ENDBRANCH  11  12
BRANCH  11  16
HETATM   16  C   UNL     4      -8.308   7.094  68.002  1.00  0.00    -0.119 C  
HETATM   17  C   UNL     4      -9.215   5.932  67.499  1.00  0.00    -0.108 C  
HETATM   18  O   UNL     4     -10.019   5.466  68.356  1.00  0.00    -0.143 OA 
HETATM   19  O   UNL     4      -9.204   5.837  66.213  1.00  0.00    -0.152 OA 
ENDBRANCH  11  16
ENDBRANCH  10  11
ENDBRANCH   9  10
ENDBRANCH   8   9
BRANCH   8  20
HETATM   20  C   UNL     4     -12.063  10.609  69.616  1.00  0.00    -0.240 C  
HETATM   21  C   UNL     4     -12.552  11.411  70.885  1.00  0.00    -0.356 C  
HETATM   22  O   UNL     4     -12.631  12.664  70.716  1.00  0.00    -0.306 OA 
HETATM   23  O   UNL     4     -12.820  10.750  71.947  1.00  0.00    -0.436 OA 
ENDBRANCH   8  20
ENDBRANCH   7   8
TORSDOF 7
ENDMDL
MODEL      325
REMARK 921   NORMALIZED FREE ENERGY PREDICTED BY IDOCK:   -2.95 KCAL/MOL
REMARK 922        TOTAL FREE ENERGY PREDICTED BY IDOCK:   -5.60 KCAL/MOL
REMARK 923 INTER-LIGAND FREE ENERGY PREDICTED BY IDOCK:   -4.93 KCAL/MOL
REMARK 924 INTRA-LIGAND FREE ENERGY PREDICTED BY IDOCK:   -0.67 KCAL/MOL
REMARK 927      BINDING AFFINITY PREDICTED BY RF-SCORE:    0.00 PKD
ROOT
HETATM    1 NA   UNL     1     -11.241  17.915  66.469  1.00  0.00    -0.259 Na 
HETATM    2 NA   UNL     2     -13.727  16.147  69.922  1.00  0.00    -0.731 Na 
HETATM    3 CA   UNL     3      -6.917  18.766  69.747  1.00  0.00    -0.262 Ca 
HETATM    4  O   UNL     4     -11.094  16.029  67.248  1.00  0.00    -0.257 OA 
HETATM    5  C   UNL     4     -11.030  15.636  68.450  1.00  0.00    -0.308 C  
HETATM    6  O   UNL     4     -11.879  16.002  69.332  1.00  0.00    -0.325 OA 
HETATM    7  C   UNL     4      -9.922  14.687  68.949  1.00  0.00    -0.228 C  
ENDROOT
BRANCH   7   8
HETATM    8  N   UNL     4      -8.673  14.552  68.150  1.00  0.00    -0.164 NA 
BRANCH   8   9
HETATM    9  C   UNL     4      -8.707  13.823  66.878  1.00  0.00    -0.154 C  
BRANCH   9  10
HETATM   10  C   UNL     4      -9.569  12.561  66.810  1.00  0.00    -0.231 C  
BRANCH  10  11
HETATM   11  N   UNL     4      -8.798  11.318  66.555  1.00  0.00    -0.174 NA 
BRANCH  11  12
HETATM   12  C   UNL     4      -8.927  10.802  65.154  1.00  0.00    -0.198 C  
HETATM   13  O   UNL     4      -8.506   8.489  64.587  1.00  0.00    -0.166 OA 
HETATM   14  O   UNL     4     -10.060   9.009  66.215  1.00  0.00    -0.295 OA 
HETATM   15  C   UNL     4      -9.217   9.264  65.273  1.00  0.00    -0.212 C  
ENDBRANCH  11  12
BRANCH  11  16
HETATM   16  C   UNL     4      -7.342  11.549  66.873  1.00  0.00    -0.140 C  
HETATM   17  C   UNL     4      -7.087  10.857  68.244  1.00  0.00    -0.075 C  
HETATM   18  O   UNL     4      -6.786  11.636  69.193  1.00  0.00    -0.092 OA 
HETATM   19  O   UNL     4      -7.515   9.641  68.255  1.00  0.00    -0.077 OA 
ENDBRANCH  11  16
ENDBRANCH  10  11
ENDBRANCH   9  10
ENDBRANCH   8   9
BRANCH   8  20
HETATM   20  C   UNL     4      -8.175  15.957  67.848  1.00  0.00    -0.145 C  
HETATM   21  C   UNL     4      -6.620  16.095  67.618  1.00  0.00    -0.155 C  
HETATM   22  O   UNL     4      -6.292  16.954  66.747  1.00  0.00    -0.183 OA 
HETATM   23  O   UNL     4      -5.842  15.352  68.311  1.00  0.00    -0.101 OA 
ENDBRANCH   8  20
ENDBRANCH   7   8
TORSDOF 7
ENDMDL
MODEL      326
REMARK 921   NORMALIZED FREE ENERGY PREDICTED BY IDOCK:   -2.93 KCAL/MOL
REMARK 922        TOTAL FREE ENERGY PREDICTED BY IDOCK:   -5.58 KCAL/MOL
REMARK 923 INTER-LIGAND FREE ENERGY PREDICTED BY IDOCK:   -4.69 KCAL/MOL
REMARK 924 INTRA-LIGAND FREE ENERGY PREDICTED BY IDOCK:   -0.89 KCAL/MOL
REMARK 927      BINDING AFFINITY PREDICTED BY RF-SCORE:    0.00 PKD
ROOT
HETATM    1 NA   UNL     1     -10.200  11.624  70.125  1.00  0.00    -0.408 Na 
HETATM    2 NA   UNL     2     -14.275  12.145  72.213  1.00  0.00    -0.288 Na 
HETATM    3 CA   UNL     3      -8.025   9.175  74.534  1.00  0.00    -0.200 Ca 
HETATM    4  O   UNL     4     -11.635  10.190  70.395  1.00  0.00    -0.273 OA 
HETATM    5  C   UNL     4     -12.297   9.871  71.425  1.00  0.00    -0.404 C  
HETATM    6  O   UNL     4     -12.940  10.733  72.116  1.00  0.00    -0.424 OA 
HETATM    7  C   UNL     4     -12.382   8.418  71.934  1.00  0.00    -0.347 C  
ENDROOT
BRANCH   7   8
HETATM    8  N   UNL     4     -11.355   7.436  71.487  1.00  0.00    -0.251 NA 
BRANCH   8   9
HETATM    9  C   UNL     4     -10.914   6.385  72.409  1.00  0.00    -0.250 C  
BRANCH   9  10
HETATM   10  C   UNL     4     -10.367   5.094  71.798  1.00  0.00    -0.209 C  
BRANCH  10  11
HETATM   11  N   UNL     4      -8.891   4.961  71.891  1.00  0.00    -0.127 NA 
BRANCH  11  12
HETATM   12  C   UNL     4      -8.165   6.271  71.922  1.00  0.00    -0.110 C  
HETATM   13  O   UNL     4      -5.880   6.498  71.165  1.00  0.00    -0.027 OA 
HETATM   14  O   UNL     4      -7.479   5.626  69.746  1.00  0.00    -0.071 OA 
HETATM   15  C   UNL     4      -7.046   6.184  70.824  1.00  0.00    -0.069 C  
ENDBRANCH  11  12
BRANCH  11  16
HETATM   16  C   UNL     4      -8.530   4.158  73.116  1.00  0.00    -0.093 C  
HETATM   17  C   UNL     4      -8.476   2.672  72.654  1.00  0.00    -0.070 C  
HETATM   18  O   UNL     4      -9.348   1.915  73.167  1.00  0.00    -0.072 OA 
HETATM   19  O   UNL     4      -7.741   2.522  71.605  1.00  0.00    -0.043 OA 
ENDBRANCH  11  16
ENDBRANCH  10  11
ENDBRANCH   9  10
ENDBRANCH   8   9
BRANCH   8  20
HETATM   20  C   UNL     4     -11.902   6.743  70.249  1.00  0.00    -0.301 C  
HETATM   21  C   UNL     4     -11.032   6.895  68.940  1.00  0.00    -0.168 C  
HETATM   22  O   UNL     4     -11.027   5.874  68.191  1.00  0.00    -0.274 OA 
HETATM   23  O   UNL     4     -10.424   8.004  68.751  1.00  0.00    -0.208 OA 
ENDBRANCH   8  20
ENDBRANCH   7   8
TORSDOF 7
ENDMDL
MODEL      327
REMARK 921   NORMALIZED FREE ENERGY PREDICTED BY IDOCK:   -2.93 KCAL/MOL
REMARK 922        TOTAL FREE ENERGY PREDICTED BY IDOCK:   -5.57 KCAL/MOL
REMARK 923 INTER-LIGAND FREE ENERGY PREDICTED BY IDOCK:   -6.98 KCAL/MOL
REMARK 924 INTRA-LIGAND FREE ENERGY PREDICTED BY IDOCK:    1.41 KCAL/MOL
REMARK 927      BINDING AFFINITY PREDICTED BY RF-SCORE:    0.00 PKD
ROOT
HETATM    1 NA   UNL     1     -10.875  14.907  63.399  1.00  0.00    -0.071 Na 
HETATM    2 NA   UNL     2     -12.971  10.941  62.341  1.00  0.00    -0.953 Na 
HETATM    3 CA   UNL     3     -12.788  14.778  68.546  1.00  0.00    -0.535 Ca 
HETATM    4  O   UNL     4     -10.255  13.020  63.890  1.00  0.00    -0.378 OA 
HETATM    5  C   UNL     4     -10.893  12.044  64.383  1.00  0.00    -0.329 C  
HETATM    6  O   UNL     4     -11.987  11.620  63.876  1.00  0.00    -0.345 OA 
HETATM    7  C   UNL     4     -10.407  11.289  65.636  1.00  0.00    -0.256 C  
ENDROOT
BRANCH   7   8
HETATM    8  N   UNL     4      -9.420  11.946  66.537  1.00  0.00    -0.212 NA 
BRANCH   8   9
HETATM    9  C   UNL     4      -9.480  13.398  66.735  1.00  0.00    -0.261 C  
BRANCH   9  10
HETATM   10  C   UNL     4      -8.275  14.069  67.397  1.00  0.00    -0.190 C  
BRANCH  10  11
HETATM   11  N   UNL     4      -8.216  15.538  67.191  1.00  0.00    -0.196 NA 
BRANCH  11  12
HETATM   12  C   UNL     4      -9.202  16.306  68.017  1.00  0.00    -0.196 C  
HETATM   13  O   UNL     4      -9.286  18.723  68.011  1.00  0.00    -0.291 OA 
HETATM   14  O   UNL     4      -9.473  17.562  66.024  1.00  0.00    -0.475 OA 
HETATM   15  C   UNL     4      -9.395  17.692  67.304  1.00  0.00    -0.249 C  
ENDBRANCH  11  12
BRANCH  11  16
HETATM   16  C   UNL     4      -6.822  16.036  67.483  1.00  0.00    -0.176 C  
HETATM   17  C   UNL     4      -6.725  16.156  69.032  1.00  0.00    -0.170 C  
HETATM   18  O   UNL     4      -6.576  17.330  69.475  1.00  0.00    -0.242 OA 
HETATM   19  O   UNL     4      -7.108  15.075  69.623  1.00  0.00    -0.176 OA 
ENDBRANCH  11  16
ENDBRANCH  10  11
ENDBRANCH   9  10
ENDBRANCH   8   9
BRANCH   8  20
HETATM   20  C   UNL     4      -9.560  11.302  67.908  1.00  0.00    -0.178 C  
HETATM   21  C   UNL     4     -10.975  10.677  68.226  1.00  0.00    -0.263 C  
HETATM   22  O   UNL     4     -10.937   9.622  68.925  1.00  0.00    -0.202 OA 
HETATM   23  O   UNL     4     -12.010  11.271  67.767  1.00  0.00    -0.637 OA 
ENDBRANCH   8  20
ENDBRANCH   7   8
TORSDOF 7
ENDMDL
MODEL      328
REMARK 921   NORMALIZED FREE ENERGY PREDICTED BY IDOCK:   -2.92 KCAL/MOL
REMARK 922        TOTAL FREE ENERGY PREDICTED BY IDOCK:   -5.56 KCAL/MOL
REMARK 923 INTER-LIGAND FREE ENERGY PREDICTED BY IDOCK:   -4.61 KCAL/MOL
REMARK 924 INTRA-LIGAND FREE ENERGY PREDICTED BY IDOCK:   -0.96 KCAL/MOL
REMARK 927      BINDING AFFINITY PREDICTED BY RF-SCORE:    0.00 PKD
ROOT
HETATM    1 NA   UNL     1      -9.761   9.877  69.216  1.00  0.00    -0.149 Na 
HETATM    2 NA   UNL     2     -12.920  12.164  71.671  1.00  0.00    -0.308 Na 
HETATM    3 CA   UNL     3      -7.233   8.091  73.753  1.00  0.00    -0.093 Ca 
HETATM    4  O   UNL     4     -11.393   9.084  70.162  1.00  0.00    -0.222 OA 
HETATM    5  C   UNL     4     -11.834   9.264  71.334  1.00  0.00    -0.358 C  
HETATM    6  O   UNL     4     -12.048  10.431  71.810  1.00  0.00    -0.268 OA 
HETATM    7  C   UNL     4     -12.148   8.093  72.286  1.00  0.00    -0.364 C  
ENDROOT
BRANCH   7   8
HETATM    8  N   UNL     4     -11.545   6.758  72.013  1.00  0.00    -0.278 NA 
BRANCH   8   9
HETATM    9  C   UNL     4     -11.410   6.299  70.627  1.00  0.00    -0.343 C  
BRANCH   9  10
HETATM   10  C   UNL     4     -10.129   5.551  70.253  1.00  0.00    -0.237 C  
BRANCH  10  11
HETATM   11  N   UNL     4      -9.189   6.343  69.421  1.00  0.00    -0.142 NA 
BRANCH  11  12
HETATM   12  C   UNL     4      -7.754   6.202  69.825  1.00  0.00    -0.097 C  
HETATM   13  O   UNL     4      -6.030   7.686  69.007  1.00  0.00    -0.032 OA 
HETATM   14  O   UNL     4      -7.882   8.556  70.077  1.00  0.00    -0.095 OA 
HETATM   15  C   UNL     4      -7.103   7.620  69.654  1.00  0.00    -0.064 C  
ENDBRANCH  11  12
BRANCH  11  16
HETATM   16  C   UNL     4      -9.343   5.953  67.972  1.00  0.00    -0.111 C  
HETATM   17  C   UNL     4     -10.185   7.083  67.310  1.00  0.00    -0.234 C  
HETATM   18  O   UNL     4     -11.324   6.731  66.890  1.00  0.00    -0.318 OA 
HETATM   19  O   UNL     4      -9.705   8.252  67.565  1.00  0.00    -0.151 OA 
ENDBRANCH  11  16
ENDBRANCH  10  11
ENDBRANCH   9  10
ENDBRANCH   8   9
BRANCH   8  20
HETATM   20  C   UNL     4     -10.152   6.759  72.621  1.00  0.00    -0.174 C  
HETATM   21  C   UNL     4      -9.795   5.505  73.512  1.00  0.00    -0.165 C  
HETATM   22  O   UNL     4      -8.588   5.130  73.431  1.00  0.00    -0.115 OA 
HETATM   23  O   UNL     4     -10.726   4.988  74.220  1.00  0.00    -0.289 OA 
ENDBRANCH   8  20
ENDBRANCH   7   8
TORSDOF 7
ENDMDL
MODEL      329
REMARK 921   NORMALIZED FREE ENERGY PREDICTED BY IDOCK:   -2.91 KCAL/MOL
REMARK 922        TOTAL FREE ENERGY PREDICTED BY IDOCK:   -5.54 KCAL/MOL
REMARK 923 INTER-LIGAND FREE ENERGY PREDICTED BY IDOCK:   -4.10 KCAL/MOL
REMARK 924 INTRA-LIGAND FREE ENERGY PREDICTED BY IDOCK:   -1.44 KCAL/MOL
REMARK 927      BINDING AFFINITY PREDICTED BY RF-SCORE:    0.00 PKD
ROOT
HETATM    1 NA   UNL     1     -11.660   5.076  66.394  1.00  0.00    -0.505 Na 
HETATM    2 NA   UNL     2     -10.227   9.074  64.606  1.00  0.00    -0.353 Na 
HETATM    3 CA   UNL     3      -6.683   3.974  68.438  1.00  0.00    -0.037 Ca 
HETATM    4  O   UNL     4     -11.364   6.836  67.397  1.00  0.00    -0.274 OA 
HETATM    5  C   UNL     4     -10.393   7.646  67.370  1.00  0.00    -0.277 C  
HETATM    6  O   UNL     4      -9.932   8.120  66.275  1.00  0.00    -0.207 OA 
HETATM    7  C   UNL     4      -9.684   8.128  68.651  1.00  0.00    -0.153 C  
ENDROOT
BRANCH   7   8
HETATM    8  N   UNL     4      -9.838   7.335  69.903  1.00  0.00    -0.177 NA 
BRANCH   8   9
HETATM    9  C   UNL     4      -9.245   5.997  69.985  1.00  0.00    -0.149 C  
BRANCH   9  10
HETATM   10  C   UNL     4     -10.085   4.892  70.628  1.00  0.00    -0.236 C  
BRANCH  10  11
HETATM   11  N   UNL     4      -9.291   3.900  71.396  1.00  0.00    -0.128 NA 
BRANCH  11  12
HETATM   12  C   UNL     4      -9.659   3.820  72.846  1.00  0.00    -0.126 C  
HETATM   13  O   UNL     4      -8.050   3.242  74.556  1.00  0.00    -0.068 OA 
HETATM   14  O   UNL     4      -7.635   5.019  73.141  1.00  0.00    -0.090 OA 
HETATM   15  C   UNL     4      -8.336   4.067  73.654  1.00  0.00    -0.089 C  
ENDBRANCH  11  12
BRANCH  11  16
HETATM   16  C   UNL     4      -9.434   2.538  70.765  1.00  0.00    -0.140 C  
HETATM   17  C   UNL     4      -8.128   2.303  69.950  1.00  0.00    -0.041 C  
HETATM   18  O   UNL     4      -8.282   2.222  68.698  1.00  0.00    -0.055 OA 
HETATM   19  O   UNL     4      -7.074   2.525  70.658  1.00  0.00    -0.033 OA 
ENDBRANCH  11  16
ENDBRANCH  10  11
ENDBRANCH   9  10
ENDBRANCH   8   9
BRANCH   8  20
HETATM   20  C   UNL     4      -9.243   8.158  71.035  1.00  0.00    -0.152 C  
HETATM   21  C   UNL     4      -9.997   8.062  72.418  1.00  0.00    -0.251 C  
HETATM   22  O   UNL     4      -9.240   8.103  73.433  1.00  0.00    -0.265 OA 
HETATM   23  O   UNL     4     -11.272   7.955  72.400  1.00  0.00    -0.295 OA 
ENDBRANCH   8  20
ENDBRANCH   7   8
TORSDOF 7
ENDMDL
MODEL      330
REMARK 921   NORMALIZED FREE ENERGY PREDICTED BY IDOCK:   -2.90 KCAL/MOL
REMARK 922        TOTAL FREE ENERGY PREDICTED BY IDOCK:   -5.53 KCAL/MOL
REMARK 923 INTER-LIGAND FREE ENERGY PREDICTED BY IDOCK:   -4.80 KCAL/MOL
REMARK 924 INTRA-LIGAND FREE ENERGY PREDICTED BY IDOCK:   -0.73 KCAL/MOL
REMARK 927      BINDING AFFINITY PREDICTED BY RF-SCORE:    0.00 PKD
ROOT
HETATM    1 NA   UNL     1     -12.533  12.675  67.004  1.00  0.00    -0.351 Na 
HETATM    2 NA   UNL     2     -13.677  12.185  71.440  1.00  0.00    -0.331 Na 
HETATM    3 CA   UNL     3      -7.437  14.275  68.285  1.00  0.00    -0.091 Ca 
HETATM    4  O   UNL     4     -12.042  11.116  68.235  1.00  0.00    -0.620 OA 
HETATM    5  C   UNL     4     -11.573  11.110  69.410  1.00  0.00    -0.318 C  
HETATM    6  O   UNL     4     -12.112  11.773  70.361  1.00  0.00    -0.350 OA 
HETATM    7  C   UNL     4     -10.315  10.306  69.793  1.00  0.00    -0.246 C  
ENDROOT
BRANCH   7   8
HETATM    8  N   UNL     4      -9.383   9.868  68.716  1.00  0.00    -0.151 NA 
BRANCH   8   9
HETATM    9  C   UNL     4      -9.914   9.151  67.552  1.00  0.00    -0.205 C  
BRANCH   9  10
HETATM   10  C   UNL     4     -10.635   7.826  67.808  1.00  0.00    -0.185 C  
BRANCH  10  11
HETATM   11  N   UNL     4      -9.738   6.643  67.816  1.00  0.00    -0.122 NA 
BRANCH  11  12
HETATM   12  C   UNL     4      -8.914   6.499  66.574  1.00  0.00    -0.143 C  
HETATM   13  O   UNL     4      -8.067   4.360  65.827  1.00  0.00    -0.101 OA 
HETATM   14  O   UNL     4     -10.332   4.639  66.182  1.00  0.00    -0.269 OA 
HETATM   15  C   UNL     4      -9.104   5.019  66.084  1.00  0.00    -0.138 C  
ENDBRANCH  11  12
BRANCH  11  16
HETATM   16  C   UNL     4      -8.829   6.704  69.018  1.00  0.00    -0.128 C  
HETATM   17  C   UNL     4      -9.658   6.146  70.212  1.00  0.00    -0.163 C  
HETATM   18  O   UNL     4      -9.911   6.980  71.128  1.00  0.00    -0.184 OA 
HETATM   19  O   UNL     4     -10.201   5.011  69.931  1.00  0.00    -0.259 OA 
ENDBRANCH  11  16
ENDBRANCH  10  11
ENDBRANCH   9  10
ENDBRANCH   8   9
BRANCH   8  20
HETATM   20  C   UNL     4      -8.680  11.111  68.194  1.00  0.00    -0.144 C  
HETATM   21  C   UNL     4      -7.197  11.317  68.695  1.00  0.00    -0.098 C  
HETATM   22  O   UNL     4      -6.420  11.830  67.836  1.00  0.00    -0.060 OA 
HETATM   23  O   UNL     4      -6.912  10.960  69.890  1.00  0.00    -0.147 OA 
ENDBRANCH   8  20
ENDBRANCH   7   8
TORSDOF 7
ENDMDL
MODEL      331
REMARK 921   NORMALIZED FREE ENERGY PREDICTED BY IDOCK:   -2.90 KCAL/MOL
REMARK 922        TOTAL FREE ENERGY PREDICTED BY IDOCK:   -5.53 KCAL/MOL
REMARK 923 INTER-LIGAND FREE ENERGY PREDICTED BY IDOCK:   -6.23 KCAL/MOL
REMARK 924 INTRA-LIGAND FREE ENERGY PREDICTED BY IDOCK:    0.70 KCAL/MOL
REMARK 927      BINDING AFFINITY PREDICTED BY RF-SCORE:    0.00 PKD
ROOT
HETATM    1 NA   UNL     1     -13.543  16.182  69.332  1.00  0.00    -0.541 Na 
HETATM    2 NA   UNL     2      -9.882  18.961  69.002  1.00  0.00    -0.297 Na 
HETATM    3 CA   UNL     3     -13.205  14.773  64.034  1.00  0.00    -0.571 Ca 
HETATM    4  O   UNL     4     -11.574  15.623  69.307  1.00  0.00    -0.319 OA 
HETATM    5  C   UNL     4     -10.629  15.972  68.541  1.00  0.00    -0.268 C  
HETATM    6  O   UNL     4     -10.348  17.200  68.321  1.00  0.00    -0.313 OA 
HETATM    7  C   UNL     4      -9.739  14.947  67.811  1.00  0.00    -0.212 C  
ENDROOT
BRANCH   7   8
HETATM    8  N   UNL     4     -10.230  13.551  67.647  1.00  0.00    -0.236 NA 
BRANCH   8   9
HETATM    9  C   UNL     4     -10.333  12.681  68.823  1.00  0.00    -0.112 C  
BRANCH   9  10
HETATM   10  C   UNL     4      -9.566  11.357  68.790  1.00  0.00    -0.129 C  
BRANCH  10  11
HETATM   11  N   UNL     4      -8.749  11.165  67.566  1.00  0.00    -0.128 NA 
BRANCH  11  12
HETATM   12  C   UNL     4      -7.392  11.796  67.637  1.00  0.00    -0.119 C  
HETATM   13  O   UNL     4      -6.206  12.076  69.725  1.00  0.00    -0.125 OA 
HETATM   14  O   UNL     4      -6.926   9.977  69.085  1.00  0.00    -0.053 OA 
HETATM   15  C   UNL     4      -6.710  11.240  68.937  1.00  0.00    -0.081 C  
ENDBRANCH  11  12
BRANCH  11  16
HETATM   16  C   UNL     4      -8.602   9.691  67.280  1.00  0.00    -0.132 C  
HETATM   17  C   UNL     4      -9.835   9.297  66.414  1.00  0.00    -0.277 C  
HETATM   18  O   UNL     4     -10.638   8.486  66.958  1.00  0.00    -0.306 OA 
HETATM   19  O   UNL     4      -9.987  10.087  65.407  1.00  0.00    -0.297 OA 
ENDBRANCH  11  16
ENDBRANCH  10  11
ENDBRANCH   9  10
ENDBRANCH   8   9
BRANCH   8  20
HETATM   20  C   UNL     4     -11.617  13.629  67.027  1.00  0.00    -0.359 C  
HETATM   21  C   UNL     4     -11.696  13.287  65.488  1.00  0.00    -0.346 C  
HETATM   22  O   UNL     4     -12.753  12.681  65.139  1.00  0.00    -0.646 OA 
HETATM   23  O   UNL     4     -10.718  13.640  64.743  1.00  0.00    -0.363 OA 
ENDBRANCH   8  20
ENDBRANCH   7   8
TORSDOF 7
ENDMDL
MODEL      332
REMARK 921   NORMALIZED FREE ENERGY PREDICTED BY IDOCK:   -2.90 KCAL/MOL
REMARK 922        TOTAL FREE ENERGY PREDICTED BY IDOCK:   -5.52 KCAL/MOL
REMARK 923 INTER-LIGAND FREE ENERGY PREDICTED BY IDOCK:   -4.36 KCAL/MOL
REMARK 924 INTRA-LIGAND FREE ENERGY PREDICTED BY IDOCK:   -1.16 KCAL/MOL
REMARK 927      BINDING AFFINITY PREDICTED BY RF-SCORE:    0.00 PKD
ROOT
HETATM    1 NA   UNL     1      -9.357  10.536  64.678  1.00  0.00    -0.164 Na 
HETATM    2 NA   UNL     2      -5.853   8.029  63.043  1.00  0.00    -0.054 Na 
HETATM    3 CA   UNL     3     -11.847   6.090  66.728  1.00  0.00    -0.522 Ca 
HETATM    4  O   UNL     4      -7.778   9.787  65.745  1.00  0.00    -0.104 OA 
HETATM    5  C   UNL     4      -7.265   8.631  65.754  1.00  0.00    -0.080 C  
HETATM    6  O   UNL     4      -6.902   8.038  64.681  1.00  0.00    -0.061 OA 
HETATM    7  C   UNL     4      -7.036   7.840  67.058  1.00  0.00    -0.085 C  
ENDROOT
BRANCH   7   8
HETATM    8  N   UNL     4      -7.795   8.228  68.280  1.00  0.00    -0.116 NA 
BRANCH   8   9
HETATM    9  C   UNL     4      -9.033   7.518  68.615  1.00  0.00    -0.132 C  
BRANCH   9  10
HETATM   10  C   UNL     4     -10.354   8.249  68.367  1.00  0.00    -0.199 C  
BRANCH  10  11
HETATM   11  N   UNL     4     -10.905   8.923  69.569  1.00  0.00    -0.198 NA 
BRANCH  11  12
HETATM   12  C   UNL     4     -10.440   8.330  70.864  1.00  0.00    -0.196 C  
HETATM   13  O   UNL     4     -11.747   8.473  72.893  1.00  0.00    -0.231 OA 
HETATM   14  O   UNL     4     -12.675   7.550  70.991  1.00  0.00    -0.265 OA 
HETATM   15  C   UNL     4     -11.730   8.048  71.713  1.00  0.00    -0.291 C  
ENDBRANCH  11  12
BRANCH  11  16
HETATM   16  C   UNL     4     -10.555  10.390  69.534  1.00  0.00    -0.246 C  
HETATM   17  C   UNL     4     -11.789  11.110  68.914  1.00  0.00    -0.337 C  
HETATM   18  O   UNL     4     -11.585  11.663  67.796  1.00  0.00    -0.399 OA 
HETATM   19  O   UNL     4     -12.886  10.773  69.501  1.00  0.00    -0.198 OA 
ENDBRANCH  11  16
ENDBRANCH  10  11
ENDBRANCH   9  10
ENDBRANCH   8   9
BRANCH   8  20
HETATM   20  C   UNL     4      -6.854   8.071  69.464  1.00  0.00    -0.046 C  
HETATM   21  C   UNL     4      -7.057   9.106  70.639  1.00  0.00    -0.099 C  
HETATM   22  O   UNL     4      -6.858   8.632  71.796  1.00  0.00    -0.078 OA 
HETATM   23  O   UNL     4      -7.394  10.302  70.334  1.00  0.00    -0.258 OA 
ENDBRANCH   8  20
ENDBRANCH   7   8
TORSDOF 7
ENDMDL
MODEL      333
REMARK 921   NORMALIZED FREE ENERGY PREDICTED BY IDOCK:   -2.88 KCAL/MOL
REMARK 922        TOTAL FREE ENERGY PREDICTED BY IDOCK:   -5.50 KCAL/MOL
REMARK 923 INTER-LIGAND FREE ENERGY PREDICTED BY IDOCK:   -5.83 KCAL/MOL
REMARK 924 INTRA-LIGAND FREE ENERGY PREDICTED BY IDOCK:    0.33 KCAL/MOL
REMARK 927      BINDING AFFINITY PREDICTED BY RF-SCORE:    0.00 PKD
ROOT
HETATM    1 NA   UNL     1     -12.140  11.592  69.742  1.00  0.00    -0.231 Na 
HETATM    2 NA   UNL     2     -13.604  15.612  71.455  1.00  0.00    -0.373 Na 
HETATM    3 CA   UNL     3     -13.925  12.857  64.704  1.00  0.00    -0.504 Ca 
HETATM    4  O   UNL     4     -11.223  13.413  69.560  1.00  0.00    -0.214 OA 
HETATM    5  C   UNL     4     -11.692  14.543  69.239  1.00  0.00    -0.310 C  
HETATM    6  O   UNL     4     -12.714  15.046  69.820  1.00  0.00    -0.169 OA 
HETATM    7  C   UNL     4     -11.074  15.407  68.122  1.00  0.00    -0.309 C  
ENDROOT
BRANCH   7   8
HETATM    8  N   UNL     4     -10.187  14.759  67.116  1.00  0.00    -0.244 NA 
BRANCH   8   9
HETATM    9  C   UNL     4     -10.158  13.296  67.017  1.00  0.00    -0.242 C  
BRANCH   9  10
HETATM   10  C   UNL     4      -8.791  12.613  67.075  1.00  0.00    -0.212 C  
BRANCH  10  11
HETATM   11  N   UNL     4      -8.860  11.134  67.195  1.00  0.00    -0.141 NA 
BRANCH  11  12
HETATM   12  C   UNL     4     -10.244  10.609  67.422  1.00  0.00    -0.204 C  
HETATM   13  O   UNL     4     -10.657   8.464  68.461  1.00  0.00    -0.191 OA 
HETATM   14  O   UNL     4      -9.381  10.046  69.558  1.00  0.00    -0.207 OA 
HETATM   15  C   UNL     4     -10.145   9.599  68.621  1.00  0.00    -0.179 C  
ENDBRANCH  11  12
BRANCH  11  16
HETATM   16  C   UNL     4      -8.278  10.497  65.958  1.00  0.00    -0.150 C  
HETATM   17  C   UNL     4      -6.890   9.931  66.380  1.00  0.00    -0.090 C  
HETATM   18  O   UNL     4      -5.894  10.476  65.823  1.00  0.00    -0.098 OA 
HETATM   19  O   UNL     4      -6.969   9.206  67.443  1.00  0.00    -0.076 OA 
ENDBRANCH  11  16
ENDBRANCH  10  11
ENDBRANCH   9  10
ENDBRANCH   8   9
BRANCH   8  20
HETATM   20  C   UNL     4     -10.590  15.291  65.749  1.00  0.00    -0.347 C  
HETATM   21  C   UNL     4     -11.524  14.346  64.897  1.00  0.00    -0.386 C  
HETATM   22  O   UNL     4     -12.383  14.954  64.192  1.00  0.00    -0.668 OA 
HETATM   23  O   UNL     4     -11.341  13.083  64.985  1.00  0.00    -0.288 OA 
ENDBRANCH   8  20
ENDBRANCH   7   8
TORSDOF 7
ENDMDL
MODEL      334
REMARK 921   NORMALIZED FREE ENERGY PREDICTED BY IDOCK:   -2.88 KCAL/MOL
REMARK 922        TOTAL FREE ENERGY PREDICTED BY IDOCK:   -5.50 KCAL/MOL
REMARK 923 INTER-LIGAND FREE ENERGY PREDICTED BY IDOCK:   -4.26 KCAL/MOL
REMARK 924 INTRA-LIGAND FREE ENERGY PREDICTED BY IDOCK:   -1.25 KCAL/MOL
REMARK 927      BINDING AFFINITY PREDICTED BY RF-SCORE:    0.00 PKD
ROOT
HETATM    1 NA   UNL     1     -10.888  11.815  70.270  1.00  0.00    -0.439 Na 
HETATM    2 NA   UNL     2     -12.981  13.562  66.555  1.00  0.00    -0.325 Na 
HETATM    3 CA   UNL     3     -12.470   6.709  69.011  1.00  0.00    -0.577 Ca 
HETATM    4  O   UNL     4     -10.207  11.770  68.341  1.00  0.00    -0.195 OA 
HETATM    5  C   UNL     4     -10.797  11.457  67.266  1.00  0.00    -0.263 C  
HETATM    6  O   UNL     4     -11.913  11.979  66.925  1.00  0.00    -0.612 OA 
HETATM    7  C   UNL     4     -10.220  10.423  66.280  1.00  0.00    -0.222 C  
ENDROOT
BRANCH   7   8
HETATM    8  N   UNL     4      -9.189   9.462  66.762  1.00  0.00    -0.138 NA 
BRANCH   8   9
HETATM    9  C   UNL     4      -9.612   8.206  67.389  1.00  0.00    -0.160 C  
BRANCH   9  10
HETATM   10  C   UNL     4      -9.254   7.997  68.862  1.00  0.00    -0.147 C  
BRANCH  10  11
HETATM   11  N   UNL     4      -8.499   6.747  69.127  1.00  0.00    -0.127 NA 
BRANCH  11  12
HETATM   12  C   UNL     4      -8.589   5.738  68.023  1.00  0.00    -0.105 C  
HETATM   13  O   UNL     4      -8.232   3.376  68.400  1.00  0.00    -0.072 OA 
HETATM   14  O   UNL     4      -9.830   4.506  69.626  1.00  0.00    -0.205 OA 
HETATM   15  C   UNL     4      -8.941   4.367  68.703  1.00  0.00    -0.115 C  
ENDBRANCH  11  12
BRANCH  11  16
HETATM   16  C   UNL     4      -7.050   7.075  69.389  1.00  0.00    -0.079 C  
HETATM   17  C   UNL     4      -6.841   6.898  70.922  1.00  0.00    -0.055 C  
HETATM   18  O   UNL     4      -6.559   7.957  71.554  1.00  0.00    -0.041 OA 
HETATM   19  O   UNL     4      -7.280   5.760  71.339  1.00  0.00    -0.074 OA 
ENDBRANCH  11  16
ENDBRANCH  10  11
ENDBRANCH   9  10
ENDBRANCH   8   9
BRANCH   8  20
HETATM   20  C   UNL     4      -8.320   9.096  65.569  1.00  0.00    -0.133 C  
HETATM   21  C   UNL     4      -6.806   8.790  65.897  1.00  0.00    -0.068 C  
HETATM   22  O   UNL     4      -6.288   7.880  65.184  1.00  0.00    -0.041 OA 
HETATM   23  O   UNL     4      -6.244   9.468  66.825  1.00  0.00    -0.063 OA 
ENDBRANCH   8  20
ENDBRANCH   7   8
TORSDOF 7
ENDMDL
MODEL      335
REMARK 921   NORMALIZED FREE ENERGY PREDICTED BY IDOCK:   -2.86 KCAL/MOL
REMARK 922        TOTAL FREE ENERGY PREDICTED BY IDOCK:   -5.48 KCAL/MOL
REMARK 923 INTER-LIGAND FREE ENERGY PREDICTED BY IDOCK:   -4.97 KCAL/MOL
REMARK 924 INTRA-LIGAND FREE ENERGY PREDICTED BY IDOCK:   -0.51 KCAL/MOL
REMARK 927      BINDING AFFINITY PREDICTED BY RF-SCORE:    0.00 PKD
ROOT
HETATM    1 NA   UNL     1      -7.720  11.269  70.169  1.00  0.00    -0.345 Na 
HETATM    2 NA   UNL     2      -8.585  15.586  68.811  1.00  0.00    -0.135 Na 
HETATM    3 CA   UNL     3     -13.007   9.851  69.718  1.00  0.00    -0.520 Ca 
HETATM    4  O   UNL     4      -8.029  11.915  68.252  1.00  0.00    -0.134 OA 
HETATM    5  C   UNL     4      -8.925  12.669  67.771  1.00  0.00    -0.189 C  
HETATM    6  O   UNL     4      -9.187  13.818  68.268  1.00  0.00    -0.198 OA 
HETATM    7  C   UNL     4      -9.774  12.265  66.550  1.00  0.00    -0.234 C  
ENDROOT
BRANCH   7   8
HETATM    8  N   UNL     4      -9.861  10.826  66.175  1.00  0.00    -0.212 NA 
BRANCH   8   9
HETATM    9  C   UNL     4     -10.591   9.898  67.044  1.00  0.00    -0.203 C  
BRANCH   9  10
HETATM   10  C   UNL     4     -10.063   8.466  67.148  1.00  0.00    -0.265 C  
BRANCH  10  11
HETATM   11  N   UNL     4     -10.082   7.915  68.526  1.00  0.00    -0.192 NA 
BRANCH  11  12
HETATM   12  C   UNL     4     -11.388   7.291  68.912  1.00  0.00     0.306 C  
HETATM   13  O   UNL     4     -11.651   5.990  70.934  1.00  0.00    -0.258 OA 
HETATM   14  O   UNL     4     -10.852   8.154  71.054  1.00  0.00    -0.227 OA 
HETATM   15  C   UNL     4     -11.356   7.120  70.472  1.00  0.00    -0.297 C  
ENDBRANCH  11  12
BRANCH  11  16
HETATM   16  C   UNL     4      -8.976   6.902  68.684  1.00  0.00    -0.129 C  
HETATM   17  C   UNL     4      -7.703   7.713  69.068  1.00  0.00    -0.117 C  
HETATM   18  O   UNL     4      -6.771   7.691  68.215  1.00  0.00    -0.058 OA 
HETATM   19  O   UNL     4      -7.924   8.514  70.055  1.00  0.00    -0.101 OA 
ENDBRANCH  11  16
ENDBRANCH  10  11
ENDBRANCH   9  10
ENDBRANCH   8   9
BRANCH   8  20
HETATM   20  C   UNL     4     -10.509  10.756  64.801  1.00  0.00    -0.265 C  
HETATM   21  C   UNL     4     -11.653  11.809  64.531  1.00  0.00    -0.223 C  
HETATM   22  O   UNL     4     -11.698  12.243  63.342  1.00  0.00    -0.455 OA 
HETATM   23  O   UNL     4     -12.418  12.127  65.506  1.00  0.00    -0.517 OA 
ENDBRANCH   8  20
ENDBRANCH   7   8
TORSDOF 7
ENDMDL
MODEL      336
REMARK 921   NORMALIZED FREE ENERGY PREDICTED BY IDOCK:   -2.86 KCAL/MOL
REMARK 922        TOTAL FREE ENERGY PREDICTED BY IDOCK:   -5.48 KCAL/MOL
REMARK 923 INTER-LIGAND FREE ENERGY PREDICTED BY IDOCK:   -4.55 KCAL/MOL
REMARK 924 INTRA-LIGAND FREE ENERGY PREDICTED BY IDOCK:   -0.93 KCAL/MOL
REMARK 927      BINDING AFFINITY PREDICTED BY RF-SCORE:    0.00 PKD
ROOT
HETATM    1 NA   UNL     1     -10.217  10.926  70.575  1.00  0.00    -0.415 Na 
HETATM    2 NA   UNL     2      -5.626  11.269  70.385  1.00  0.00    -0.058 Na 
HETATM    3 CA   UNL     3     -10.879  16.087  68.818  1.00  0.00    -0.217 Ca 
HETATM    4  O   UNL     4      -9.044  10.814  68.901  1.00  0.00    -0.168 OA 
HETATM    5  C   UNL     4      -8.096  11.554  68.508  1.00  0.00    -0.146 C  
HETATM    6  O   UNL     4      -7.104  11.846  69.260  1.00  0.00    -0.087 OA 
HETATM    7  C   UNL     4      -8.059  12.165  67.094  1.00  0.00    -0.175 C  
ENDROOT
BRANCH   7   8
HETATM    8  N   UNL     4      -9.323  12.253  66.312  1.00  0.00    -0.228 NA 
BRANCH   8   9
HETATM    9  C   UNL     4     -10.193  11.077  66.214  1.00  0.00    -0.245 C  
BRANCH   9  10
HETATM   10  C   UNL     4      -9.962  10.125  65.039  1.00  0.00    -0.305 C  
BRANCH  10  11
HETATM   11  N   UNL     4      -8.850   9.165  65.252  1.00  0.00    -0.191 NA 
BRANCH  11  12
HETATM   12  C   UNL     4      -9.242   7.945  66.028  1.00  0.00    -0.104 C  
HETATM   13  O   UNL     4      -7.643   6.240  66.647  1.00  0.00    -0.091 OA 
HETATM   14  O   UNL     4      -7.276   8.436  67.259  1.00  0.00    -0.081 OA 
HETATM   15  C   UNL     4      -7.946   7.452  66.765  1.00  0.00    -0.115 C  
ENDBRANCH  11  12
BRANCH  11  16
HETATM   16  C   UNL     4      -8.276   8.749  63.920  1.00  0.00    -0.160 C  
HETATM   17  C   UNL     4      -7.261   9.862  63.524  1.00  0.00    -0.126 C  
HETATM   18  O   UNL     4      -7.566  10.528  62.494  1.00  0.00    -0.140 OA 
HETATM   19  O   UNL     4      -6.432  10.117  64.478  1.00  0.00    -0.125 OA 
ENDBRANCH  11  16
ENDBRANCH  10  11
ENDBRANCH   9  10
ENDBRANCH   8   9
BRANCH   8  20
HETATM   20  C   UNL     4     -10.153  13.374  66.920  1.00  0.00    -0.255 C  
HETATM   21  C   UNL     4     -11.043  14.192  65.905  1.00  0.00    -0.306 C  
HETATM   22  O   UNL     4     -12.158  14.571  66.371  1.00  0.00    -0.385 OA 
HETATM   23  O   UNL     4     -10.578  14.400  64.731  1.00  0.00    -0.421 OA 
ENDBRANCH   8  20
ENDBRANCH   7   8
TORSDOF 7
ENDMDL
MODEL      337
REMARK 921   NORMALIZED FREE ENERGY PREDICTED BY IDOCK:   -2.86 KCAL/MOL
REMARK 922        TOTAL FREE ENERGY PREDICTED BY IDOCK:   -5.47 KCAL/MOL
REMARK 923 INTER-LIGAND FREE ENERGY PREDICTED BY IDOCK:   -6.00 KCAL/MOL
REMARK 924 INTRA-LIGAND FREE ENERGY PREDICTED BY IDOCK:    0.53 KCAL/MOL
REMARK 927      BINDING AFFINITY PREDICTED BY RF-SCORE:    0.00 PKD
ROOT
HETATM    1 NA   UNL     1     -13.154  15.040  66.955  1.00  0.00    -0.365 Na 
HETATM    2 NA   UNL     2     -13.626  11.832  63.680  1.00  0.00    -0.609 Na 
HETATM    3 CA   UNL     3     -12.268  11.247  70.827  1.00  0.00    -0.244 Ca 
HETATM    4  O   UNL     4     -11.654  14.013  66.015  1.00  0.00    -0.335 OA 
HETATM    5  C   UNL     4     -11.525  12.777  65.777  1.00  0.00    -0.348 C  
HETATM    6  O   UNL     4     -12.439  12.096  65.198  1.00  0.00    -0.508 OA 
HETATM    7  C   UNL     4     -10.258  11.990  66.167  1.00  0.00    -0.226 C  
ENDROOT
BRANCH   7   8
HETATM    8  N   UNL     4      -9.346  12.556  67.200  1.00  0.00    -0.195 NA 
BRANCH   8   9
HETATM    9  C   UNL     4      -9.565  13.922  67.684  1.00  0.00    -0.215 C  
BRANCH   9  10
HETATM   10  C   UNL     4      -8.525  14.507  68.641  1.00  0.00    -0.161 C  
BRANCH  10  11
HETATM   11  N   UNL     4      -8.103  15.889  68.302  1.00  0.00    -0.141 NA 
BRANCH  11  12
HETATM   12  C   UNL     4      -6.743  15.973  67.681  1.00  0.00    -0.163 C  
HETATM   13  O   UNL     4      -5.761  18.076  67.000  1.00  0.00    -0.130 OA 
HETATM   14  O   UNL     4      -6.474  17.792  69.178  1.00  0.00    -0.222 OA 
HETATM   15  C   UNL     4      -6.209  17.421  67.973  1.00  0.00    -0.147 C  
ENDBRANCH  11  12
BRANCH  11  16
HETATM   16  C   UNL     4      -9.116  16.517  67.378  1.00  0.00    -0.204 C  
HETATM   17  C   UNL     4     -10.181  17.184  68.299  1.00  0.00    -0.334 C  
HETATM   18  O   UNL     4     -11.340  16.684  68.234  1.00  0.00    -0.309 OA 
HETATM   19  O   UNL     4      -9.638  17.941  69.191  1.00  0.00    -0.175 OA 
ENDBRANCH  11  16
ENDBRANCH  10  11
ENDBRANCH   9  10
ENDBRANCH   8   9
BRANCH   8  20
HETATM   20  C   UNL     4      -9.411  11.637  68.411  1.00  0.00    -0.193 C  
HETATM   21  C   UNL     4     -10.826  11.005  68.713  1.00  0.00    -0.210 C  
HETATM   22  O   UNL     4     -10.786   9.823  69.167  1.00  0.00    -0.219 OA 
HETATM   23  O   UNL     4     -11.863  11.717  68.481  1.00  0.00    -0.348 OA 
ENDBRANCH   8  20
ENDBRANCH   7   8
TORSDOF 7
ENDMDL
MODEL      338
REMARK 921   NORMALIZED FREE ENERGY PREDICTED BY IDOCK:   -2.85 KCAL/MOL
REMARK 922        TOTAL FREE ENERGY PREDICTED BY IDOCK:   -5.46 KCAL/MOL
REMARK 923 INTER-LIGAND FREE ENERGY PREDICTED BY IDOCK:   -4.45 KCAL/MOL
REMARK 924 INTRA-LIGAND FREE ENERGY PREDICTED BY IDOCK:   -1.01 KCAL/MOL
REMARK 927      BINDING AFFINITY PREDICTED BY RF-SCORE:    0.00 PKD
ROOT
HETATM    1 NA   UNL     1      -8.200   6.092  70.086  1.00  0.00    -0.099 Na 
HETATM    2 NA   UNL     2      -5.505   9.584  71.420  1.00  0.00    -0.036 Na 
HETATM    3 CA   UNL     3     -12.314   7.767  73.317  1.00  0.00    -0.554 Ca 
HETATM    4  O   UNL     4      -8.297   8.034  69.446  1.00  0.00    -0.127 OA 
HETATM    5  C   UNL     4      -8.288   9.118  70.099  1.00  0.00    -0.165 C  
HETATM    6  O   UNL     4      -7.386   9.383  70.965  1.00  0.00    -0.237 OA 
HETATM    7  C   UNL     4      -9.361  10.207  69.905  1.00  0.00    -0.093 C  
ENDROOT
BRANCH   7   8
HETATM    8  N   UNL     4     -10.658   9.838  69.271  1.00  0.00    -0.212 NA 
BRANCH   8   9
HETATM    9  C   UNL     4     -10.656   9.161  67.971  1.00  0.00    -0.197 C  
BRANCH   9  10
HETATM   10  C   UNL     4     -11.106   9.971  66.753  1.00  0.00     0.187 C  
BRANCH  10  11
HETATM   11  N   UNL     4      -9.997  10.650  66.038  1.00  0.00    -0.229 NA 
BRANCH  11  12
HETATM   12  C   UNL     4      -9.571   9.957  64.781  1.00  0.00    -0.271 C  
HETATM   13  O   UNL     4      -7.335  10.165  63.885  1.00  0.00    -0.136 OA 
HETATM   14  O   UNL     4      -7.641   9.430  66.052  1.00  0.00    -0.097 OA 
HETATM   15  C   UNL     4      -8.013   9.788  64.871  1.00  0.00    -0.133 C  
ENDBRANCH  11  12
BRANCH  11  16
HETATM   16  C   UNL     4     -10.393  12.070  65.720  1.00  0.00    -0.254 C  
HETATM   17  C   UNL     4      -9.967  12.921  66.952  1.00  0.00    -0.238 C  
HETATM   18  O   UNL     4     -10.918  13.450  67.597  1.00  0.00    -0.251 OA 
HETATM   19  O   UNL     4      -8.740  12.705  67.285  1.00  0.00    -0.182 OA 
ENDBRANCH  11  16
ENDBRANCH  10  11
ENDBRANCH   9  10
ENDBRANCH   8   9
BRANCH   8  20
HETATM   20  C   UNL     4     -11.396   8.934  70.246  1.00  0.00    -0.159 C  
HETATM   21  C   UNL     4     -12.541   9.625  71.084  1.00  0.00    -0.322 C  
HETATM   22  O   UNL     4     -13.543   8.885  71.314  1.00  0.00    -0.283 OA 
HETATM   23  O   UNL     4     -12.367  10.838  71.452  1.00  0.00    -0.358 OA 
ENDBRANCH   8  20
ENDBRANCH   7   8
TORSDOF 7
ENDMDL
MODEL      339
REMARK 921   NORMALIZED FREE ENERGY PREDICTED BY IDOCK:   -2.84 KCAL/MOL
REMARK 922        TOTAL FREE ENERGY PREDICTED BY IDOCK:   -5.45 KCAL/MOL
REMARK 923 INTER-LIGAND FREE ENERGY PREDICTED BY IDOCK:   -5.21 KCAL/MOL
REMARK 924 INTRA-LIGAND FREE ENERGY PREDICTED BY IDOCK:   -0.24 KCAL/MOL
REMARK 927      BINDING AFFINITY PREDICTED BY RF-SCORE:    0.00 PKD
ROOT
HETATM    1 NA   UNL     1      -8.808  13.627  65.564  1.00  0.00    -0.423 Na 
HETATM    2 NA   UNL     2      -6.944  10.259  63.029  1.00  0.00    -0.112 Na 
HETATM    3 CA   UNL     3     -13.906  11.885  64.497  1.00  0.00    -0.603 Ca 
HETATM    4  O   UNL     4      -8.564  11.669  66.109  1.00  0.00    -0.153 OA 
HETATM    5  C   UNL     4      -8.830  10.601  65.485  1.00  0.00    -0.188 C  
HETATM    6  O   UNL     4      -8.416  10.386  64.295  1.00  0.00    -0.168 OA 
HETATM    7  C   UNL     4      -9.675   9.472  66.107  1.00  0.00    -0.258 C  
ENDROOT
BRANCH   7   8
HETATM    8  N   UNL     4     -10.548   9.782  67.273  1.00  0.00    -0.264 NA 
BRANCH   8   9
HETATM    9  C   UNL     4      -9.955   9.888  68.609  1.00  0.00    -0.164 C  
BRANCH   9  10
HETATM   10  C   UNL     4      -8.684   9.081  68.883  1.00  0.00    -0.136 C  
BRANCH  10  11
HETATM   11  N   UNL     4      -8.933   7.766  69.527  1.00  0.00    -0.143 NA 
BRANCH  11  12
HETATM   12  C   UNL     4      -8.583   6.593  68.665  1.00  0.00    -0.125 C  
HETATM   13  O   UNL     4      -9.607   4.422  68.960  1.00  0.00    -0.159 OA 
HETATM   14  O   UNL     4     -10.933   6.281  68.614  1.00  0.00    -0.300 OA 
HETATM   15  C   UNL     4      -9.823   5.630  68.699  1.00  0.00    -0.145 C  
ENDBRANCH  11  12
BRANCH  11  16
HETATM   16  C   UNL     4      -8.166   7.683  70.823  1.00  0.00    -0.109 C  
HETATM   17  C   UNL     4      -9.212   7.904  71.955  1.00  0.00    -0.155 C  
HETATM   18  O   UNL     4      -9.053   8.955  72.639  1.00  0.00    -0.321 OA 
HETATM   19  O   UNL     4     -10.237   7.135  71.819  1.00  0.00    -0.195 OA 
ENDBRANCH  11  16
ENDBRANCH  10  11
ENDBRANCH   9  10
ENDBRANCH   8   9
BRANCH   8  20
HETATM   20  C   UNL     4     -11.236  11.107  66.983  1.00  0.00    -0.219 C  
HETATM   21  C   UNL     4     -11.974  11.776  68.208  1.00  0.00    -0.165 C  
HETATM   22  O   UNL     4     -11.919  13.041  68.227  1.00  0.00    -0.332 OA 
HETATM   23  O   UNL     4     -12.551  11.008  69.053  1.00  0.00    -0.378 OA 
ENDBRANCH   8  20
ENDBRANCH   7   8
TORSDOF 7
ENDMDL
MODEL      340
REMARK 921   NORMALIZED FREE ENERGY PREDICTED BY IDOCK:   -2.84 KCAL/MOL
REMARK 922        TOTAL FREE ENERGY PREDICTED BY IDOCK:   -5.45 KCAL/MOL
REMARK 923 INTER-LIGAND FREE ENERGY PREDICTED BY IDOCK:   -4.33 KCAL/MOL
REMARK 924 INTRA-LIGAND FREE ENERGY PREDICTED BY IDOCK:   -1.12 KCAL/MOL
REMARK 927      BINDING AFFINITY PREDICTED BY RF-SCORE:    0.00 PKD
ROOT
HETATM    1 NA   UNL     1     -12.259   6.820  69.031  1.00  0.00    -0.562 Na 
HETATM    2 NA   UNL     2      -8.433   6.097  71.496  1.00  0.00    -0.113 Na 
HETATM    3 CA   UNL     3     -13.012  11.775  71.277  1.00  0.00    -0.307 Ca 
HETATM    4  O   UNL     4     -10.398   7.588  68.665  1.00  0.00    -0.194 OA 
HETATM    5  C   UNL     4      -9.569   8.146  69.442  1.00  0.00    -0.167 C  
HETATM    6  O   UNL     4      -9.200   7.609  70.543  1.00  0.00    -0.158 OA 
HETATM    7  C   UNL     4      -8.938   9.517  69.129  1.00  0.00    -0.148 C  
ENDROOT
BRANCH   7   8
HETATM    8  N   UNL     4      -9.600  10.405  68.134  1.00  0.00    -0.143 NA 
BRANCH   8   9
HETATM    9  C   UNL     4     -10.127  11.704  68.565  1.00  0.00    -0.206 C  
BRANCH   9  10
HETATM   10  C   UNL     4      -9.999  12.876  67.590  1.00  0.00    -0.218 C  
BRANCH  10  11
HETATM   11  N   UNL     4      -9.561  14.144  68.227  1.00  0.00    -0.221 NA 
BRANCH  11  12
HETATM   12  C   UNL     4      -8.314  14.722  67.633  1.00  0.00    -0.170 C  
HETATM   13  O   UNL     4      -7.107  16.539  68.677  1.00  0.00    -0.156 OA 
HETATM   14  O   UNL     4      -7.527  14.605  69.866  1.00  0.00    -0.057 OA 
HETATM   15  C   UNL     4      -7.509  15.359  68.821  1.00  0.00    -0.136 C  
ENDBRANCH  11  12
BRANCH  11  16
HETATM   16  C   UNL     4     -10.672  15.161  68.148  1.00  0.00    -0.254 C  
HETATM   17  C   UNL     4     -11.525  14.966  69.436  1.00  0.00    -0.299 C  
HETATM   18  O   UNL     4     -12.708  14.564  69.245  1.00  0.00    -0.006 OA 
HETATM   19  O   UNL     4     -10.795  14.962  70.499  1.00  0.00    -0.168 OA 
ENDBRANCH  11  16
ENDBRANCH  10  11
ENDBRANCH   9  10
ENDBRANCH   8   9
BRANCH   8  20
HETATM   20  C   UNL     4      -8.591  10.676  67.029  1.00  0.00    -0.128 C  
HETATM   21  C   UNL     4      -8.768   9.817  65.717  1.00  0.00    -0.142 C  
HETATM   22  O   UNL     4      -8.489  10.432  64.645  1.00  0.00    -0.174 OA 
HETATM   23  O   UNL     4      -9.167   8.608  65.840  1.00  0.00    -0.203 OA 
ENDBRANCH   8  20
ENDBRANCH   7   8
TORSDOF 7
ENDMDL
MODEL      341
REMARK 921   NORMALIZED FREE ENERGY PREDICTED BY IDOCK:   -2.83 KCAL/MOL
REMARK 922        TOTAL FREE ENERGY PREDICTED BY IDOCK:   -5.43 KCAL/MOL
REMARK 923 INTER-LIGAND FREE ENERGY PREDICTED BY IDOCK:   -5.18 KCAL/MOL
REMARK 924 INTRA-LIGAND FREE ENERGY PREDICTED BY IDOCK:   -0.25 KCAL/MOL
REMARK 927      BINDING AFFINITY PREDICTED BY RF-SCORE:    0.00 PKD
ROOT
HETATM    1 NA   UNL     1     -10.820  10.122  63.617  1.00  0.00    -0.428 Na 
HETATM    2 NA   UNL     2      -6.534   8.443  63.399  1.00  0.00    -0.074 Na 
HETATM    3 CA   UNL     3     -11.514   8.240  68.730  1.00  0.00    -0.431 Ca 
HETATM    4  O   UNL     4      -9.138  10.934  64.454  1.00  0.00    -0.198 OA 
HETATM    5  C   UNL     4      -8.220  10.399  65.142  1.00  0.00    -0.158 C  
HETATM    6  O   UNL     4      -7.596   9.354  64.750  1.00  0.00    -0.105 OA 
HETATM    7  C   UNL     4      -7.778  10.962  66.507  1.00  0.00    -0.149 C  
ENDROOT
BRANCH   7   8
HETATM    8  N   UNL     4      -8.695  11.878  67.241  1.00  0.00    -0.164 NA 
BRANCH   8   9
HETATM    9  C   UNL     4      -8.410  13.316  67.264  1.00  0.00    -0.177 C  
BRANCH   9  10
HETATM   10  C   UNL     4      -9.572  14.270  66.981  1.00  0.00    -0.257 C  
BRANCH  10  11
HETATM   11  N   UNL     4      -9.853  15.222  68.085  1.00  0.00    -0.215 NA 
BRANCH  11  12
HETATM   12  C   UNL     4     -10.123  14.562  69.401  1.00  0.00     0.005 C  
HETATM   13  O   UNL     4     -11.584  15.541  71.062  1.00  0.00    -0.311 OA 
HETATM   14  O   UNL     4     -12.369  15.155  68.925  1.00  0.00    -0.142 OA 
HETATM   15  C   UNL     4     -11.516  15.097  69.890  1.00  0.00    -0.288 C  
ENDBRANCH  11  12
BRANCH  11  16
HETATM   16  C   UNL     4      -8.700  16.183  68.232  1.00  0.00    -0.180 C  
HETATM   17  C   UNL     4      -9.244  17.575  67.795  1.00  0.00    -0.253 C  
HETATM   18  O   UNL     4      -8.714  18.058  66.753  1.00  0.00    -0.241 OA 
HETATM   19  O   UNL     4     -10.347  17.870  68.394  1.00  0.00    -0.366 OA 
ENDBRANCH  11  16
ENDBRANCH  10  11
ENDBRANCH   9  10
ENDBRANCH   8   9
BRANCH   8  20
HETATM   20  C   UNL     4     -10.081  11.706  66.641  1.00  0.00    -0.208 C  
HETATM   21  C   UNL     4     -11.246  11.449  67.675  1.00  0.00    -0.283 C  
HETATM   22  O   UNL     4     -12.353  11.978  67.361  1.00  0.00    -0.340 OA 
HETATM   23  O   UNL     4     -10.983  10.748  68.712  1.00  0.00    -0.211 OA 
ENDBRANCH   8  20
ENDBRANCH   7   8
TORSDOF 7
ENDMDL
MODEL      342
REMARK 921   NORMALIZED FREE ENERGY PREDICTED BY IDOCK:   -2.81 KCAL/MOL
REMARK 922        TOTAL FREE ENERGY PREDICTED BY IDOCK:   -5.40 KCAL/MOL
REMARK 923 INTER-LIGAND FREE ENERGY PREDICTED BY IDOCK:   -6.03 KCAL/MOL
REMARK 924 INTRA-LIGAND FREE ENERGY PREDICTED BY IDOCK:    0.63 KCAL/MOL
REMARK 927      BINDING AFFINITY PREDICTED BY RF-SCORE:    0.00 PKD
ROOT
HETATM    1 NA   UNL     1      -8.930   7.907  64.427  1.00  0.00    -0.354 Na 
HETATM    2 NA   UNL     2     -11.773   5.007  66.604  1.00  0.00    -0.384 Na 
HETATM    3 CA   UNL     3     -12.613  11.977  64.609  1.00  0.00    -0.383 Ca 
HETATM    4  O   UNL     4      -9.325   7.849  66.434  1.00  0.00    -0.182 OA 
HETATM    5  C   UNL     4     -10.425   7.779  67.055  1.00  0.00    -0.349 C  
HETATM    6  O   UNL     4     -11.300   6.884  66.794  1.00  0.00    -0.181 OA 
HETATM    7  C   UNL     4     -10.802   8.767  68.177  1.00  0.00     0.022 C  
ENDROOT
BRANCH   7   8
HETATM    8  N   UNL     4     -10.084  10.069  68.264  1.00  0.00    -0.153 NA 
BRANCH   8   9
HETATM    9  C   UNL     4     -10.850  11.302  68.470  1.00  0.00    -0.205 C  
BRANCH   9  10
HETATM   10  C   UNL     4     -10.965  12.266  67.287  1.00  0.00    -0.256 C  
BRANCH  10  11
HETATM   11  N   UNL     4     -10.575  13.662  67.608  1.00  0.00    -0.240 NA 
BRANCH  11  12
HETATM   12  C   UNL     4      -9.787  14.335  66.526  1.00  0.00    -0.288 C  
HETATM   13  O   UNL     4      -9.923  13.649  64.211  1.00  0.00    -0.233 OA 
HETATM   14  O   UNL     4     -11.844  14.239  65.350  1.00  0.00    -0.343 OA 
HETATM   15  C   UNL     4     -10.573  14.095  65.188  1.00  0.00    -0.398 C  
ENDBRANCH  11  12
BRANCH  11  16
HETATM   16  C   UNL     4     -11.808  14.477  67.911  1.00  0.00    -0.336 C  
HETATM   17  C   UNL     4     -11.866  14.605  69.462  1.00  0.00    -0.330 C  
HETATM   18  O   UNL     4     -12.852  14.038  70.014  1.00  0.00    -0.200 OA 
HETATM   19  O   UNL     4     -10.745  15.014  69.952  1.00  0.00    -0.252 OA 
ENDBRANCH  11  16
ENDBRANCH  10  11
ENDBRANCH   9  10
ENDBRANCH   8   9
BRANCH   8  20
HETATM   20  C   UNL     4      -9.092   9.962  69.412  1.00  0.00    -0.206 C  
HETATM   21  C   UNL     4      -9.678   9.412  70.771  1.00  0.00    -0.264 C  
HETATM   22  O   UNL     4      -8.877   8.689  71.434  1.00  0.00    -0.177 OA 
HETATM   23  O   UNL     4     -10.877   9.734  71.082  1.00  0.00    -0.334 OA 
ENDBRANCH   8  20
ENDBRANCH   7   8
TORSDOF 7
ENDMDL
MODEL      343
REMARK 921   NORMALIZED FREE ENERGY PREDICTED BY IDOCK:   -2.80 KCAL/MOL
REMARK 922        TOTAL FREE ENERGY PREDICTED BY IDOCK:   -5.39 KCAL/MOL
REMARK 923 INTER-LIGAND FREE ENERGY PREDICTED BY IDOCK:   -6.00 KCAL/MOL
REMARK 924 INTRA-LIGAND FREE ENERGY PREDICTED BY IDOCK:    0.61 KCAL/MOL
REMARK 927      BINDING AFFINITY PREDICTED BY RF-SCORE:    0.00 PKD
ROOT
HETATM    1 NA   UNL     1     -11.004  10.132  63.948  1.00  0.00    -0.405 Na 
HETATM    2 NA   UNL     2      -8.496   6.433  65.072  1.00  0.00    -0.119 Na 
HETATM    3 CA   UNL     3     -13.164  10.452  68.988  1.00  0.00    -0.475 Ca 
HETATM    4  O   UNL     4      -9.257  10.109  65.012  1.00  0.00    -0.180 OA 
HETATM    5  C   UNL     4      -8.893   9.385  65.985  1.00  0.00    -0.156 C  
HETATM    6  O   UNL     4      -8.958   8.109  65.945  1.00  0.00    -0.171 OA 
HETATM    7  C   UNL     4      -8.344   9.981  67.296  1.00  0.00    -0.121 C  
ENDROOT
BRANCH   7   8
HETATM    8  N   UNL     4      -8.625  11.408  67.614  1.00  0.00    -0.127 NA 
BRANCH   8   9
HETATM    9  C   UNL     4      -9.984  11.808  67.994  1.00  0.00    -0.188 C  
BRANCH   9  10
HETATM   10  C   UNL     4     -10.937  12.220  66.871  1.00  0.00    -0.267 C  
BRANCH  10  11
HETATM   11  N   UNL     4     -10.895  13.667  66.544  1.00  0.00    -0.282 NA 
BRANCH  11  12
HETATM   12  C   UNL     4     -10.790  13.956  65.078  1.00  0.00    -0.382 C  
HETATM   13  O   UNL     4     -11.490  12.366  63.396  1.00  0.00    -0.457 OA 
HETATM   14  O   UNL     4     -12.979  13.046  65.025  1.00  0.00    -0.723 OA 
HETATM   15  C   UNL     4     -11.868  13.060  64.371  1.00  0.00    -0.386 C  
ENDBRANCH  11  12
BRANCH  11  16
HETATM   16  C   UNL     4     -12.117  14.350  67.104  1.00  0.00    -0.333 C  
HETATM   17  C   UNL     4     -11.628  15.160  68.341  1.00  0.00    -0.337 C  
HETATM   18  O   UNL     4     -12.087  14.775  69.454  1.00  0.00    -0.303 OA 
HETATM   19  O   UNL     4     -10.609  15.898  68.059  1.00  0.00    -0.269 OA 
ENDBRANCH  11  16
ENDBRANCH  10  11
ENDBRANCH   9  10
ENDBRANCH   8   9
BRANCH   8  20
HETATM   20  C   UNL     4      -7.706  11.806  68.759  1.00  0.00    -0.091 C  
HETATM   21  C   UNL     4      -7.583  10.756  69.931  1.00  0.00     0.145 C  
HETATM   22  O   UNL     4      -6.433  10.689  70.457  1.00  0.00    -0.260 OA 
HETATM   23  O   UNL     4      -8.623  10.080  70.244  1.00  0.00    -0.116 OA 
ENDBRANCH   8  20
ENDBRANCH   7   8
TORSDOF 7
ENDMDL
MODEL      344
REMARK 921   NORMALIZED FREE ENERGY PREDICTED BY IDOCK:   -2.80 KCAL/MOL
REMARK 922        TOTAL FREE ENERGY PREDICTED BY IDOCK:   -5.38 KCAL/MOL
REMARK 923 INTER-LIGAND FREE ENERGY PREDICTED BY IDOCK:   -4.91 KCAL/MOL
REMARK 924 INTRA-LIGAND FREE ENERGY PREDICTED BY IDOCK:   -0.47 KCAL/MOL
REMARK 927      BINDING AFFINITY PREDICTED BY RF-SCORE:    0.00 PKD
ROOT
HETATM    1 NA   UNL     1      -9.076   8.316  64.274  1.00  0.00    -0.377 Na 
HETATM    2 NA   UNL     2     -11.308   4.989  66.551  1.00  0.00    -0.437 Na 
HETATM    3 CA   UNL     3     -13.248  11.831  64.912  1.00  0.00    -0.265 Ca 
HETATM    4  O   UNL     4      -9.290   8.145  66.302  1.00  0.00    -0.195 OA 
HETATM    5  C   UNL     4     -10.314   7.906  67.005  1.00  0.00    -0.341 C  
HETATM    6  O   UNL     4     -11.079   6.907  66.778  1.00  0.00    -0.321 OA 
HETATM    7  C   UNL     4     -10.727   8.799  68.192  1.00  0.00    -0.073 C  
ENDROOT
BRANCH   7   8
HETATM    8  N   UNL     4     -10.186  10.185  68.275  1.00  0.00    -0.159 NA 
BRANCH   8   9
HETATM    9  C   UNL     4     -11.113  11.320  68.281  1.00  0.00    -0.240 C  
BRANCH   9  10
HETATM   10  C   UNL     4     -10.710  12.556  69.088  1.00  0.00    -0.023 C  
BRANCH  10  11
HETATM   11  N   UNL     4      -9.977  13.578  68.301  1.00  0.00    -0.234 NA 
BRANCH  11  12
HETATM   12  C   UNL     4      -8.985  14.365  69.101  1.00  0.00     0.099 C  
HETATM   13  O   UNL     4      -9.022  16.781  69.191  1.00  0.00    -0.226 OA 
HETATM   14  O   UNL     4     -10.907  15.580  69.773  1.00  0.00    -0.249 OA 
HETATM   15  C   UNL     4      -9.672  15.736  69.437  1.00  0.00    -0.286 C  
ENDBRANCH  11  12
BRANCH  11  16
HETATM   16  C   UNL     4      -9.276  12.919  67.140  1.00  0.00    -0.225 C  
HETATM   17  C   UNL     4      -9.840  13.596  65.856  1.00  0.00    -0.246 C  
HETATM   18  O   UNL     4     -10.504  12.837  65.093  1.00  0.00    -0.287 OA 
HETATM   19  O   UNL     4      -9.790  14.882  65.930  1.00  0.00    -0.295 OA 
ENDBRANCH  11  16
ENDBRANCH  10  11
ENDBRANCH   9  10
ENDBRANCH   8   9
BRANCH   8  20
HETATM   20  C   UNL     4      -9.363  10.273  69.551  1.00  0.00    -0.178 C  
HETATM   21  C   UNL     4      -7.797  10.258  69.355  1.00  0.00    -0.157 C  
HETATM   22  O   UNL     4      -7.158  10.985  70.173  1.00  0.00    -0.125 OA 
HETATM   23  O   UNL     4      -7.316   9.535  68.416  1.00  0.00    -0.075 OA 
ENDBRANCH   8  20
ENDBRANCH   7   8
TORSDOF 7
ENDMDL
MODEL      345
REMARK 921   NORMALIZED FREE ENERGY PREDICTED BY IDOCK:   -2.79 KCAL/MOL
REMARK 922        TOTAL FREE ENERGY PREDICTED BY IDOCK:   -5.38 KCAL/MOL
REMARK 923 INTER-LIGAND FREE ENERGY PREDICTED BY IDOCK:   -4.90 KCAL/MOL
REMARK 924 INTRA-LIGAND FREE ENERGY PREDICTED BY IDOCK:   -0.47 KCAL/MOL
REMARK 927      BINDING AFFINITY PREDICTED BY RF-SCORE:    0.00 PKD
ROOT
HETATM    1 NA   UNL     1     -10.937   6.226  66.046  1.00  0.00    -0.440 Na 
HETATM    2 NA   UNL     2     -10.207  10.258  63.936  1.00  0.00    -0.289 Na 
HETATM    3 CA   UNL     3      -5.808   6.093  68.005  1.00  0.00    -0.010 Ca 
HETATM    4  O   UNL     4     -10.911   8.080  66.912  1.00  0.00    -0.267 OA 
HETATM    5  C   UNL     4     -10.085   9.032  66.797  1.00  0.00    -0.274 C  
HETATM    6  O   UNL     4      -9.729   9.491  65.658  1.00  0.00    -0.272 OA 
HETATM    7  C   UNL     4      -9.439   9.716  68.018  1.00  0.00    -0.132 C  
ENDROOT
BRANCH   7   8
HETATM    8  N   UNL     4      -9.437   9.004  69.327  1.00  0.00    -0.155 NA 
BRANCH   8   9
HETATM    9  C   UNL     4      -9.097   7.579  69.372  1.00  0.00    -0.142 C  
BRANCH   9  10
HETATM   10  C   UNL     4     -10.159   6.617  69.907  1.00  0.00    -0.176 C  
BRANCH  10  11
HETATM   11  N   UNL     4     -10.867   7.112  71.114  1.00  0.00    -0.237 NA 
BRANCH  11  12
HETATM   12  C   UNL     4     -12.317   7.411  70.887  1.00  0.00    -0.201 C  
HETATM   13  O   UNL     4     -13.623   8.727  72.439  1.00  0.00    -0.409 OA 
HETATM   14  O   UNL     4     -11.683   9.600  71.540  1.00  0.00    -0.371 OA 
HETATM   15  C   UNL     4     -12.627   8.733  71.675  1.00  0.00    -0.345 C  
ENDBRANCH  11  12
BRANCH  11  16
HETATM   16  C   UNL     4     -10.731   6.106  72.230  1.00  0.00    -0.229 C  
HETATM   17  C   UNL     4      -9.566   6.618  73.129  1.00  0.00    -0.152 C  
HETATM   18  O   UNL     4      -8.544   5.875  73.161  1.00  0.00    -0.120 OA 
HETATM   19  O   UNL     4      -9.720   7.855  73.456  1.00  0.00    -0.290 OA 
ENDBRANCH  11  16
ENDBRANCH  10  11
ENDBRANCH   9  10
ENDBRANCH   8   9
BRANCH   8  20
HETATM   20  C   UNL     4      -8.454   9.728  70.234  1.00  0.00    -0.126 C  
HETATM   21  C   UNL     4      -7.002   9.926  69.646  1.00  0.00    -0.086 C  
HETATM   22  O   UNL     4      -6.447  11.016  69.974  1.00  0.00    -0.132 OA 
HETATM   23  O   UNL     4      -6.521   8.997  68.909  1.00  0.00    -0.047 OA 
ENDBRANCH   8  20
ENDBRANCH   7   8
TORSDOF 7
ENDMDL
MODEL      346
REMARK 921   NORMALIZED FREE ENERGY PREDICTED BY IDOCK:   -2.79 KCAL/MOL
REMARK 922        TOTAL FREE ENERGY PREDICTED BY IDOCK:   -5.37 KCAL/MOL
REMARK 923 INTER-LIGAND FREE ENERGY PREDICTED BY IDOCK:   -4.67 KCAL/MOL
REMARK 924 INTRA-LIGAND FREE ENERGY PREDICTED BY IDOCK:   -0.70 KCAL/MOL
REMARK 927      BINDING AFFINITY PREDICTED BY RF-SCORE:    0.00 PKD
ROOT
HETATM    1 NA   UNL     1     -10.206  11.629  70.123  1.00  0.00    -0.408 Na 
HETATM    2 NA   UNL     2     -14.273  12.190  72.216  1.00  0.00    -0.288 Na 
HETATM    3 CA   UNL     3      -8.040   9.187  74.540  1.00  0.00    -0.189 Ca 
HETATM    4  O   UNL     4     -11.650  10.206  70.403  1.00  0.00    -0.273 OA 
HETATM    5  C   UNL     4     -12.313   9.897  71.436  1.00  0.00    -0.404 C  
HETATM    6  O   UNL     4     -12.948  10.768  72.123  1.00  0.00    -0.424 OA 
HETATM    7  C   UNL     4     -12.407   8.448  71.952  1.00  0.00    -0.347 C  
ENDROOT
BRANCH   7   8
HETATM    8  N   UNL     4     -11.389   7.456  71.508  1.00  0.00    -0.251 NA 
BRANCH   8   9
HETATM    9  C   UNL     4     -10.954   6.406  72.435  1.00  0.00    -0.250 C  
BRANCH   9  10
HETATM   10  C   UNL     4     -10.411   5.111  71.829  1.00  0.00    -0.209 C  
BRANCH  10  11
HETATM   11  N   UNL     4      -8.978   4.861  72.125  1.00  0.00    -0.130 NA 
BRANCH  11  12
HETATM   12  C   UNL     4      -8.619   3.409  72.206  1.00  0.00    -0.084 C  
HETATM   13  O   UNL     4      -6.858   2.591  73.647  1.00  0.00    -0.025 OA 
HETATM   14  O   UNL     4      -8.590   3.830  74.539  1.00  0.00    -0.087 OA 
HETATM   15  C   UNL     4      -7.959   3.191  73.614  1.00  0.00    -0.069 C  
ENDBRANCH  11  12
BRANCH  11  16
HETATM   16  C   UNL     4      -8.119   5.532  71.083  1.00  0.00    -0.112 C  
HETATM   17  C   UNL     4      -7.818   6.959  71.629  1.00  0.00    -0.100 C  
HETATM   18  O   UNL     4      -8.308   7.909  70.954  1.00  0.00    -0.110 OA 
HETATM   19  O   UNL     4      -7.372   6.926  72.839  1.00  0.00    -0.078 OA 
ENDBRANCH  11  16
ENDBRANCH  10  11
ENDBRANCH   9  10
ENDBRANCH   8   9
BRANCH   8  20
HETATM   20  C   UNL     4     -11.942   6.761  70.274  1.00  0.00    -0.236 C  
HETATM   21  C   UNL     4     -11.079   6.913  68.961  1.00  0.00    -0.136 C  
HETATM   22  O   UNL     4     -11.078   5.891  68.212  1.00  0.00    -0.258 OA 
HETATM   23  O   UNL     4     -10.471   8.022  68.767  1.00  0.00    -0.208 OA 
ENDBRANCH   8  20
ENDBRANCH   7   8
TORSDOF 7
ENDMDL
MODEL      347
REMARK 921   NORMALIZED FREE ENERGY PREDICTED BY IDOCK:   -2.78 KCAL/MOL
REMARK 922        TOTAL FREE ENERGY PREDICTED BY IDOCK:   -5.36 KCAL/MOL
REMARK 923 INTER-LIGAND FREE ENERGY PREDICTED BY IDOCK:   -4.86 KCAL/MOL
REMARK 924 INTRA-LIGAND FREE ENERGY PREDICTED BY IDOCK:   -0.51 KCAL/MOL
REMARK 927      BINDING AFFINITY PREDICTED BY RF-SCORE:    0.00 PKD
ROOT
HETATM    1 NA   UNL     1     -10.257  16.512  67.384  1.00  0.00    -0.241 Na 
HETATM    2 NA   UNL     2     -13.874  16.070  70.205  1.00  0.00    -0.801 Na 
HETATM    3 CA   UNL     3      -7.416  12.673  70.097  1.00  0.00    -0.307 Ca 
HETATM    4  O   UNL     4     -11.668  15.030  67.350  1.00  0.00    -0.338 OA 
HETATM    5  C   UNL     4     -12.147  14.326  68.287  1.00  0.00    -0.243 C  
HETATM    6  O   UNL     4     -12.627  14.845  69.352  1.00  0.00    -0.102 OA 
HETATM    7  C   UNL     4     -12.189  12.787  68.222  1.00  0.00     0.072 C  
ENDROOT
BRANCH   7   8
HETATM    8  N   UNL     4     -11.292  12.079  67.266  1.00  0.00    -0.310 NA 
BRANCH   8   9
HETATM    9  C   UNL     4     -11.149  10.623  67.356  1.00  0.00    -0.272 C  
BRANCH   9  10
HETATM   10  C   UNL     4     -10.456  10.058  68.597  1.00  0.00    -0.204 C  
BRANCH  10  11
HETATM   11  N   UNL     4      -8.985   9.911  68.451  1.00  0.00    -0.119 NA 
BRANCH  11  12
HETATM   12  C   UNL     4      -8.294  11.157  67.992  1.00  0.00    -0.134 C  
HETATM   13  O   UNL     4      -5.916  11.494  68.274  1.00  0.00    -0.046 OA 
HETATM   14  O   UNL     4      -6.687   9.626  67.156  1.00  0.00    -0.073 OA 
HETATM   15  C   UNL     4      -6.793  10.768  67.746  1.00  0.00    -0.073 C  
ENDBRANCH  11  12
BRANCH  11  16
HETATM   16  C   UNL     4      -8.389   9.459  69.761  1.00  0.00    -0.157 C  
HETATM   17  C   UNL     4      -8.600   7.918  69.820  1.00  0.00    -0.133 C  
HETATM   18  O   UNL     4      -9.372   7.514  70.736  1.00  0.00    -0.162 OA 
HETATM   19  O   UNL     4      -8.190   7.335  68.745  1.00  0.00    -0.126 OA 
ENDBRANCH  11  16
ENDBRANCH  10  11
ENDBRANCH   9  10
ENDBRANCH   8   9
BRANCH   8  20
HETATM   20  C   UNL     4     -11.789  12.394  65.864  1.00  0.00    -0.405 C  
HETATM   21  C   UNL     4     -10.668  12.602  64.773  1.00  0.00    -0.308 C  
HETATM   22  O   UNL     4     -10.971  12.174  63.620  1.00  0.00    -0.387 OA 
HETATM   23  O   UNL     4      -9.578  13.168  65.132  1.00  0.00     0.007 OA 
ENDBRANCH   8  20
ENDBRANCH   7   8
TORSDOF 7
ENDMDL
MODEL      348
REMARK 921   NORMALIZED FREE ENERGY PREDICTED BY IDOCK:   -2.78 KCAL/MOL
REMARK 922        TOTAL FREE ENERGY PREDICTED BY IDOCK:   -5.36 KCAL/MOL
REMARK 923 INTER-LIGAND FREE ENERGY PREDICTED BY IDOCK:   -6.05 KCAL/MOL
REMARK 924 INTRA-LIGAND FREE ENERGY PREDICTED BY IDOCK:    0.69 KCAL/MOL
REMARK 927      BINDING AFFINITY PREDICTED BY RF-SCORE:    0.00 PKD
ROOT
HETATM    1 NA   UNL     1     -13.311  14.715  66.435  1.00  0.00    -0.547 Na 
HETATM    2 NA   UNL     2     -14.203  12.312  62.605  1.00  0.00     0.055 Na 
HETATM    3 CA   UNL     3     -12.707  10.137  69.409  1.00  0.00    -0.512 Ca 
HETATM    4  O   UNL     4     -11.951  13.768  65.234  1.00  0.00    -0.341 OA 
HETATM    5  C   UNL     4     -11.956  12.601  64.744  1.00  0.00    -0.402 C  
HETATM    6  O   UNL     4     -12.952  12.143  64.085  1.00  0.00    -0.664 OA 
HETATM    7  C   UNL     4     -10.766  11.635  64.903  1.00  0.00    -0.296 C  
ENDROOT
BRANCH   7   8
HETATM    8  N   UNL     4      -9.772  11.885  65.984  1.00  0.00    -0.234 NA 
BRANCH   8   9
HETATM    9  C   UNL     4     -10.243  12.186  67.340  1.00  0.00    -0.198 C  
BRANCH   9  10
HETATM   10  C   UNL     4      -9.320  13.009  68.240  1.00  0.00    -0.199 C  
BRANCH  10  11
HETATM   11  N   UNL     4      -9.784  14.400  68.470  1.00  0.00    -0.222 NA 
BRANCH  11  12
HETATM   12  C   UNL     4     -10.092  14.709  69.903  1.00  0.00     0.264 C  
HETATM   13  O   UNL     4     -11.965  16.094  70.552  1.00  0.00    -0.299 OA 
HETATM   14  O   UNL     4     -12.317  14.227  69.240  1.00  0.00    -0.293 OA 
HETATM   15  C   UNL     4     -11.626  15.036  69.967  1.00  0.00    -0.287 C  
ENDBRANCH  11  12
BRANCH  11  16
HETATM   16  C   UNL     4      -8.750  15.372  67.958  1.00  0.00    -0.160 C  
HETATM   17  C   UNL     4      -9.512  16.359  67.025  1.00  0.00    -0.230 C  
HETATM   18  O   UNL     4      -9.182  16.313  65.806  1.00  0.00    -0.439 OA 
HETATM   19  O   UNL     4     -10.559  16.848  67.597  1.00  0.00    -0.328 OA 
ENDBRANCH  11  16
ENDBRANCH  10  11
ENDBRANCH   9  10
ENDBRANCH   8   9
BRANCH   8  20
HETATM   20  C   UNL     4      -8.889  10.651  66.081  1.00  0.00    -0.168 C  
HETATM   21  C   UNL     4      -8.589   9.918  64.716  1.00  0.00    -0.178 C  
HETATM   22  O   UNL     4      -7.428   9.419  64.632  1.00  0.00    -0.102 OA 
HETATM   23  O   UNL     4      -9.516   9.887  63.834  1.00  0.00    -0.273 OA 
ENDBRANCH   8  20
ENDBRANCH   7   8
TORSDOF 7
ENDMDL
MODEL      349
REMARK 921   NORMALIZED FREE ENERGY PREDICTED BY IDOCK:   -2.78 KCAL/MOL
REMARK 922        TOTAL FREE ENERGY PREDICTED BY IDOCK:   -5.36 KCAL/MOL
REMARK 923 INTER-LIGAND FREE ENERGY PREDICTED BY IDOCK:   -5.22 KCAL/MOL
REMARK 924 INTRA-LIGAND FREE ENERGY PREDICTED BY IDOCK:   -0.14 KCAL/MOL
REMARK 927      BINDING AFFINITY PREDICTED BY RF-SCORE:    0.00 PKD
ROOT
HETATM    1 NA   UNL     1     -11.414  17.787  64.782  1.00  0.00    -0.430 Na 
HETATM    2 NA   UNL     2      -7.223  19.691  64.986  1.00  0.00    -0.277 Na 
HETATM    3 CA   UNL     3      -9.347  12.903  63.351  1.00  0.00    -0.477 Ca 
HETATM    4  O   UNL     4     -10.049  17.596  66.296  1.00  0.00    -0.330 OA 
HETATM    5  C   UNL     4      -8.812  17.335  66.261  1.00  0.00    -0.215 C  
HETATM    6  O   UNL     4      -7.997  17.991  65.526  1.00  0.00    -0.381 OA 
HETATM    7  C   UNL     4      -8.184  16.205  67.101  1.00  0.00    -0.196 C  
ENDROOT
BRANCH   7   8
HETATM    8  N   UNL     4      -9.064  15.129  67.637  1.00  0.00    -0.178 NA 
BRANCH   8   9
HETATM    9  C   UNL     4      -9.102  13.828  66.963  1.00  0.00    -0.246 C  
BRANCH   9  10
HETATM   10  C   UNL     4     -10.468  13.160  66.797  1.00  0.00    -0.261 C  
BRANCH  10  11
HETATM   11  N   UNL     4     -10.726  12.064  67.765  1.00  0.00    -0.203 NA 
BRANCH  11  12
HETATM   12  C   UNL     4     -11.976  12.248  68.570  1.00  0.00    -0.219 C  
HETATM   13  O   UNL     4     -13.025  10.423  69.759  1.00  0.00    -0.059 OA 
HETATM   14  O   UNL     4     -10.810  10.936  70.165  1.00  0.00    -0.186 OA 
HETATM   15  C   UNL     4     -11.980  11.108  69.650  1.00  0.00    -0.359 C  
ENDBRANCH  11  12
BRANCH  11  16
HETATM   16  C   UNL     4     -10.788  10.746  67.035  1.00  0.00    -0.252 C  
HETATM   17  C   UNL     4      -9.313  10.268  66.886  1.00  0.00    -0.158 C  
HETATM   18  O   UNL     4      -8.883  10.207  65.699  1.00  0.00    -0.153 OA 
HETATM   19  O   UNL     4      -8.682  10.299  68.011  1.00  0.00    -0.121 OA 
ENDBRANCH  11  16
ENDBRANCH  10  11
ENDBRANCH   9  10
ENDBRANCH   8   9
BRANCH   8  20
HETATM   20  C   UNL     4      -8.643  14.876  69.076  1.00  0.00    -0.170 C  
HETATM   21  C   UNL     4      -7.218  14.223  69.265  1.00  0.00    -0.083 C  
HETATM   22  O   UNL     4      -6.587  14.627  70.286  1.00  0.00    -0.182 OA 
HETATM   23  O   UNL     4      -6.832  13.364  68.399  1.00  0.00    -0.084 OA 
ENDBRANCH   8  20
ENDBRANCH   7   8
TORSDOF 7
ENDMDL
MODEL      350
REMARK 921   NORMALIZED FREE ENERGY PREDICTED BY IDOCK:   -2.77 KCAL/MOL
REMARK 922        TOTAL FREE ENERGY PREDICTED BY IDOCK:   -5.35 KCAL/MOL
REMARK 923 INTER-LIGAND FREE ENERGY PREDICTED BY IDOCK:   -3.99 KCAL/MOL
REMARK 924 INTRA-LIGAND FREE ENERGY PREDICTED BY IDOCK:   -1.37 KCAL/MOL
REMARK 927      BINDING AFFINITY PREDICTED BY RF-SCORE:    0.00 PKD
ROOT
HETATM    1 NA   UNL     1      -7.399  12.664  69.126  1.00  0.00    -0.099 Na 
HETATM    2 NA   UNL     2      -9.359  16.459  67.398  1.00  0.00    -0.203 Na 
HETATM    3 CA   UNL     3     -12.241  10.103  69.531  1.00  0.00    -0.337 Ca 
HETATM    4  O   UNL     4      -8.039  12.950  67.203  1.00  0.00    -0.173 OA 
HETATM    5  C   UNL     4      -9.126  13.419  66.758  1.00  0.00    -0.212 C  
HETATM    6  O   UNL     4      -9.592  14.545  67.147  1.00  0.00    -0.220 OA 
HETATM    7  C   UNL     4      -9.979  12.674  65.712  1.00  0.00    -0.256 C  
ENDROOT
BRANCH   7   8
HETATM    8  N   UNL     4      -9.772  11.211  65.522  1.00  0.00    -0.217 NA 
BRANCH   8   9
HETATM    9  C   UNL     4     -10.520  10.264  66.354  1.00  0.00    -0.163 C  
BRANCH   9  10
HETATM   10  C   UNL     4     -10.100   8.794  66.300  1.00  0.00    -0.184 C  
BRANCH  10  11
HETATM   11  N   UNL     4      -9.052   8.430  67.287  1.00  0.00    -0.135 NA 
BRANCH  11  12
HETATM   12  C   UNL     4      -9.338   7.165  68.036  1.00  0.00    -0.129 C  
HETATM   13  O   UNL     4      -8.753   6.883  70.366  1.00  0.00    -0.144 OA 
HETATM   14  O   UNL     4     -10.082   8.658  69.722  1.00  0.00    -0.190 OA 
HETATM   15  C   UNL     4      -9.431   7.558  69.554  1.00  0.00    -0.156 C  
ENDBRANCH  11  12
BRANCH  11  16
HETATM   16  C   UNL     4      -7.719   8.310  66.592  1.00  0.00    -0.093 C  
HETATM   17  C   UNL     4      -6.874   9.527  67.071  1.00  0.00    -0.084 C  
HETATM   18  O   UNL     4      -6.577  10.365  66.173  1.00  0.00    -0.096 OA 
HETATM   19  O   UNL     4      -6.869   9.632  68.356  1.00  0.00    -0.060 OA 
ENDBRANCH  11  16
ENDBRANCH  10  11
ENDBRANCH   9  10
ENDBRANCH   8   9
BRANCH   8  20
HETATM   20  C   UNL     4     -10.105  10.893  64.072  1.00  0.00    -0.358 C  
HETATM   21  C   UNL     4      -8.912  10.328  63.207  1.00  0.00    -0.242 C  
HETATM   22  O   UNL     4      -9.251   9.460  62.348  1.00  0.00    -0.258 OA 
HETATM   23  O   UNL     4      -7.737  10.780  63.436  1.00  0.00     0.021 OA 
ENDBRANCH   8  20
ENDBRANCH   7   8
TORSDOF 7
ENDMDL
MODEL      351
REMARK 921   NORMALIZED FREE ENERGY PREDICTED BY IDOCK:   -2.75 KCAL/MOL
REMARK 922        TOTAL FREE ENERGY PREDICTED BY IDOCK:   -5.32 KCAL/MOL
REMARK 923 INTER-LIGAND FREE ENERGY PREDICTED BY IDOCK:   -4.25 KCAL/MOL
REMARK 924 INTRA-LIGAND FREE ENERGY PREDICTED BY IDOCK:   -1.06 KCAL/MOL
REMARK 927      BINDING AFFINITY PREDICTED BY RF-SCORE:    0.00 PKD
ROOT
HETATM    1 NA   UNL     1     -11.656   5.088  66.397  1.00  0.00    -0.505 Na 
HETATM    2 NA   UNL     2     -10.214   9.050  64.537  1.00  0.00    -0.308 Na 
HETATM    3 CA   UNL     3      -6.700   4.047  68.523  1.00  0.00    -0.037 Ca 
HETATM    4  O   UNL     4     -11.377   6.870  67.364  1.00  0.00    -0.227 OA 
HETATM    5  C   UNL     4     -10.408   7.683  67.330  1.00  0.00    -0.297 C  
HETATM    6  O   UNL     4      -9.936   8.134  66.230  1.00  0.00    -0.207 OA 
HETATM    7  C   UNL     4      -9.716   8.195  68.608  1.00  0.00    -0.153 C  
ENDROOT
BRANCH   7   8
HETATM    8  N   UNL     4      -9.882   7.430  69.875  1.00  0.00    -0.178 NA 
BRANCH   8   9
HETATM    9  C   UNL     4      -9.295   6.092  69.990  1.00  0.00    -0.153 C  
BRANCH   9  10
HETATM   10  C   UNL     4     -10.137   5.009  70.668  1.00  0.00    -0.243 C  
BRANCH  10  11
HETATM   11  N   UNL     4      -9.345   4.049  71.478  1.00  0.00    -0.132 NA 
BRANCH  11  12
HETATM   12  C   UNL     4      -7.962   3.811  70.956  1.00  0.00    -0.062 C  
HETATM   13  O   UNL     4      -6.816   1.702  71.250  1.00  0.00    -0.023 OA 
HETATM   14  O   UNL     4      -8.888   1.751  70.233  1.00  0.00    -0.058 OA 
HETATM   15  C   UNL     4      -7.824   2.260  70.753  1.00  0.00    -0.042 C  
ENDBRANCH  11  12
BRANCH  11  16
HETATM   16  C   UNL     4      -9.267   4.533  72.905  1.00  0.00    -0.123 C  
HETATM   17  C   UNL     4     -10.308   3.691  73.701  1.00  0.00    -0.163 C  
HETATM   18  O   UNL     4     -11.278   4.345  74.178  1.00  0.00    -0.225 OA 
HETATM   19  O   UNL     4     -10.165   2.427  73.491  1.00  0.00    -0.100 OA 
ENDBRANCH  11  16
ENDBRANCH  10  11
ENDBRANCH   9  10
ENDBRANCH   8   9
BRANCH   8  20
HETATM   20  C   UNL     4      -9.292   8.275  70.994  1.00  0.00    -0.162 C  
HETATM   21  C   UNL     4     -10.058   8.213  72.372  1.00  0.00    -0.285 C  
HETATM   22  O   UNL     4      -9.309   8.273  73.392  1.00  0.00    -0.236 OA 
HETATM   23  O   UNL     4     -11.333   8.112  72.347  1.00  0.00    -0.336 OA 
ENDBRANCH   8  20
ENDBRANCH   7   8
TORSDOF 7
ENDMDL
MODEL      352
REMARK 921   NORMALIZED FREE ENERGY PREDICTED BY IDOCK:   -2.75 KCAL/MOL
REMARK 922        TOTAL FREE ENERGY PREDICTED BY IDOCK:   -5.31 KCAL/MOL
REMARK 923 INTER-LIGAND FREE ENERGY PREDICTED BY IDOCK:   -4.34 KCAL/MOL
REMARK 924 INTRA-LIGAND FREE ENERGY PREDICTED BY IDOCK:   -0.97 KCAL/MOL
REMARK 927      BINDING AFFINITY PREDICTED BY RF-SCORE:    0.00 PKD
ROOT
HETATM    1 NA   UNL     1      -5.572   6.543  68.229  1.00  0.00    -0.007 Na 
HETATM    2 NA   UNL     2      -7.399   4.611  64.465  1.00  0.00    -0.057 Na 
HETATM    3 CA   UNL     3      -7.216  11.556  66.701  1.00  0.00    -0.106 Ca 
HETATM    4  O   UNL     4      -7.546   6.112  67.903  1.00  0.00    -0.097 OA 
HETATM    5  C   UNL     4      -8.284   6.339  66.901  1.00  0.00    -0.109 C  
HETATM    6  O   UNL     4      -7.949   5.995  65.716  1.00  0.00    -0.103 OA 
HETATM    7  C   UNL     4      -9.647   7.050  67.024  1.00  0.00    -0.157 C  
ENDROOT
BRANCH   7   8
HETATM    8  N   UNL     4      -9.931   7.860  68.242  1.00  0.00    -0.174 NA 
BRANCH   8   9
HETATM    9  C   UNL     4     -10.429   9.231  68.095  1.00  0.00    -0.215 C  
BRANCH   9  10
HETATM   10  C   UNL     4     -10.237  10.182  69.278  1.00  0.00    -0.223 C  
BRANCH  10  11
HETATM   11  N   UNL     4     -11.192  11.318  69.299  1.00  0.00    -0.251 NA 
BRANCH  11  12
HETATM   12  C   UNL     4     -11.311  12.035  67.989  1.00  0.00    -0.296 C  
HETATM   13  O   UNL     4     -11.745  14.410  67.852  1.00  0.00    -0.325 OA 
HETATM   14  O   UNL     4      -9.933  13.641  69.059  1.00  0.00    -0.068 OA 
HETATM   15  C   UNL     4     -10.947  13.537  68.269  1.00  0.00    -0.258 C  
ENDBRANCH  11  12
BRANCH  11  16
HETATM   16  C   UNL     4     -12.553  10.830  69.729  1.00  0.00    -0.058 C  
HETATM   17  C   UNL     4     -12.743  11.323  71.193  1.00  0.00    -0.390 C  
HETATM   18  O   UNL     4     -12.817  10.410  72.065  1.00  0.00    -0.431 OA 
HETATM   19  O   UNL     4     -12.497  12.584  71.311  1.00  0.00    -0.305 OA 
ENDBRANCH  11  16
ENDBRANCH  10  11
ENDBRANCH   9  10
ENDBRANCH   8   9
BRANCH   8  20
HETATM   20  C   UNL     4     -10.958   7.096  69.063  1.00  0.00    -0.089 C  
HETATM   21  C   UNL     4     -10.461   6.586  70.472  1.00  0.00    -0.207 C  
HETATM   22  O   UNL     4     -11.344   6.611  71.380  1.00  0.00    -0.263 OA 
HETATM   23  O   UNL     4      -9.247   6.199  70.577  1.00  0.00    -0.155 OA 
ENDBRANCH   8  20
ENDBRANCH   7   8
TORSDOF 7
ENDMDL
MODEL      353
REMARK 921   NORMALIZED FREE ENERGY PREDICTED BY IDOCK:   -2.74 KCAL/MOL
REMARK 922        TOTAL FREE ENERGY PREDICTED BY IDOCK:   -5.30 KCAL/MOL
REMARK 923 INTER-LIGAND FREE ENERGY PREDICTED BY IDOCK:   -4.92 KCAL/MOL
REMARK 924 INTRA-LIGAND FREE ENERGY PREDICTED BY IDOCK:   -0.38 KCAL/MOL
REMARK 927      BINDING AFFINITY PREDICTED BY RF-SCORE:    0.00 PKD
ROOT
HETATM    1 NA   UNL     1      -5.388  16.868  65.792  1.00  0.00    -0.145 Na 
HETATM    2 NA   UNL     2      -5.223  16.410  70.374  1.00  0.00    -0.124 Na 
HETATM    3 CA   UNL     3      -6.447  11.524  65.093  1.00  0.00    -0.357 Ca 
HETATM    4  O   UNL     4      -6.980  16.720  67.070  1.00  0.00    -0.165 OA 
HETATM    5  C   UNL     4      -7.201  15.913  68.020  1.00  0.00    -0.132 C  
HETATM    6  O   UNL     4      -6.352  15.710  68.953  1.00  0.00    -0.108 OA 
HETATM    7  C   UNL     4      -8.511  15.107  68.128  1.00  0.00    -0.152 C  
ENDROOT
BRANCH   7   8
HETATM    8  N   UNL     4      -9.355  14.934  66.913  1.00  0.00    -0.229 NA 
BRANCH   8   9
HETATM    9  C   UNL     4     -10.403  13.909  66.905  1.00  0.00    -0.266 C  
BRANCH   9  10
HETATM   10  C   UNL     4     -10.039  12.533  66.344  1.00  0.00    -0.243 C  
BRANCH  10  11
HETATM   11  N   UNL     4      -9.673  11.537  67.382  1.00  0.00    -0.178 NA 
BRANCH  11  12
HETATM   12  C   UNL     4      -8.196  11.375  67.573  1.00  0.00    -0.130 C  
HETATM   13  O   UNL     4      -7.224   9.353  68.475  1.00  0.00    -0.070 OA 
HETATM   14  O   UNL     4      -8.585   9.242  66.613  1.00  0.00    -0.124 OA 
HETATM   15  C   UNL     4      -7.910   9.832  67.539  1.00  0.00    -0.095 C  
ENDBRANCH  11  12
BRANCH  11  16
HETATM   16  C   UNL     4     -10.310  11.915  68.696  1.00  0.00    -0.203 C  
HETATM   17  C   UNL     4     -11.357  10.803  69.001  1.00  0.00    -0.284 C  
HETATM   18  O   UNL     4     -12.562  11.183  69.007  1.00  0.00    -0.370 OA 
HETATM   19  O   UNL     4     -10.846   9.623  68.903  1.00  0.00    -0.221 OA 
ENDBRANCH  11  16
ENDBRANCH  10  11
ENDBRANCH   9  10
ENDBRANCH   8   9
BRANCH   8  20
HETATM   20  C   UNL     4     -10.032  16.268  66.640  1.00  0.00    -0.264 C  
HETATM   21  C   UNL     4     -10.790  16.913  67.865  1.00  0.00    -0.310 C  
HETATM   22  O   UNL     4     -10.730  18.178  67.913  1.00  0.00    -0.396 OA 
HETATM   23  O   UNL     4     -11.385  16.130  68.682  1.00  0.00    -0.354 OA 
ENDBRANCH   8  20
ENDBRANCH   7   8
TORSDOF 7
ENDMDL
MODEL      354
REMARK 921   NORMALIZED FREE ENERGY PREDICTED BY IDOCK:   -2.73 KCAL/MOL
REMARK 922        TOTAL FREE ENERGY PREDICTED BY IDOCK:   -5.29 KCAL/MOL
REMARK 923 INTER-LIGAND FREE ENERGY PREDICTED BY IDOCK:   -4.11 KCAL/MOL
REMARK 924 INTRA-LIGAND FREE ENERGY PREDICTED BY IDOCK:   -1.19 KCAL/MOL
REMARK 927      BINDING AFFINITY PREDICTED BY RF-SCORE:    0.00 PKD
ROOT
HETATM    1 NA   UNL     1      -9.383   6.433  62.795  1.00  0.00    -0.337 Na 
HETATM    2 NA   UNL     2     -11.170   2.396  64.117  1.00  0.00    -0.397 Na 
HETATM    3 CA   UNL     3     -11.755   9.084  66.980  1.00  0.00    -0.230 Ca 
HETATM    4  O   UNL     4      -8.717   5.232  64.312  1.00  0.00    -0.121 OA 
HETATM    5  C   UNL     4      -9.348   4.657  65.246  1.00  0.00    -0.157 C  
HETATM    6  O   UNL     4     -10.368   3.918  65.025  1.00  0.00    -0.180 OA 
HETATM    7  C   UNL     4      -8.943   4.802  66.727  1.00  0.00    -0.111 C  
ENDROOT
BRANCH   7   8
HETATM    8  N   UNL     4      -8.078   5.945  67.130  1.00  0.00    -0.102 NA 
BRANCH   8   9
HETATM    9  C   UNL     4      -8.146   7.201  66.376  1.00  0.00    -0.116 C  
BRANCH   9  10
HETATM   10  C   UNL     4      -9.430   8.023  66.491  1.00  0.00    -0.214 C  
BRANCH  10  11
HETATM   11  N   UNL     4      -9.279   9.439  66.069  1.00  0.00    -0.183 NA 
BRANCH  11  12
HETATM   12  C   UNL     4      -9.018  10.384  67.201  1.00  0.00    -0.139 C  
HETATM   13  O   UNL     4      -9.419  12.762  67.016  1.00  0.00    -0.218 OA 
HETATM   14  O   UNL     4     -11.128  11.272  66.582  1.00  0.00    -0.289 OA 
HETATM   15  C   UNL     4      -9.950  11.626  66.967  1.00  0.00    -0.204 C  
ENDBRANCH  11  12
BRANCH  11  16
HETATM   16  C   UNL     4      -8.168   9.551  65.055  1.00  0.00    -0.136 C  
HETATM   17  C   UNL     4      -8.865   9.700  63.671  1.00  0.00    -0.232 C  
HETATM   18  O   UNL     4      -8.674   8.744  62.865  1.00  0.00    -0.158 OA 
HETATM   19  O   UNL     4      -9.759  10.629  63.680  1.00  0.00    -0.280 OA 
ENDBRANCH  11  16
ENDBRANCH  10  11
ENDBRANCH   9  10
ENDBRANCH   8   9
BRANCH   8  20
HETATM   20  C   UNL     4      -8.409   6.273  68.578  1.00  0.00    -0.115 C  
HETATM   21  C   UNL     4      -7.182   6.681  69.483  1.00  0.00    -0.082 C  
HETATM   22  O   UNL     4      -7.441   7.567  70.351  1.00  0.00    -0.078 OA 
HETATM   23  O   UNL     4      -6.062   6.100  69.272  1.00  0.00    -0.026 OA 
ENDBRANCH   8  20
ENDBRANCH   7   8
TORSDOF 7
ENDMDL
MODEL      355
REMARK 921   NORMALIZED FREE ENERGY PREDICTED BY IDOCK:   -2.72 KCAL/MOL
REMARK 922        TOTAL FREE ENERGY PREDICTED BY IDOCK:   -5.28 KCAL/MOL
REMARK 923 INTER-LIGAND FREE ENERGY PREDICTED BY IDOCK:   -4.91 KCAL/MOL
REMARK 924 INTRA-LIGAND FREE ENERGY PREDICTED BY IDOCK:   -0.37 KCAL/MOL
REMARK 927      BINDING AFFINITY PREDICTED BY RF-SCORE:    0.00 PKD
ROOT
HETATM    1 NA   UNL     1     -14.046  10.063  69.479  1.00  0.00    -0.507 Na 
HETATM    2 NA   UNL     2     -12.259  13.618  71.804  1.00  0.00    -0.309 Na 
HETATM    3 CA   UNL     3     -13.735  12.766  64.708  1.00  0.00    -0.720 Ca 
HETATM    4  O   UNL     4     -12.073  10.599  69.579  1.00  0.00    -0.283 OA 
HETATM    5  C   UNL     4     -11.518  11.728  69.441  1.00  0.00    -0.307 C  
HETATM    6  O   UNL     4     -11.896  12.758  70.097  1.00  0.00    -0.319 OA 
HETATM    7  C   UNL     4     -10.343  11.956  68.470  1.00  0.00    -0.218 C  
ENDROOT
BRANCH   7   8
HETATM    8  N   UNL     4     -10.115  10.977  67.371  1.00  0.00    -0.182 NA 
BRANCH   8   9
HETATM    9  C   UNL     4     -10.101   9.542  67.675  1.00  0.00    -0.205 C  
BRANCH   9  10
HETATM   10  C   UNL     4      -8.786   8.940  68.173  1.00  0.00    -0.134 C  
BRANCH  10  11
HETATM   11  N   UNL     4      -7.625   9.214  67.289  1.00  0.00    -0.088 NA 
BRANCH  11  12
HETATM   12  C   UNL     4      -7.154  10.636  67.330  1.00  0.00    -0.090 C  
HETATM   13  O   UNL     4      -5.232  11.397  66.076  1.00  0.00    -0.249 OA 
HETATM   14  O   UNL     4      -6.979  10.355  64.982  1.00  0.00    -0.128 OA 
HETATM   15  C   UNL     4      -6.375  10.885  65.990  1.00  0.00    -0.102 C  
ENDBRANCH  11  12
BRANCH  11  16
HETATM   16  C   UNL     4      -6.483   8.297  67.652  1.00  0.00    -0.057 C  
HETATM   17  C   UNL     4      -6.727   6.977  66.863  1.00  0.00    -0.056 C  
HETATM   18  O   UNL     4      -6.963   5.959  67.575  1.00  0.00    -0.065 OA 
HETATM   19  O   UNL     4      -6.940   7.198  65.611  1.00  0.00    -0.058 OA 
ENDBRANCH  11  16
ENDBRANCH  10  11
ENDBRANCH   9  10
ENDBRANCH   8   9
BRANCH   8  20
HETATM   20  C   UNL     4     -11.201  11.203  66.331  1.00  0.00    -0.046 C  
HETATM   21  C   UNL     4     -10.713  11.799  64.953  1.00  0.00    -0.295 C  
HETATM   22  O   UNL     4     -11.339  11.363  63.941  1.00  0.00    -0.370 OA 
HETATM   23  O   UNL     4      -9.756  12.648  64.971  1.00  0.00    -0.120 OA 
ENDBRANCH   8  20
ENDBRANCH   7   8
TORSDOF 7
ENDMDL
MODEL      356
REMARK 921   NORMALIZED FREE ENERGY PREDICTED BY IDOCK:   -2.71 KCAL/MOL
REMARK 922        TOTAL FREE ENERGY PREDICTED BY IDOCK:   -5.26 KCAL/MOL
REMARK 923 INTER-LIGAND FREE ENERGY PREDICTED BY IDOCK:   -6.09 KCAL/MOL
REMARK 924 INTRA-LIGAND FREE ENERGY PREDICTED BY IDOCK:    0.83 KCAL/MOL
REMARK 927      BINDING AFFINITY PREDICTED BY RF-SCORE:    0.00 PKD
ROOT
HETATM    1 NA   UNL     1     -11.798  17.779  67.564  1.00  0.00    -0.021 Na 
HETATM    2 NA   UNL     2      -7.638  18.850  65.897  1.00  0.00    -0.230 Na 
HETATM    3 CA   UNL     3     -13.027  14.781  63.129  1.00  0.00    -0.809 Ca 
HETATM    4  O   UNL     4     -10.135  16.587  67.551  1.00  0.00    -0.255 OA 
HETATM    5  C   UNL     4      -9.314  16.327  66.624  1.00  0.00    -0.248 C  
HETATM    6  O   UNL     4      -8.737  17.246  65.948  1.00  0.00    -0.528 OA 
HETATM    7  C   UNL     4      -8.943  14.883  66.231  1.00  0.00    -0.158 C  
ENDROOT
BRANCH   7   8
HETATM    8  N   UNL     4      -9.849  13.771  66.632  1.00  0.00    -0.276 NA 
BRANCH   8   9
HETATM    9  C   UNL     4      -9.883  13.340  68.033  1.00  0.00    -0.230 C  
BRANCH   9  10
HETATM   10  C   UNL     4     -10.982  12.358  68.443  1.00  0.00    -0.241 C  
BRANCH  10  11
HETATM   11  N   UNL     4     -10.598  10.931  68.304  1.00  0.00    -0.178 NA 
BRANCH  11  12
HETATM   12  C   UNL     4      -9.232  10.723  67.727  1.00  0.00    -0.152 C  
HETATM   13  O   UNL     4      -8.712   8.862  66.274  1.00  0.00    -0.128 OA 
HETATM   14  O   UNL     4     -10.441  10.293  65.733  1.00  0.00    -0.196 OA 
HETATM   15  C   UNL     4      -9.426   9.884  66.414  1.00  0.00    -0.183 C  
ENDBRANCH  11  12
BRANCH  11  16
HETATM   16  C   UNL     4     -10.684  10.249  69.647  1.00  0.00    -0.264 C  
HETATM   17  C   UNL     4      -9.230   9.827  70.008  1.00  0.00    -0.229 C  
HETATM   18  O   UNL     4      -9.030   8.581  70.074  1.00  0.00    -0.138 OA 
HETATM   19  O   UNL     4      -8.401  10.808  69.889  1.00  0.00     0.180 OA 
ENDBRANCH  11  16
ENDBRANCH  10  11
ENDBRANCH   9  10
ENDBRANCH   8   9
BRANCH   8  20
HETATM   20  C   UNL     4     -11.264  14.182  66.256  1.00  0.00    -0.329 C  
HETATM   21  C   UNL     4     -11.875  13.451  64.998  1.00  0.00    -0.352 C  
HETATM   22  O   UNL     4     -13.117  13.218  65.078  1.00  0.00    -0.737 OA 
HETATM   23  O   UNL     4     -11.089  13.163  64.030  1.00  0.00    -0.384 OA 
ENDBRANCH   8  20
ENDBRANCH   7   8
TORSDOF 7
ENDMDL
MODEL      357
REMARK 921   NORMALIZED FREE ENERGY PREDICTED BY IDOCK:   -2.70 KCAL/MOL
REMARK 922        TOTAL FREE ENERGY PREDICTED BY IDOCK:   -5.25 KCAL/MOL
REMARK 923 INTER-LIGAND FREE ENERGY PREDICTED BY IDOCK:   -4.49 KCAL/MOL
REMARK 924 INTRA-LIGAND FREE ENERGY PREDICTED BY IDOCK:   -0.76 KCAL/MOL
REMARK 927      BINDING AFFINITY PREDICTED BY RF-SCORE:    0.00 PKD
ROOT
HETATM    1 NA   UNL     1     -10.430  10.108  64.184  1.00  0.00    -0.330 Na 
HETATM    2 NA   UNL     2      -6.288   8.867  62.591  1.00  0.00    -0.089 Na 
HETATM    3 CA   UNL     3     -10.614   5.830  67.623  1.00  0.00    -0.142 Ca 
HETATM    4  O   UNL     4      -8.624  10.397  65.101  1.00  0.00    -0.169 OA 
HETATM    5  C   UNL     4      -7.659   9.601  65.290  1.00  0.00    -0.113 C  
HETATM    6  O   UNL     4      -7.138   8.923  64.339  1.00  0.00    -0.087 OA 
HETATM    7  C   UNL     4      -7.033   9.379  66.681  1.00  0.00    -0.081 C  
ENDROOT
BRANCH   7   8
HETATM    8  N   UNL     4      -7.811   9.763  67.892  1.00  0.00    -0.090 NA 
BRANCH   8   9
HETATM    9  C   UNL     4      -8.007  11.182  68.203  1.00  0.00    -0.125 C  
BRANCH   9  10
HETATM   10  C   UNL     4      -9.446  11.685  68.325  1.00  0.00    -0.191 C  
BRANCH  10  11
HETATM   11  N   UNL     4      -9.656  13.051  67.783  1.00  0.00    -0.201 NA 
BRANCH  11  12
HETATM   12  C   UNL     4      -8.467  13.950  67.928  1.00  0.00    -0.177 C  
HETATM   13  O   UNL     4      -8.536  16.291  67.324  1.00  0.00    -0.166 OA 
HETATM   14  O   UNL     4     -10.059  15.450  68.842  1.00  0.00    -0.202 OA 
HETATM   15  C   UNL     4      -9.027  15.410  68.071  1.00  0.00    -0.171 C  
ENDBRANCH  11  12
BRANCH  11  16
HETATM   16  C   UNL     4     -10.046  12.966  66.329  1.00  0.00    -0.276 C  
HETATM   17  C   UNL     4     -11.603  12.942  66.303  1.00  0.00    -0.372 C  
HETATM   18  O   UNL     4     -12.119  11.872  65.871  1.00  0.00    -0.474 OA 
HETATM   19  O   UNL     4     -12.109  13.901  67.001  1.00  0.00    -0.420 OA 
ENDBRANCH  11  16
ENDBRANCH  10  11
ENDBRANCH   9  10
ENDBRANCH   8   9
BRANCH   8  20
HETATM   20  C   UNL     4      -9.191   9.139  67.759  1.00  0.00    -0.133 C  
HETATM   21  C   UNL     4      -9.528   7.998  68.796  1.00  0.00    -0.147 C  
HETATM   22  O   UNL     4     -10.737   7.974  69.176  1.00  0.00    -0.199 OA 
HETATM   23  O   UNL     4      -8.582   7.216  69.157  1.00  0.00    -0.132 OA 
ENDBRANCH   8  20
ENDBRANCH   7   8
TORSDOF 7
ENDMDL
MODEL      358
REMARK 921   NORMALIZED FREE ENERGY PREDICTED BY IDOCK:   -2.69 KCAL/MOL
REMARK 922        TOTAL FREE ENERGY PREDICTED BY IDOCK:   -5.24 KCAL/MOL
REMARK 923 INTER-LIGAND FREE ENERGY PREDICTED BY IDOCK:   -3.86 KCAL/MOL
REMARK 924 INTRA-LIGAND FREE ENERGY PREDICTED BY IDOCK:   -1.37 KCAL/MOL
REMARK 927      BINDING AFFINITY PREDICTED BY RF-SCORE:    0.00 PKD
ROOT
HETATM    1 NA   UNL     1      -7.682   5.739  64.387  1.00  0.00    -0.064 Na 
HETATM    2 NA   UNL     2     -11.315   2.921  64.688  1.00  0.00    -0.428 Na 
HETATM    3 CA   UNL     3     -10.898  10.175  64.006  1.00  0.00    -0.408 Ca 
HETATM    4  O   UNL     4      -8.839   5.399  66.040  1.00  0.00    -0.134 OA 
HETATM    5  C   UNL     4     -10.097   5.374  66.174  1.00  0.00    -0.135 C  
HETATM    6  O   UNL     4     -10.848   4.660  65.424  1.00  0.00    -0.252 OA 
HETATM    7  C   UNL     4     -10.829   6.201  67.249  1.00  0.00    -0.352 C  
ENDROOT
BRANCH   7   8
HETATM    8  N   UNL     4     -10.130   7.362  67.866  1.00  0.00    -0.169 NA 
BRANCH   8   9
HETATM    9  C   UNL     4     -10.686   8.709  67.701  1.00  0.00    -0.124 C  
BRANCH   9  10
HETATM   10  C   UNL     4     -10.346   9.460  66.413  1.00  0.00    -0.167 C  
BRANCH  10  11
HETATM   11  N   UNL     4      -8.892   9.683  66.211  1.00  0.00    -0.147 NA 
BRANCH  11  12
HETATM   12  C   UNL     4      -8.316   8.923  65.057  1.00  0.00    -0.165 C  
HETATM   13  O   UNL     4      -5.932   8.696  64.721  1.00  0.00    -0.062 OA 
HETATM   14  O   UNL     4      -6.879   8.031  66.719  1.00  0.00    -0.069 OA 
HETATM   15  C   UNL     4      -6.884   8.456  65.502  1.00  0.00    -0.070 C  
ENDBRANCH  11  12
BRANCH  11  16
HETATM   16  C   UNL     4      -8.626  11.156  66.026  1.00  0.00    -0.154 C  
HETATM   17  C   UNL     4      -8.411  11.737  67.454  1.00  0.00    -0.158 C  
HETATM   18  O   UNL     4      -9.284  12.568  67.836  1.00  0.00    -0.185 OA 
HETATM   19  O   UNL     4      -7.547  11.055  68.125  1.00  0.00    -0.088 OA 
ENDBRANCH  11  16
ENDBRANCH  10  11
ENDBRANCH   9  10
ENDBRANCH   8   9
BRANCH   8  20
HETATM   20  C   UNL     4     -10.042   7.094  69.360  1.00  0.00    -0.176 C  
HETATM   21  C   UNL     4      -8.604   6.738  69.906  1.00  0.00    -0.141 C  
HETATM   22  O   UNL     4      -8.356   7.186  71.065  1.00  0.00    -0.121 OA 
HETATM   23  O   UNL     4      -7.832   6.045  69.157  1.00  0.00    -0.096 OA 
ENDBRANCH   8  20
ENDBRANCH   7   8
TORSDOF 7
ENDMDL
MODEL      359
REMARK 921   NORMALIZED FREE ENERGY PREDICTED BY IDOCK:   -2.68 KCAL/MOL
REMARK 922        TOTAL FREE ENERGY PREDICTED BY IDOCK:   -5.22 KCAL/MOL
REMARK 923 INTER-LIGAND FREE ENERGY PREDICTED BY IDOCK:   -4.90 KCAL/MOL
REMARK 924 INTRA-LIGAND FREE ENERGY PREDICTED BY IDOCK:   -0.32 KCAL/MOL
REMARK 927      BINDING AFFINITY PREDICTED BY RF-SCORE:    0.00 PKD
ROOT
HETATM    1 NA   UNL     1      -5.877   8.763  71.326  1.00  0.00    -0.031 Na 
HETATM    2 NA   UNL     2      -8.316   6.292  74.356  1.00  0.00    -0.114 Na 
HETATM    3 CA   UNL     3      -8.594   6.602  67.070  1.00  0.00    -0.107 Ca 
HETATM    4  O   UNL     4      -7.780   9.145  71.974  1.00  0.00    -0.331 OA 
HETATM    5  C   UNL     4      -8.781   8.379  72.090  1.00  0.00    -0.205 C  
HETATM    6  O   UNL     4      -8.720   7.270  72.724  1.00  0.00    -0.118 OA 
HETATM    7  C   UNL     4     -10.153   8.716  71.475  1.00  0.00    -0.274 C  
ENDROOT
BRANCH   7   8
HETATM    8  N   UNL     4     -10.226   9.726  70.382  1.00  0.00    -0.284 NA 
BRANCH   8   9
HETATM    9  C   UNL     4     -10.108   9.288  68.988  1.00  0.00    -0.199 C  
BRANCH   9  10
HETATM   10  C   UNL     4      -8.782   9.556  68.275  1.00  0.00    -0.120 C  
BRANCH  10  11
HETATM   11  N   UNL     4      -8.693  10.901  67.653  1.00  0.00    -0.126 NA 
BRANCH  11  12
HETATM   12  C   UNL     4      -7.348  11.213  67.070  1.00  0.00    -0.128 C  
HETATM   13  O   UNL     4      -6.353  13.412  67.220  1.00  0.00    -0.291 OA 
HETATM   14  O   UNL     4      -7.012  12.315  69.143  1.00  0.00    -0.098 OA 
HETATM   15  C   UNL     4      -6.785  12.435  67.880  1.00  0.00    -0.100 C  
ENDBRANCH  11  12
BRANCH  11  16
HETATM   16  C   UNL     4      -9.747  11.037  66.583  1.00  0.00    -0.195 C  
HETATM   17  C   UNL     4     -10.724  12.143  67.081  1.00  0.00    -0.232 C  
HETATM   18  O   UNL     4     -11.900  11.752  67.330  1.00  0.00    -0.596 OA 
HETATM   19  O   UNL     4     -10.097  13.211  67.440  1.00  0.00    -0.225 OA 
ENDBRANCH  11  16
ENDBRANCH  10  11
ENDBRANCH   9  10
ENDBRANCH   8   9
BRANCH   8  20
HETATM   20  C   UNL     4     -11.562  10.440  70.515  1.00  0.00    -0.344 C  
HETATM   21  C   UNL     4     -12.726   9.594  71.164  1.00  0.00    -0.320 C  
HETATM   22  O   UNL     4     -13.519  10.263  71.892  1.00  0.00    -0.377 OA 
HETATM   23  O   UNL     4     -12.773   8.342  70.908  1.00  0.00    -0.088 OA 
ENDBRANCH   8  20
ENDBRANCH   7   8
TORSDOF 7
ENDMDL
MODEL      360
REMARK 921   NORMALIZED FREE ENERGY PREDICTED BY IDOCK:   -2.66 KCAL/MOL
REMARK 922        TOTAL FREE ENERGY PREDICTED BY IDOCK:   -5.19 KCAL/MOL
REMARK 923 INTER-LIGAND FREE ENERGY PREDICTED BY IDOCK:   -5.09 KCAL/MOL
REMARK 924 INTRA-LIGAND FREE ENERGY PREDICTED BY IDOCK:   -0.10 KCAL/MOL
REMARK 927      BINDING AFFINITY PREDICTED BY RF-SCORE:    0.00 PKD
ROOT
HETATM    1 NA   UNL     1      -7.968   7.614  64.602  1.00  0.00    -0.091 Na 
HETATM    2 NA   UNL     2     -11.936   6.424  66.622  1.00  0.00    -0.592 Na 
HETATM    3 CA   UNL     3      -9.731  12.737  63.697  1.00  0.00    -0.414 Ca 
HETATM    4  O   UNL     4      -8.557   8.058  66.511  1.00  0.00    -0.128 OA 
HETATM    5  C   UNL     4      -9.652   8.517  66.950  1.00  0.00    -0.197 C  
HETATM    6  O   UNL     4     -10.778   7.987  66.659  1.00  0.00    -0.215 OA 
HETATM    7  C   UNL     4      -9.718   9.753  67.869  1.00  0.00    -0.144 C  
ENDROOT
BRANCH   7   8
HETATM    8  N   UNL     4      -8.555  10.682  67.915  1.00  0.00    -0.123 NA 
BRANCH   8   9
HETATM    9  C   UNL     4      -8.761  12.074  68.327  1.00  0.00    -0.178 C  
BRANCH   9  10
HETATM   10  C   UNL     4      -8.502  13.163  67.284  1.00  0.00    -0.198 C  
BRANCH  10  11
HETATM   11  N   UNL     4      -9.623  13.365  66.333  1.00  0.00    -0.272 NA 
BRANCH  11  12
HETATM   12  C   UNL     4     -10.975  13.106  66.924  1.00  0.00    -0.276 C  
HETATM   13  O   UNL     4     -13.008  13.291  65.629  1.00  0.00    -0.437 OA 
HETATM   14  O   UNL     4     -11.315  11.893  64.914  1.00  0.00    -0.316 OA 
HETATM   15  C   UNL     4     -11.910  12.694  65.732  1.00  0.00    -0.444 C  
ENDBRANCH  11  12
BRANCH  11  16
HETATM   16  C   UNL     4      -9.577  14.770  65.785  1.00  0.00    -0.254 C  
HETATM   17  C   UNL     4      -9.928  15.708  66.977  1.00  0.00    -0.240 C  
HETATM   18  O   UNL     4     -11.009  16.352  66.857  1.00  0.00    -0.183 OA 
HETATM   19  O   UNL     4      -9.213  15.450  68.018  1.00  0.00    -0.182 OA 
ENDBRANCH  11  16
ENDBRANCH  10  11
ENDBRANCH   9  10
ENDBRANCH   8   9
BRANCH   8  20
HETATM   20  C   UNL     4      -7.533  10.080  68.867  1.00  0.00    -0.083 C  
HETATM   21  C   UNL     4      -6.025  10.208  68.420  1.00  0.00    -0.041 C  
HETATM   22  O   UNL     4      -5.208  10.386  69.372  1.00  0.00    -0.039 OA 
HETATM   23  O   UNL     4      -5.760  10.122  67.172  1.00  0.00    -0.045 OA 
ENDBRANCH   8  20
ENDBRANCH   7   8
TORSDOF 7
ENDMDL
MODEL      361
REMARK 921   NORMALIZED FREE ENERGY PREDICTED BY IDOCK:   -2.65 KCAL/MOL
REMARK 922        TOTAL FREE ENERGY PREDICTED BY IDOCK:   -5.18 KCAL/MOL
REMARK 923 INTER-LIGAND FREE ENERGY PREDICTED BY IDOCK:   -4.61 KCAL/MOL
REMARK 924 INTRA-LIGAND FREE ENERGY PREDICTED BY IDOCK:   -0.57 KCAL/MOL
REMARK 927      BINDING AFFINITY PREDICTED BY RF-SCORE:    0.00 PKD
ROOT
HETATM    1 NA   UNL     1      -5.482  13.903  67.356  1.00  0.00    -0.111 Na 
HETATM    2 NA   UNL     2      -8.427  16.995  69.088  1.00  0.00    -0.226 Na 
HETATM    3 CA   UNL     3      -6.118  10.574  71.678  1.00  0.00    -0.045 Ca 
HETATM    4  O   UNL     4      -7.525  13.797  67.340  1.00  0.00    -0.174 OA 
HETATM    5  C   UNL     4      -8.368  13.991  68.264  1.00  0.00    -0.162 C  
HETATM    6  O   UNL     4      -8.366  15.054  68.975  1.00  0.00    -0.175 OA 
HETATM    7  C   UNL     4      -9.463  12.964  68.611  1.00  0.00     0.004 C  
ENDROOT
BRANCH   7   8
HETATM    8  N   UNL     4      -9.296  11.552  68.165  1.00  0.00    -0.179 NA 
BRANCH   8   9
HETATM    9  C   UNL     4      -9.822  10.467  68.999  1.00  0.00    -0.212 C  
BRANCH   9  10
HETATM   10  C   UNL     4      -8.838   9.747  69.923  1.00  0.00    -0.225 C  
BRANCH  10  11
HETATM   11  N   UNL     4      -9.141   8.308  70.123  1.00  0.00    -0.146 NA 
BRANCH  11  12
HETATM   12  C   UNL     4      -9.411   7.562  68.853  1.00  0.00    -0.142 C  
HETATM   13  O   UNL     4      -9.806   5.176  68.814  1.00  0.00    -0.146 OA 
HETATM   14  O   UNL     4     -11.117   6.537  70.141  1.00  0.00    -0.289 OA 
HETATM   15  C   UNL     4     -10.219   6.277  69.254  1.00  0.00    -0.193 C  
ENDBRANCH  11  12
BRANCH  11  16
HETATM   16  C   UNL     4      -8.004   7.647  70.862  1.00  0.00    -0.094 C  
HETATM   17  C   UNL     4      -8.116   8.127  72.339  1.00  0.00    -0.146 C  
HETATM   18  O   UNL     4      -7.156   8.841  72.748  1.00  0.00    -0.319 OA 
HETATM   19  O   UNL     4      -9.306   7.965  72.808  1.00  0.00    -0.185 OA 
ENDBRANCH  11  16
ENDBRANCH  10  11
ENDBRANCH   9  10
ENDBRANCH   8   9
BRANCH   8  20
HETATM   20  C   UNL     4      -9.955  11.428  66.800  1.00  0.00    -0.208 C  
HETATM   21  C   UNL     4     -11.453  11.920  66.719  1.00  0.00    -0.316 C  
HETATM   22  O   UNL     4     -11.765  12.473  65.622  1.00  0.00    -0.381 OA 
HETATM   23  O   UNL     4     -12.205  11.725  67.735  1.00  0.00    -0.536 OA 
ENDBRANCH   8  20
ENDBRANCH   7   8
TORSDOF 7
ENDMDL
MODEL      362
REMARK 921   NORMALIZED FREE ENERGY PREDICTED BY IDOCK:   -2.65 KCAL/MOL
REMARK 922        TOTAL FREE ENERGY PREDICTED BY IDOCK:   -5.17 KCAL/MOL
REMARK 923 INTER-LIGAND FREE ENERGY PREDICTED BY IDOCK:   -5.33 KCAL/MOL
REMARK 924 INTRA-LIGAND FREE ENERGY PREDICTED BY IDOCK:    0.15 KCAL/MOL
REMARK 927      BINDING AFFINITY PREDICTED BY RF-SCORE:    0.00 PKD
ROOT
HETATM    1 NA   UNL     1     -13.557  14.255  66.324  1.00  0.00    -0.532 Na 
HETATM    2 NA   UNL     2     -13.216  14.151  70.918  1.00  0.00    -0.313 Na 
HETATM    3 CA   UNL     3      -8.436  16.167  65.784  1.00  0.00    -0.263 Ca 
HETATM    4  O   UNL     4     -12.600  12.841  67.454  1.00  0.00     0.028 OA 
HETATM    5  C   UNL     4     -11.788  12.967  68.416  1.00  0.00    -0.334 C  
HETATM    6  O   UNL     4     -12.044  13.697  69.433  1.00  0.00    -0.326 OA 
HETATM    7  C   UNL     4     -10.422  12.253  68.440  1.00  0.00    -0.233 C  
ENDROOT
BRANCH   7   8
HETATM    8  N   UNL     4      -9.848  11.749  67.161  1.00  0.00    -0.192 NA 
BRANCH   8   9
HETATM    9  C   UNL     4      -9.521  10.326  67.029  1.00  0.00    -0.163 C  
BRANCH   9  10
HETATM   10  C   UNL     4     -10.413   9.327  67.768  1.00  0.00    -0.255 C  
BRANCH  10  11
HETATM   11  N   UNL     4      -9.794   8.754  68.989  1.00  0.00    -0.176 NA 
BRANCH  11  12
HETATM   12  C   UNL     4     -10.724   7.906  69.801  1.00  0.00    -0.233 C  
HETATM   13  O   UNL     4     -10.523   7.700  72.202  1.00  0.00    -0.204 OA 
HETATM   14  O   UNL     4     -10.742   9.789  71.241  1.00  0.00    -0.304 OA 
HETATM   15  C   UNL     4     -10.715   8.500  71.254  1.00  0.00    -0.240 C  
ENDBRANCH  11  12
BRANCH  11  16
HETATM   16  C   UNL     4      -8.578   7.946  68.611  1.00  0.00    -0.128 C  
HETATM   17  C   UNL     4      -7.359   8.685  69.238  1.00  0.00    -0.074 C  
HETATM   18  O   UNL     4      -6.537   9.169  68.409  1.00  0.00    -0.058 OA 
HETATM   19  O   UNL     4      -7.542   8.937  70.489  1.00  0.00    -0.070 OA 
ENDBRANCH  11  16
ENDBRANCH  10  11
ENDBRANCH   9  10
ENDBRANCH   8   9
BRANCH   8  20
HETATM   20  C   UNL     4     -10.838  12.086  66.057  1.00  0.00    -0.289 C  
HETATM   21  C   UNL     4     -10.377  13.203  65.043  1.00  0.00    -0.330 C  
HETATM   22  O   UNL     4     -10.758  13.019  63.849  1.00  0.00    -0.392 OA 
HETATM   23  O   UNL     4      -9.678  14.174  65.496  1.00  0.00    -0.246 OA 
ENDBRANCH   8  20
ENDBRANCH   7   8
TORSDOF 7
ENDMDL
MODEL      363
REMARK 921   NORMALIZED FREE ENERGY PREDICTED BY IDOCK:   -2.63 KCAL/MOL
REMARK 922        TOTAL FREE ENERGY PREDICTED BY IDOCK:   -5.16 KCAL/MOL
REMARK 923 INTER-LIGAND FREE ENERGY PREDICTED BY IDOCK:   -3.89 KCAL/MOL
REMARK 924 INTRA-LIGAND FREE ENERGY PREDICTED BY IDOCK:   -1.26 KCAL/MOL
REMARK 927      BINDING AFFINITY PREDICTED BY RF-SCORE:    0.00 PKD
ROOT
HETATM    1 NA   UNL     1     -11.300   5.055  65.171  1.00  0.00    -0.447 Na 
HETATM    2 NA   UNL     2      -7.393   3.513  67.066  1.00  0.00    -0.058 Na 
HETATM    3 CA   UNL     3     -11.883   8.922  69.028  1.00  0.00    -0.419 Ca 
HETATM    4  O   UNL     4      -9.442   5.900  65.017  1.00  0.00     0.351 OA 
HETATM    5  C   UNL     4      -8.575   6.150  65.903  1.00  0.00    -0.147 C  
HETATM    6  O   UNL     4      -8.172   5.264  66.732  1.00  0.00    -0.108 OA 
HETATM    7  C   UNL     4      -7.934   7.544  66.059  1.00  0.00    -0.113 C  
ENDROOT
BRANCH   7   8
HETATM    8  N   UNL     4      -8.619   8.724  65.464  1.00  0.00    -0.164 NA 
BRANCH   8   9
HETATM    9  C   UNL     4      -9.262   9.704  66.345  1.00  0.00    -0.163 C  
BRANCH   9  10
HETATM   10  C   UNL     4      -8.955  11.183  66.098  1.00  0.00    -0.195 C  
BRANCH  10  11
HETATM   11  N   UNL     4      -8.926  12.007  67.332  1.00  0.00    -0.170 NA 
BRANCH  11  12
HETATM   12  C   UNL     4      -7.859  13.057  67.336  1.00  0.00    -0.164 C  
HETATM   13  O   UNL     4      -6.927  13.944  69.383  1.00  0.00    -0.099 OA 
HETATM   14  O   UNL     4      -6.885  11.669  68.993  1.00  0.00    -0.090 OA 
HETATM   15  C   UNL     4      -7.091  12.906  68.698  1.00  0.00    -0.103 C  
ENDBRANCH  11  12
BRANCH  11  16
HETATM   16  C   UNL     4     -10.271  12.657  67.539  1.00  0.00    -0.215 C  
HETATM   17  C   UNL     4     -11.126  11.630  68.339  1.00  0.00    -0.234 C  
HETATM   18  O   UNL     4     -12.129  11.168  67.724  1.00  0.00    -0.606 OA 
HETATM   19  O   UNL     4     -10.506  11.198  69.383  1.00  0.00    -0.191 OA 
ENDBRANCH  11  16
ENDBRANCH  10  11
ENDBRANCH   9  10
ENDBRANCH   8   9
BRANCH   8  20
HETATM   20  C   UNL     4      -7.588   9.475  64.636  1.00  0.00    -0.113 C  
HETATM   21  C   UNL     4      -7.792   9.413  63.072  1.00  0.00    -0.131 C  
HETATM   22  O   UNL     4      -7.474  10.475  62.458  1.00  0.00    -0.141 OA 
HETATM   23  O   UNL     4      -8.247   8.328  62.568  1.00  0.00    -0.172 OA 
ENDBRANCH   8  20
ENDBRANCH   7   8
TORSDOF 7
ENDMDL
MODEL      364
REMARK 921   NORMALIZED FREE ENERGY PREDICTED BY IDOCK:   -2.63 KCAL/MOL
REMARK 922        TOTAL FREE ENERGY PREDICTED BY IDOCK:   -5.15 KCAL/MOL
REMARK 923 INTER-LIGAND FREE ENERGY PREDICTED BY IDOCK:   -4.72 KCAL/MOL
REMARK 924 INTRA-LIGAND FREE ENERGY PREDICTED BY IDOCK:   -0.43 KCAL/MOL
REMARK 927      BINDING AFFINITY PREDICTED BY RF-SCORE:    0.00 PKD
ROOT
HETATM    1 NA   UNL     1      -9.194  12.678  64.178  1.00  0.00    -0.469 Na 
HETATM    2 NA   UNL     2      -6.848  15.858  66.548  1.00  0.00    -0.181 Na 
HETATM    3 CA   UNL     3      -7.943   8.754  67.812  1.00  0.00    -0.094 Ca 
HETATM    4  O   UNL     4      -9.807  13.648  65.873  1.00  0.00    -0.289 OA 
HETATM    5  C   UNL     4      -9.203  13.862  66.964  1.00  0.00    -0.250 C  
HETATM    6  O   UNL     4      -8.040  14.391  67.007  1.00  0.00    -0.177 OA 
HETATM    7  C   UNL     4      -9.817  13.501  68.331  1.00  0.00    -0.225 C  
ENDROOT
BRANCH   7   8
HETATM    8  N   UNL     4     -10.932  12.514  68.384  1.00  0.00    -0.235 NA 
BRANCH   8   9
HETATM    9  C   UNL     4     -10.914  11.460  69.403  1.00  0.00    -0.205 C  
BRANCH   9  10
HETATM   10  C   UNL     4      -9.751  10.467  69.370  1.00  0.00    -0.164 C  
BRANCH  10  11
HETATM   11  N   UNL     4     -10.162   9.066  69.102  1.00  0.00    -0.200 NA 
BRANCH  11  12
HETATM   12  C   UNL     4     -10.900   8.423  70.236  1.00  0.00    -0.239 C  
HETATM   13  O   UNL     4     -11.058   6.022  70.477  1.00  0.00    -0.310 OA 
HETATM   14  O   UNL     4      -8.985   7.028  70.326  1.00  0.00    -0.147 OA 
HETATM   15  C   UNL     4     -10.270   6.997  70.424  1.00  0.00    -0.196 C  
ENDBRANCH  11  12
BRANCH  11  16
HETATM   16  C   UNL     4     -11.012   9.016  67.857  1.00  0.00     0.066 C  
HETATM   17  C   UNL     4     -10.095   8.447  66.734  1.00  0.00    -0.303 C  
HETATM   18  O   UNL     4      -9.840   9.246  65.789  1.00  0.00    -0.296 OA 
HETATM   19  O   UNL     4      -9.507   7.359  67.100  1.00  0.00    -0.137 OA 
ENDBRANCH  11  16
ENDBRANCH  10  11
ENDBRANCH   9  10
ENDBRANCH   8   9
BRANCH   8  20
HETATM   20  C   UNL     4     -12.221  13.299  68.574  1.00  0.00    -0.068 C  
HETATM   21  C   UNL     4     -12.413  13.961  69.994  1.00  0.00    -0.266 C  
HETATM   22  O   UNL     4     -13.000  15.083  69.975  1.00  0.00    -0.150 OA 
HETATM   23  O   UNL     4     -11.976  13.328  71.016  1.00  0.00    -0.186 OA 
ENDBRANCH   8  20
ENDBRANCH   7   8
TORSDOF 7
ENDMDL
MODEL      365
REMARK 921   NORMALIZED FREE ENERGY PREDICTED BY IDOCK:   -2.63 KCAL/MOL
REMARK 922        TOTAL FREE ENERGY PREDICTED BY IDOCK:   -5.15 KCAL/MOL
REMARK 923 INTER-LIGAND FREE ENERGY PREDICTED BY IDOCK:   -3.97 KCAL/MOL
REMARK 924 INTRA-LIGAND FREE ENERGY PREDICTED BY IDOCK:   -1.18 KCAL/MOL
REMARK 927      BINDING AFFINITY PREDICTED BY RF-SCORE:    0.00 PKD
ROOT
HETATM    1 NA   UNL     1      -8.599  11.109  66.823  1.00  0.00    -0.128 Na 
HETATM    2 NA   UNL     2     -12.748  10.651  68.775  1.00  0.00    -0.457 Na 
HETATM    3 CA   UNL     3      -6.032  10.243  71.600  1.00  0.00    -0.082 Ca 
HETATM    4  O   UNL     4      -9.529   9.360  67.337  1.00  0.00    -0.129 OA 
HETATM    5  C   UNL     4     -10.118   9.023  68.406  1.00  0.00    -0.191 C  
HETATM    6  O   UNL     4     -11.037   9.740  68.932  1.00  0.00    -0.191 OA 
HETATM    7  C   UNL     4      -9.776   7.724  69.162  1.00  0.00    -0.161 C  
ENDROOT
BRANCH   7   8
HETATM    8  N   UNL     4      -8.470   7.058  68.898  1.00  0.00    -0.125 NA 
BRANCH   8   9
HETATM    9  C   UNL     4      -7.432   7.071  69.933  1.00  0.00    -0.090 C  
BRANCH   9  10
HETATM   10  C   UNL     4      -7.442   5.933  70.955  1.00  0.00    -0.094 C  
BRANCH  10  11
HETATM   11  N   UNL     4      -8.603   5.962  71.880  1.00  0.00    -0.137 NA 
BRANCH  11  12
HETATM   12  C   UNL     4      -9.265   4.632  72.065  1.00  0.00    -0.132 C  
HETATM   13  O   UNL     4     -11.255   4.356  73.411  1.00  0.00    -0.282 OA 
HETATM   14  O   UNL     4     -11.246   5.874  71.671  1.00  0.00    -0.272 OA 
HETATM   15  C   UNL     4     -10.769   4.928  72.405  1.00  0.00    -0.175 C  
ENDBRANCH  11  12
BRANCH  11  16
HETATM   16  C   UNL     4      -8.169   6.498  73.222  1.00  0.00    -0.116 C  
HETATM   17  C   UNL     4      -8.461   8.027  73.188  1.00  0.00    -0.208 C  
HETATM   18  O   UNL     4      -7.442   8.772  73.248  1.00  0.00    -0.367 OA 
HETATM   19  O   UNL     4      -9.667   8.278  72.808  1.00  0.00    -0.269 OA 
ENDBRANCH  11  16
ENDBRANCH  10  11
ENDBRANCH   9  10
ENDBRANCH   8   9
BRANCH   8  20
HETATM   20  C   UNL     4      -8.764   5.600  68.577  1.00  0.00    -0.110 C  
HETATM   21  C   UNL     4      -7.903   4.971  67.413  1.00  0.00    -0.095 C  
HETATM   22  O   UNL     4      -7.602   3.752  67.583  1.00  0.00    -0.066 OA 
HETATM   23  O   UNL     4      -7.591   5.720  66.424  1.00  0.00    -0.089 OA 
ENDBRANCH   8  20
ENDBRANCH   7   8
TORSDOF 7
ENDMDL
MODEL      366
REMARK 921   NORMALIZED FREE ENERGY PREDICTED BY IDOCK:   -2.62 KCAL/MOL
REMARK 922        TOTAL FREE ENERGY PREDICTED BY IDOCK:   -5.14 KCAL/MOL
REMARK 923 INTER-LIGAND FREE ENERGY PREDICTED BY IDOCK:   -4.55 KCAL/MOL
REMARK 924 INTRA-LIGAND FREE ENERGY PREDICTED BY IDOCK:   -0.59 KCAL/MOL
REMARK 927      BINDING AFFINITY PREDICTED BY RF-SCORE:    0.00 PKD
ROOT
HETATM    1 NA   UNL     1      -9.150  10.150  64.651  1.00  0.00    -0.147 Na 
HETATM    2 NA   UNL     2      -5.475   7.386  64.943  1.00  0.00    -0.027 Na 
HETATM    3 CA   UNL     3     -11.718   7.503  68.720  1.00  0.00    -0.429 Ca 
HETATM    4  O   UNL     4      -7.653  10.240  66.043  1.00  0.00    -0.115 OA 
HETATM    5  C   UNL     4      -7.120   9.328  66.740  1.00  0.00    -0.082 C  
HETATM    6  O   UNL     4      -6.658   8.255  66.219  1.00  0.00    -0.050 OA 
HETATM    7  C   UNL     4      -6.987   9.432  68.272  1.00  0.00    -0.071 C  
ENDROOT
BRANCH   7   8
HETATM    8  N   UNL     4      -7.852  10.395  69.008  1.00  0.00    -0.110 NA 
BRANCH   8   9
HETATM    9  C   UNL     4      -7.989  11.767  68.509  1.00  0.00    -0.145 C  
BRANCH   9  10
HETATM   10  C   UNL     4      -9.337  12.168  67.909  1.00  0.00    -0.192 C  
BRANCH  10  11
HETATM   11  N   UNL     4      -9.668  13.606  68.078  1.00  0.00    -0.220 NA 
BRANCH  11  12
HETATM   12  C   UNL     4     -10.842  13.857  68.974  1.00  0.00    -0.225 C  
HETATM   13  O   UNL     4     -12.149  15.888  68.852  1.00  0.00    -0.315 OA 
HETATM   14  O   UNL     4     -11.868  14.587  66.965  1.00  0.00    -0.394 OA 
HETATM   15  C   UNL     4     -11.769  14.874  68.218  1.00  0.00    -0.315 C  
ENDBRANCH  11  12
BRANCH  11  16
HETATM   16  C   UNL     4      -8.465  14.345  68.607  1.00  0.00    -0.156 C  
HETATM   17  C   UNL     4      -7.891  15.147  67.402  1.00  0.00    -0.198 C  
HETATM   18  O   UNL     4      -6.739  14.794  67.019  1.00  0.00    -0.156 OA 
HETATM   19  O   UNL     4      -8.802  15.839  66.807  1.00  0.00    -0.220 OA 
ENDBRANCH  11  16
ENDBRANCH  10  11
ENDBRANCH   9  10
ENDBRANCH   8   9
BRANCH   8  20
HETATM   20  C   UNL     4      -9.249   9.798  69.062  1.00  0.00    -0.165 C  
HETATM   21  C   UNL     4      -9.817   9.519  70.508  1.00  0.00    -0.269 C  
HETATM   22  O   UNL     4     -11.063   9.711  70.630  1.00  0.00    -0.267 OA 
HETATM   23  O   UNL     4      -8.997   9.133  71.411  1.00  0.00    -0.283 OA 
ENDBRANCH   8  20
ENDBRANCH   7   8
TORSDOF 7
ENDMDL
MODEL      367
REMARK 921   NORMALIZED FREE ENERGY PREDICTED BY IDOCK:   -2.62 KCAL/MOL
REMARK 922        TOTAL FREE ENERGY PREDICTED BY IDOCK:   -5.13 KCAL/MOL
REMARK 923 INTER-LIGAND FREE ENERGY PREDICTED BY IDOCK:   -5.64 KCAL/MOL
REMARK 924 INTRA-LIGAND FREE ENERGY PREDICTED BY IDOCK:    0.50 KCAL/MOL
REMARK 927      BINDING AFFINITY PREDICTED BY RF-SCORE:    0.00 PKD
ROOT
HETATM    1 NA   UNL     1     -12.839  12.424  70.630  1.00  0.00    -0.290 Na 
HETATM    2 NA   UNL     2     -13.388   9.050  73.720  1.00  0.00    -0.630 Na 
HETATM    3 CA   UNL     3      -7.381  11.810  70.627  1.00  0.00    -0.174 Ca 
HETATM    4  O   UNL     4     -12.776  10.410  70.275  1.00  0.00    -0.283 OA 
HETATM    5  C   UNL     4     -12.168   9.484  70.887  1.00  0.00    -0.254 C  
HETATM    6  O   UNL     4     -12.271   9.321  72.151  1.00  0.00    -0.359 OA 
HETATM    7  C   UNL     4     -11.253   8.478  70.161  1.00  0.00    -0.136 C  
ENDROOT
BRANCH   7   8
HETATM    8  N   UNL     4     -10.726   8.824  68.812  1.00  0.00    -0.137 NA 
BRANCH   8   9
HETATM    9  C   UNL     4     -10.121  10.141  68.591  1.00  0.00    -0.172 C  
BRANCH   9  10
HETATM   10  C   UNL     4     -10.575  10.929  67.361  1.00  0.00    -0.243 C  
BRANCH  10  11
HETATM   11  N   UNL     4      -9.639  12.009  66.957  1.00  0.00    -0.192 NA 
BRANCH  11  12
HETATM   12  C   UNL     4      -8.354  11.510  66.372  1.00  0.00    -0.118 C  
HETATM   13  O   UNL     4      -8.204   9.405  65.190  1.00  0.00    -0.123 OA 
HETATM   14  O   UNL     4      -9.723  11.003  64.503  1.00  0.00    -0.235 OA 
HETATM   15  C   UNL     4      -8.746  10.537  65.203  1.00  0.00    -0.185 C  
ENDBRANCH  11  12
BRANCH  11  16
HETATM   16  C   UNL     4     -10.318  12.926  65.971  1.00  0.00    -0.283 C  
HETATM   17  C   UNL     4     -10.899  14.102  66.809  1.00  0.00    -0.296 C  
HETATM   18  O   UNL     4     -12.161  14.185  66.819  1.00  0.00    -0.429 OA 
HETATM   19  O   UNL     4     -10.014  14.618  67.591  1.00  0.00    -0.225 OA 
ENDBRANCH  11  16
ENDBRANCH  10  11
ENDBRANCH   9  10
ENDBRANCH   8   9
BRANCH   8  20
HETATM   20  C   UNL     4      -9.676   7.784  68.456  1.00  0.00    -0.160 C  
HETATM   21  C   UNL     4      -9.999   6.892  67.194  1.00  0.00    -0.183 C  
HETATM   22  O   UNL     4      -8.987   6.582  66.498  1.00  0.00    -0.134 OA 
HETATM   23  O   UNL     4     -11.218   6.565  66.986  1.00  0.00    -0.397 OA 
ENDBRANCH   8  20
ENDBRANCH   7   8
TORSDOF 7
ENDMDL
MODEL      368
REMARK 921   NORMALIZED FREE ENERGY PREDICTED BY IDOCK:   -2.61 KCAL/MOL
REMARK 922        TOTAL FREE ENERGY PREDICTED BY IDOCK:   -5.13 KCAL/MOL
REMARK 923 INTER-LIGAND FREE ENERGY PREDICTED BY IDOCK:   -5.31 KCAL/MOL
REMARK 924 INTRA-LIGAND FREE ENERGY PREDICTED BY IDOCK:    0.18 KCAL/MOL
REMARK 927      BINDING AFFINITY PREDICTED BY RF-SCORE:    0.00 PKD
ROOT
HETATM    1 NA   UNL     1      -8.848  13.488  65.682  1.00  0.00    -0.421 Na 
HETATM    2 NA   UNL     2      -7.002  10.166  63.076  1.00  0.00    -0.106 Na 
HETATM    3 CA   UNL     3     -13.955  12.024  64.288  1.00  0.00    -0.759 Ca 
HETATM    4  O   UNL     4      -8.713  11.498  66.141  1.00  0.00    -0.186 OA 
HETATM    5  C   UNL     4      -8.992  10.473  65.453  1.00  0.00    -0.186 C  
HETATM    6  O   UNL     4      -8.528  10.297  64.275  1.00  0.00    -0.168 OA 
HETATM    7  C   UNL     4      -9.914   9.354  65.977  1.00  0.00    -0.281 C  
ENDROOT
BRANCH   7   8
HETATM    8  N   UNL     4     -10.831   9.647  67.114  1.00  0.00    -0.190 NA 
BRANCH   8   9
HETATM    9  C   UNL     4     -10.400   9.344  68.482  1.00  0.00    -0.209 C  
BRANCH   9  10
HETATM   10  C   UNL     4      -9.092   8.569  68.655  1.00  0.00    -0.139 C  
BRANCH  10  11
HETATM   11  N   UNL     4      -8.218   9.095  69.734  1.00  0.00    -0.118 NA 
BRANCH  11  12
HETATM   12  C   UNL     4      -7.614  10.431  69.427  1.00  0.00    -0.140 C  
HETATM   13  O   UNL     4      -6.102  11.545  70.951  1.00  0.00    -0.360 OA 
HETATM   14  O   UNL     4      -5.629   9.406  70.221  1.00  0.00    -0.030 OA 
HETATM   15  C   UNL     4      -6.282  10.516  70.254  1.00  0.00    -0.130 C  
ENDBRANCH  11  12
BRANCH  11  16
HETATM   16  C   UNL     4      -8.998   9.181  71.022  1.00  0.00    -0.214 C  
HETATM   17  C   UNL     4      -8.916   7.766  71.667  1.00  0.00    -0.129 C  
HETATM   18  O   UNL     4     -10.017   7.150  71.757  1.00  0.00    -0.176 OA 
HETATM   19  O   UNL     4      -7.702   7.336  71.732  1.00  0.00    -0.085 OA 
ENDBRANCH  11  16
ENDBRANCH  10  11
ENDBRANCH   9  10
ENDBRANCH   8   9
BRANCH   8  20
HETATM   20  C   UNL     4     -11.152  11.132  67.064  1.00  0.00    -0.273 C  
HETATM   21  C   UNL     4     -11.683  11.761  68.411  1.00  0.00    -0.325 C  
HETATM   22  O   UNL     4     -11.301  12.950  68.622  1.00  0.00    -0.249 OA 
HETATM   23  O   UNL     4     -12.434  11.040  69.155  1.00  0.00    -0.432 OA 
ENDBRANCH   8  20
ENDBRANCH   7   8
TORSDOF 7
ENDMDL
MODEL      369
REMARK 921   NORMALIZED FREE ENERGY PREDICTED BY IDOCK:   -2.61 KCAL/MOL
REMARK 922        TOTAL FREE ENERGY PREDICTED BY IDOCK:   -5.12 KCAL/MOL
REMARK 923 INTER-LIGAND FREE ENERGY PREDICTED BY IDOCK:   -3.95 KCAL/MOL
REMARK 924 INTRA-LIGAND FREE ENERGY PREDICTED BY IDOCK:   -1.16 KCAL/MOL
REMARK 927      BINDING AFFINITY PREDICTED BY RF-SCORE:    0.00 PKD
ROOT
HETATM    1 NA   UNL     1      -8.881   3.048  69.794  1.00  0.00    -0.054 Na 
HETATM    2 NA   UNL     2      -5.802   4.829  72.724  1.00  0.00    -0.011 Na 
HETATM    3 CA   UNL     3     -12.920   6.167  71.824  1.00  0.00    -0.313 Ca 
HETATM    4  O   UNL     4      -7.948   4.862  69.643  1.00  0.00    -0.066 OA 
HETATM    5  C   UNL     4      -7.773   5.773  70.503  1.00  0.00    -0.099 C  
HETATM    6  O   UNL     4      -7.263   5.537  71.652  1.00  0.00    -0.079 OA 
HETATM    7  C   UNL     4      -8.161   7.242  70.241  1.00  0.00    -0.121 C  
ENDROOT
BRANCH   7   8
HETATM    8  N   UNL     4      -9.131   7.549  69.153  1.00  0.00    -0.138 NA 
BRANCH   8   9
HETATM    9  C   UNL     4     -10.034   8.695  69.295  1.00  0.00    -0.195 C  
BRANCH   9  10
HETATM   10  C   UNL     4      -9.416  10.032  69.708  1.00  0.00    -0.207 C  
BRANCH  10  11
HETATM   11  N   UNL     4      -9.595  11.114  68.707  1.00  0.00    -0.191 NA 
BRANCH  11  12
HETATM   12  C   UNL     4     -10.670  12.095  69.059  1.00  0.00    -0.121 C  
HETATM   13  O   UNL     4     -11.927  13.292  67.375  1.00  0.00    -0.363 OA 
HETATM   14  O   UNL     4     -11.863  10.984  67.337  1.00  0.00    -0.523 OA 
HETATM   15  C   UNL     4     -11.637  12.156  67.824  1.00  0.00    -0.342 C  
ENDBRANCH  11  12
BRANCH  11  16
HETATM   16  C   UNL     4      -8.290  11.846  68.513  1.00  0.00    -0.118 C  
HETATM   17  C   UNL     4      -7.727  11.364  67.144  1.00  0.00    -0.152 C  
HETATM   18  O   UNL     4      -6.646  10.712  67.204  1.00  0.00    -0.070 OA 
HETATM   19  O   UNL     4      -8.606  11.453  66.205  1.00  0.00    -0.177 OA 
ENDBRANCH  11  16
ENDBRANCH  10  11
ENDBRANCH   9  10
ENDBRANCH   8   9
BRANCH   8  20
HETATM   20  C   UNL     4      -8.329   7.767  67.880  1.00  0.00    -0.123 C  
HETATM   21  C   UNL     4      -9.103   7.499  66.531  1.00  0.00    -0.166 C  
HETATM   22  O   UNL     4      -8.786   8.274  65.580  1.00  0.00    -0.165 OA 
HETATM   23  O   UNL     4      -9.960   6.549  66.509  1.00  0.00    -0.161 OA 
ENDBRANCH   8  20
ENDBRANCH   7   8
TORSDOF 7
ENDMDL
MODEL      370
REMARK 921   NORMALIZED FREE ENERGY PREDICTED BY IDOCK:   -2.60 KCAL/MOL
REMARK 922        TOTAL FREE ENERGY PREDICTED BY IDOCK:   -5.11 KCAL/MOL
REMARK 923 INTER-LIGAND FREE ENERGY PREDICTED BY IDOCK:   -5.63 KCAL/MOL
REMARK 924 INTRA-LIGAND FREE ENERGY PREDICTED BY IDOCK:    0.52 KCAL/MOL
REMARK 927      BINDING AFFINITY PREDICTED BY RF-SCORE:    0.00 PKD
ROOT
HETATM    1 NA   UNL     1      -9.342  17.714  65.463  1.00  0.00    -0.158 Na 
HETATM    2 NA   UNL     2      -9.919  20.803  68.833  1.00  0.00    -0.206 Na 
HETATM    3 CA   UNL     3      -6.373  14.425  68.708  1.00  0.00    -0.077 Ca 
HETATM    4  O   UNL     4     -10.654  17.593  67.029  1.00  0.00    -0.328 OA 
HETATM    5  C   UNL     4     -10.480  17.791  68.267  1.00  0.00    -0.364 C  
HETATM    6  O   UNL     4      -9.944  18.861  68.716  1.00  0.00    -0.391 OA 
HETATM    7  C   UNL     4     -10.897  16.760  69.334  1.00  0.00    -0.250 C  
ENDROOT
BRANCH   7   8
HETATM    8  N   UNL     4     -11.117  15.345  68.923  1.00  0.00    -0.258 NA 
BRANCH   8   9
HETATM    9  C   UNL     4     -10.113  14.671  68.093  1.00  0.00    -0.224 C  
BRANCH   9  10
HETATM   10  C   UNL     4     -10.090  13.142  68.117  1.00  0.00    -0.237 C  
BRANCH  10  11
HETATM   11  N   UNL     4      -9.142  12.539  67.146  1.00  0.00    -0.197 NA 
BRANCH  11  12
HETATM   12  C   UNL     4      -8.512  11.267  67.624  1.00  0.00    -0.124 C  
HETATM   13  O   UNL     4      -6.551  10.322  66.571  1.00  0.00    -0.075 OA 
HETATM   14  O   UNL     4      -6.498  12.491  67.361  1.00  0.00    -0.141 OA 
HETATM   15  C   UNL     4      -7.007  11.322  67.178  1.00  0.00    -0.114 C  
ENDBRANCH  11  12
BRANCH  11  16
HETATM   16  C   UNL     4      -9.848  12.288  65.837  1.00  0.00    -0.251 C  
HETATM   17  C   UNL     4     -10.697  11.000  66.048  1.00  0.00    -0.177 C  
HETATM   18  O   UNL     4     -10.351  10.005  65.348  1.00  0.00    -0.245 OA 
HETATM   19  O   UNL     4     -11.422  11.071  67.112  1.00  0.00    -0.447 OA 
ENDBRANCH  11  16
ENDBRANCH  10  11
ENDBRANCH   9  10
ENDBRANCH   8   9
BRANCH   8  20
HETATM   20  C   UNL     4     -11.270  14.524  70.194  1.00  0.00    -0.146 C  
HETATM   21  C   UNL     4     -12.711  14.526  70.838  1.00  0.00    -0.344 C  
HETATM   22  O   UNL     4     -13.049  13.428  71.373  1.00  0.00    -0.340 OA 
HETATM   23  O   UNL     4     -13.399  15.603  70.769  1.00  0.00    -0.535 OA 
ENDBRANCH   8  20
ENDBRANCH   7   8
TORSDOF 7
ENDMDL
MODEL      371
REMARK 921   NORMALIZED FREE ENERGY PREDICTED BY IDOCK:   -2.59 KCAL/MOL
REMARK 922        TOTAL FREE ENERGY PREDICTED BY IDOCK:   -5.10 KCAL/MOL
REMARK 923 INTER-LIGAND FREE ENERGY PREDICTED BY IDOCK:   -4.43 KCAL/MOL
REMARK 924 INTRA-LIGAND FREE ENERGY PREDICTED BY IDOCK:   -0.67 KCAL/MOL
REMARK 927      BINDING AFFINITY PREDICTED BY RF-SCORE:    0.00 PKD
ROOT
HETATM    1 NA   UNL     1      -6.928   5.679  68.933  1.00  0.00    -0.048 Na 
HETATM    2 NA   UNL     2      -8.431   6.160  73.262  1.00  0.00    -0.113 Na 
HETATM    3 CA   UNL     3     -11.867   6.908  66.867  1.00  0.00    -0.525 Ca 
HETATM    4  O   UNL     4      -7.234   7.434  69.940  1.00  0.00    -0.076 OA 
HETATM    5  C   UNL     4      -8.215   7.824  70.637  1.00  0.00    -0.115 C  
HETATM    6  O   UNL     4      -8.694   7.121  71.591  1.00  0.00    -0.119 OA 
HETATM    7  C   UNL     4      -8.914   9.176  70.395  1.00  0.00    -0.229 C  
ENDROOT
BRANCH   7   8
HETATM    8  N   UNL     4      -8.736   9.856  69.082  1.00  0.00    -0.148 NA 
BRANCH   8   9
HETATM    9  C   UNL     4      -9.884  10.511  68.448  1.00  0.00    -0.161 C  
BRANCH   9  10
HETATM   10  C   UNL     4      -9.639  11.858  67.766  1.00  0.00    -0.190 C  
BRANCH  10  11
HETATM   11  N   UNL     4     -10.552  12.938  68.218  1.00  0.00    -0.240 NA 
BRANCH  11  12
HETATM   12  C   UNL     4     -10.721  14.046  67.225  1.00  0.00    -0.278 C  
HETATM   13  O   UNL     4     -10.806  16.371  67.886  1.00  0.00    -0.333 OA 
HETATM   14  O   UNL     4      -8.997  15.070  68.491  1.00  0.00    -0.172 OA 
HETATM   15  C   UNL     4     -10.103  15.331  67.883  1.00  0.00    -0.233 C  
ENDBRANCH  11  12
BRANCH  11  16
HETATM   16  C   UNL     4     -11.902  12.354  68.553  1.00  0.00    -0.304 C  
HETATM   17  C   UNL     4     -12.179  12.737  70.037  1.00  0.00    -0.209 C  
HETATM   18  O   UNL     4     -12.242  11.764  70.842  1.00  0.00    -0.362 OA 
HETATM   19  O   UNL     4     -12.005  13.997  70.248  1.00  0.00    -0.305 OA 
ENDBRANCH  11  16
ENDBRANCH  10  11
ENDBRANCH   9  10
ENDBRANCH   8   9
BRANCH   8  20
HETATM   20  C   UNL     4      -7.660  10.916  69.264  1.00  0.00    -0.113 C  
HETATM   21  C   UNL     4      -6.467  10.861  68.232  1.00  0.00    -0.057 C  
HETATM   22  O   UNL     4      -6.009  11.994  67.899  1.00  0.00    -0.051 OA 
HETATM   23  O   UNL     4      -6.073   9.713  67.830  1.00  0.00    -0.051 OA 
ENDBRANCH   8  20
ENDBRANCH   7   8
TORSDOF 7
ENDMDL
MODEL      372
REMARK 921   NORMALIZED FREE ENERGY PREDICTED BY IDOCK:   -2.59 KCAL/MOL
REMARK 922        TOTAL FREE ENERGY PREDICTED BY IDOCK:   -5.10 KCAL/MOL
REMARK 923 INTER-LIGAND FREE ENERGY PREDICTED BY IDOCK:   -3.92 KCAL/MOL
REMARK 924 INTRA-LIGAND FREE ENERGY PREDICTED BY IDOCK:   -1.18 KCAL/MOL
REMARK 927      BINDING AFFINITY PREDICTED BY RF-SCORE:    0.00 PKD
ROOT
HETATM    1 NA   UNL     1     -10.278   3.564  69.803  1.00  0.00    -0.190 Na 
HETATM    2 NA   UNL     2     -13.331   6.340  71.855  1.00  0.00    -0.324 Na 
HETATM    3 CA   UNL     3     -11.930   5.111  64.799  1.00  0.00    -0.700 Ca 
HETATM    4  O   UNL     4     -10.120   5.588  70.060  1.00  0.00    -0.200 OA 
HETATM    5  C   UNL     4     -10.956   6.514  69.846  1.00  0.00    -0.335 C  
HETATM    6  O   UNL     4     -12.142   6.483  70.321  1.00  0.00    -0.348 OA 
HETATM    7  C   UNL     4     -10.615   7.753  68.994  1.00  0.00    -0.166 C  
ENDROOT
BRANCH   7   8
HETATM    8  N   UNL     4      -9.457   7.690  68.060  1.00  0.00    -0.143 NA 
BRANCH   8   9
HETATM    9  C   UNL     4      -9.464   6.709  66.970  1.00  0.00    -0.144 C  
BRANCH   9  10
HETATM   10  C   UNL     4      -8.393   5.616  66.998  1.00  0.00    -0.107 C  
BRANCH  10  11
HETATM   11  N   UNL     4      -8.416   4.719  65.815  1.00  0.00    -0.117 NA 
BRANCH  11  12
HETATM   12  C   UNL     4      -9.529   3.716  65.836  1.00  0.00    -0.160 C  
HETATM   13  O   UNL     4      -9.671   1.912  64.233  1.00  0.00    -0.134 OA 
HETATM   14  O   UNL     4      -7.765   2.165  65.511  1.00  0.00    -0.070 OA 
HETATM   15  C   UNL     4      -8.973   2.422  65.143  1.00  0.00    -0.126 C  
ENDBRANCH  11  12
BRANCH  11  16
HETATM   16  C   UNL     4      -8.507   5.543  64.555  1.00  0.00    -0.094 C  
HETATM   17  C   UNL     4      -7.039   5.855  64.140  1.00  0.00    -0.053 C  
HETATM   18  O   UNL     4      -6.714   7.076  64.184  1.00  0.00    -0.044 OA 
HETATM   19  O   UNL     4      -6.313   4.790  64.105  1.00  0.00    -0.028 OA 
ENDBRANCH  11  16
ENDBRANCH  10  11
ENDBRANCH   9  10
ENDBRANCH   8   9
BRANCH   8  20
HETATM   20  C   UNL     4      -9.314   9.064  67.424  1.00  0.00    -0.139 C  
HETATM   21  C   UNL     4      -7.882   9.408  66.858  1.00  0.00    -0.105 C  
HETATM   22  O   UNL     4      -7.889  10.110  65.803  1.00  0.00    -0.126 OA 
HETATM   23  O   UNL     4      -6.863   8.965  67.492  1.00  0.00    -0.069 OA 
ENDBRANCH   8  20
ENDBRANCH   7   8
TORSDOF 7
ENDMDL
MODEL      373
REMARK 921   NORMALIZED FREE ENERGY PREDICTED BY IDOCK:   -2.59 KCAL/MOL
REMARK 922        TOTAL FREE ENERGY PREDICTED BY IDOCK:   -5.09 KCAL/MOL
REMARK 923 INTER-LIGAND FREE ENERGY PREDICTED BY IDOCK:   -4.82 KCAL/MOL
REMARK 924 INTRA-LIGAND FREE ENERGY PREDICTED BY IDOCK:   -0.27 KCAL/MOL
REMARK 927      BINDING AFFINITY PREDICTED BY RF-SCORE:    0.00 PKD
ROOT
HETATM    1 NA   UNL     1      -9.999  17.281  68.476  1.00  0.00    -0.227 Na 
HETATM    2 NA   UNL     2     -13.109  16.913  71.857  1.00  0.00    -0.296 Na 
HETATM    3 CA   UNL     3      -6.699  13.577  70.833  1.00  0.00    -0.373 Ca 
HETATM    4  O   UNL     4     -11.374  15.786  68.724  1.00  0.00    -0.317 OA 
HETATM    5  C   UNL     4     -11.685  15.114  69.750  1.00  0.00    -0.319 C  
HETATM    6  O   UNL     4     -11.996  15.669  70.859  1.00  0.00    -0.331 OA 
HETATM    7  C   UNL     4     -11.713  13.573  69.750  1.00  0.00    -0.295 C  
ENDROOT
BRANCH   7   8
HETATM    8  N   UNL     4     -10.971  12.838  68.687  1.00  0.00    -0.251 NA 
BRANCH   8   9
HETATM    9  C   UNL     4     -10.219  11.629  69.039  1.00  0.00    -0.055 C  
BRANCH   9  10
HETATM   10  C   UNL     4      -9.303  11.032  67.969  1.00  0.00    -0.163 C  
BRANCH  10  11
HETATM   11  N   UNL     4      -7.933  11.604  67.960  1.00  0.00    -0.124 NA 
BRANCH  11  12
HETATM   12  C   UNL     4      -7.844  12.954  67.318  1.00  0.00    -0.131 C  
HETATM   13  O   UNL     4      -6.109  14.541  67.883  1.00  0.00    -0.141 OA 
HETATM   14  O   UNL     4      -5.538  12.422  67.164  1.00  0.00    -0.240 OA 
HETATM   15  C   UNL     4      -6.341  13.397  67.422  1.00  0.00     0.025 C  
ENDBRANCH  11  12
BRANCH  11  16
HETATM   16  C   UNL     4      -7.408  11.685  69.372  1.00  0.00     0.097 C  
HETATM   17  C   UNL     4      -7.162  10.214  69.823  1.00  0.00    -0.141 C  
HETATM   18  O   UNL     4      -7.895   9.811  70.771  1.00  0.00    -0.304 OA 
HETATM   19  O   UNL     4      -6.461   9.559  68.962  1.00  0.00    -0.045 OA 
ENDBRANCH  11  16
ENDBRANCH  10  11
ENDBRANCH   9  10
ENDBRANCH   8   9
BRANCH   8  20
HETATM   20  C   UNL     4     -11.981  12.442  67.622  1.00  0.00    -0.180 C  
HETATM   21  C   UNL     4     -11.607  12.847  66.143  1.00  0.00    -0.372 C  
HETATM   22  O   UNL     4     -11.967  12.010  65.262  1.00  0.00    -0.356 OA 
HETATM   23  O   UNL     4     -10.990  13.952  65.961  1.00  0.00    -0.284 OA 
ENDBRANCH   8  20
ENDBRANCH   7   8
TORSDOF 7
ENDMDL
MODEL      374
REMARK 921   NORMALIZED FREE ENERGY PREDICTED BY IDOCK:   -2.59 KCAL/MOL
REMARK 922        TOTAL FREE ENERGY PREDICTED BY IDOCK:   -5.09 KCAL/MOL
REMARK 923 INTER-LIGAND FREE ENERGY PREDICTED BY IDOCK:   -6.70 KCAL/MOL
REMARK 924 INTRA-LIGAND FREE ENERGY PREDICTED BY IDOCK:    1.61 KCAL/MOL
REMARK 927      BINDING AFFINITY PREDICTED BY RF-SCORE:    0.00 PKD
ROOT
HETATM    1 NA   UNL     1     -11.726  18.266  67.598  1.00  0.00    -0.204 Na 
HETATM    2 NA   UNL     2      -7.521  19.666  66.333  1.00  0.00    -0.213 Na 
HETATM    3 CA   UNL     3     -12.187  15.012  63.197  1.00  0.00    -0.840 Ca 
HETATM    4  O   UNL     4      -9.970  17.236  67.815  1.00  0.00    -0.280 OA 
HETATM    5  C   UNL     4      -9.033  17.023  66.992  1.00  0.00    -0.221 C  
HETATM    6  O   UNL     4      -8.471  17.968  66.340  1.00  0.00    -0.290 OA 
HETATM    7  C   UNL     4      -8.493  15.608  66.706  1.00  0.00    -0.272 C  
ENDROOT
BRANCH   7   8
HETATM    8  N   UNL     4      -9.333  14.429  67.059  1.00  0.00    -0.232 NA 
BRANCH   8   9
HETATM    9  C   UNL     4      -8.808  13.078  66.839  1.00  0.00    -0.180 C  
BRANCH   9  10
HETATM   10  C   UNL     4      -9.692  11.902  67.255  1.00  0.00    -0.184 C  
BRANCH  10  11
HETATM   11  N   UNL     4     -10.560  11.385  66.167  1.00  0.00    -0.259 NA 
BRANCH  11  12
HETATM   12  C   UNL     4     -10.505  12.198  64.910  1.00  0.00    -0.288 C  
HETATM   13  O   UNL     4     -12.295  12.187  63.285  1.00  0.00    -0.534 OA 
HETATM   14  O   UNL     4     -12.743  12.731  65.485  1.00  0.00    -0.595 OA 
HETATM   15  C   UNL     4     -11.993  12.446  64.475  1.00  0.00    -0.402 C  
ENDBRANCH  11  12
BRANCH  11  16
HETATM   16  C   UNL     4     -10.190   9.956  65.857  1.00  0.00    -0.194 C  
HETATM   17  C   UNL     4      -8.907  10.026  64.978  1.00  0.00    -0.186 C  
HETATM   18  O   UNL     4      -9.041   9.603  63.794  1.00  0.00    -0.241 OA 
HETATM   19  O   UNL     4      -8.001  10.775  65.508  1.00  0.00    -0.145 OA 
ENDBRANCH  11  16
ENDBRANCH  10  11
ENDBRANCH   9  10
ENDBRANCH   8   9
BRANCH   8  20
HETATM   20  C   UNL     4      -9.672  14.543  68.537  1.00  0.00    -0.224 C  
HETATM   21  C   UNL     4     -11.208  14.464  68.894  1.00  0.00    -0.262 C  
HETATM   22  O   UNL     4     -11.464  13.874  69.985  1.00  0.00    -0.229 OA 
HETATM   23  O   UNL     4     -12.041  14.987  68.076  1.00  0.00    -0.230 OA 
ENDBRANCH   8  20
ENDBRANCH   7   8
TORSDOF 7
ENDMDL
MODEL      375
REMARK 921   NORMALIZED FREE ENERGY PREDICTED BY IDOCK:   -2.59 KCAL/MOL
REMARK 922        TOTAL FREE ENERGY PREDICTED BY IDOCK:   -5.09 KCAL/MOL
REMARK 923 INTER-LIGAND FREE ENERGY PREDICTED BY IDOCK:   -4.73 KCAL/MOL
REMARK 924 INTRA-LIGAND FREE ENERGY PREDICTED BY IDOCK:   -0.36 KCAL/MOL
REMARK 927      BINDING AFFINITY PREDICTED BY RF-SCORE:    0.00 PKD
ROOT
HETATM    1 NA   UNL     1      -5.500   8.933  71.532  1.00  0.00    -0.031 Na 
HETATM    2 NA   UNL     2      -7.075   5.655  74.361  1.00  0.00    -0.075 Na 
HETATM    3 CA   UNL     3      -8.506   7.045  67.341  1.00  0.00    -0.111 Ca 
HETATM    4  O   UNL     4      -7.316   8.892  72.475  1.00  0.00    -0.341 OA 
HETATM    5  C   UNL     4      -8.169   7.964  72.579  1.00  0.00    -0.139 C  
HETATM    6  O   UNL     4      -7.857   6.795  72.993  1.00  0.00    -0.097 OA 
HETATM    7  C   UNL     4      -9.653   8.163  72.214  1.00  0.00    -0.251 C  
ENDROOT
BRANCH   7   8
HETATM    8  N   UNL     4     -10.034   9.305  71.336  1.00  0.00    -0.293 NA 
BRANCH   8   9
HETATM    9  C   UNL     4      -9.510   9.366  69.967  1.00  0.00    -0.228 C  
BRANCH   9  10
HETATM   10  C   UNL     4      -8.723  10.616  69.569  1.00  0.00     0.051 C  
BRANCH  10  11
HETATM   11  N   UNL     4      -9.267  11.317  68.378  1.00  0.00    -0.173 NA 
BRANCH  11  12
HETATM   12  C   UNL     4      -8.732  12.703  68.193  1.00  0.00    -0.190 C  
HETATM   13  O   UNL     4     -10.015  14.452  67.125  1.00  0.00    -0.247 OA 
HETATM   14  O   UNL     4     -10.887  13.339  68.951  1.00  0.00    -0.243 OA 
HETATM   15  C   UNL     4      -9.979  13.652  68.091  1.00  0.00    -0.246 C  
ENDBRANCH  11  12
BRANCH  11  16
HETATM   16  C   UNL     4      -8.991  10.502  67.140  1.00  0.00    -0.140 C  
HETATM   17  C   UNL     4     -10.367   9.936  66.682  1.00  0.00    -0.205 C  
HETATM   18  O   UNL     4     -10.479   8.678  66.741  1.00  0.00    -0.291 OA 
HETATM   19  O   UNL     4     -11.264  10.859  66.601  1.00  0.00    -0.207 OA 
ENDBRANCH  11  16
ENDBRANCH  10  11
ENDBRANCH   9  10
ENDBRANCH   8   9
BRANCH   8  20
HETATM   20  C   UNL     4     -11.551   9.312  71.235  1.00  0.00    -0.349 C  
HETATM   21  C   UNL     4     -12.256   7.917  71.456  1.00  0.00    -0.311 C  
HETATM   22  O   UNL     4     -13.371   7.980  72.053  1.00  0.00    -0.305 OA 
HETATM   23  O   UNL     4     -11.661   6.869  71.025  1.00  0.00    -0.307 OA 
ENDBRANCH   8  20
ENDBRANCH   7   8
TORSDOF 7
ENDMDL
MODEL      376
REMARK 921   NORMALIZED FREE ENERGY PREDICTED BY IDOCK:   -2.56 KCAL/MOL
REMARK 922        TOTAL FREE ENERGY PREDICTED BY IDOCK:   -5.05 KCAL/MOL
REMARK 923 INTER-LIGAND FREE ENERGY PREDICTED BY IDOCK:   -6.80 KCAL/MOL
REMARK 924 INTRA-LIGAND FREE ENERGY PREDICTED BY IDOCK:    1.75 KCAL/MOL
REMARK 927      BINDING AFFINITY PREDICTED BY RF-SCORE:    0.00 PKD
ROOT
HETATM    1 NA   UNL     1     -10.171  20.882  65.697  1.00  0.00    -0.490 Na 
HETATM    2 NA   UNL     2     -11.208  21.196  70.176  1.00  0.00    -0.882 Na 
HETATM    3 CA   UNL     3      -5.128  19.001  66.788  1.00  0.00    -0.138 Ca 
HETATM    4  O   UNL     4     -10.699  19.350  66.947  1.00  0.00    -0.457 OA 
HETATM    5  C   UNL     4     -10.290  19.055  68.107  1.00  0.00    -0.368 C  
HETATM    6  O   UNL     4     -10.271  19.908  69.060  1.00  0.00    -0.432 OA 
HETATM    7  C   UNL     4      -9.781  17.646  68.469  1.00  0.00    -0.328 C  
ENDROOT
BRANCH   7   8
HETATM    8  N   UNL     4      -9.358  16.728  67.375  1.00  0.00    -0.231 NA 
BRANCH   8   9
HETATM    9  C   UNL     4     -10.310  16.385  66.314  1.00  0.00    -0.329 C  
BRANCH   9  10
HETATM   10  C   UNL     4     -10.702  14.914  66.167  1.00  0.00    -0.317 C  
BRANCH  10  11
HETATM   11  N   UNL     4     -10.370  14.081  67.349  1.00  0.00    -0.258 NA 
BRANCH  11  12
HETATM   12  C   UNL     4      -9.047  13.385  67.250  1.00  0.00    -0.222 C  
HETATM   13  O   UNL     4      -8.759  11.063  67.859  1.00  0.00    -0.128 OA 
HETATM   14  O   UNL     4     -10.344  11.650  66.285  1.00  0.00    -0.221 OA 
HETATM   15  C   UNL     4      -9.360  11.855  67.092  1.00  0.00    -0.180 C  
ENDBRANCH  11  12
BRANCH  11  16
HETATM   16  C   UNL     4     -10.397  14.932  68.594  1.00  0.00    -0.237 C  
HETATM   17  C   UNL     4     -11.428  14.262  69.550  1.00  0.00    -0.287 C  
HETATM   18  O   UNL     4     -12.460  14.950  69.798  1.00  0.00    -0.270 OA 
HETATM   19  O   UNL     4     -11.200  13.001  69.695  1.00  0.00    -0.148 OA 
ENDBRANCH  11  16
ENDBRANCH  10  11
ENDBRANCH   9  10
ENDBRANCH   8   9
BRANCH   8  20
HETATM   20  C   UNL     4      -8.145  17.355  66.703  1.00  0.00    -0.259 C  
HETATM   21  C   UNL     4      -6.742  16.892  67.260  1.00  0.00    -0.169 C  
HETATM   22  O   UNL     4      -5.834  16.800  66.382  1.00  0.00    -0.314 OA 
HETATM   23  O   UNL     4      -6.641  16.658  68.513  1.00  0.00    -0.134 OA 
ENDBRANCH   8  20
ENDBRANCH   7   8
TORSDOF 7
ENDMDL
MODEL      377
REMARK 921   NORMALIZED FREE ENERGY PREDICTED BY IDOCK:   -2.53 KCAL/MOL
REMARK 922        TOTAL FREE ENERGY PREDICTED BY IDOCK:   -5.01 KCAL/MOL
REMARK 923 INTER-LIGAND FREE ENERGY PREDICTED BY IDOCK:   -6.05 KCAL/MOL
REMARK 924 INTRA-LIGAND FREE ENERGY PREDICTED BY IDOCK:    1.04 KCAL/MOL
REMARK 927      BINDING AFFINITY PREDICTED BY RF-SCORE:    0.00 PKD
ROOT
HETATM    1 NA   UNL     1      -5.577  15.947  66.974  1.00  0.00    -0.123 Na 
HETATM    2 NA   UNL     2      -6.180  14.683  71.364  1.00  0.00    -0.155 Na 
HETATM    3 CA   UNL     3      -7.809  11.287  65.113  1.00  0.00    -0.306 Ca 
HETATM    4  O   UNL     4      -7.320  16.015  68.044  1.00  0.00    -0.123 OA 
HETATM    5  C   UNL     4      -7.866  15.147  68.786  1.00  0.00    -0.147 C  
HETATM    6  O   UNL     4      -7.233  14.566  69.733  1.00  0.00    -0.112 OA 
HETATM    7  C   UNL     4      -9.335  14.717  68.609  1.00  0.00    -0.206 C  
ENDROOT
BRANCH   7   8
HETATM    8  N   UNL     4     -10.015  14.988  67.311  1.00  0.00    -0.232 NA 
BRANCH   8   9
HETATM    9  C   UNL     4     -11.452  14.725  67.182  1.00  0.00    -0.364 C  
BRANCH   9  10
HETATM   10  C   UNL     4     -11.944  13.317  67.522  1.00  0.00    -0.324 C  
BRANCH  10  11
HETATM   11  N   UNL     4     -11.734  12.326  66.436  1.00  0.00    -0.526 NA 
BRANCH  11  12
HETATM   12  C   UNL     4     -12.040  12.853  65.067  1.00  0.00    -0.435 C  
HETATM   13  O   UNL     4     -10.433  12.772  63.263  1.00  0.00    -0.219 OA 
HETATM   14  O   UNL     4     -11.024  10.830  64.363  1.00  0.00    -0.124 OA 
HETATM   15  C   UNL     4     -11.099  12.084  64.074  1.00  0.00    -0.386 C  
ENDBRANCH  11  12
BRANCH  11  16
HETATM   16  C   UNL     4     -10.312  11.825  66.474  1.00  0.00    -0.223 C  
HETATM   17  C   UNL     4     -10.232  10.855  67.689  1.00  0.00    -0.183 C  
HETATM   18  O   UNL     4      -9.477  11.231  68.631  1.00  0.00    -0.186 OA 
HETATM   19  O   UNL     4     -11.174   9.975  67.665  1.00  0.00    -0.248 OA 
ENDBRANCH  11  16
ENDBRANCH  10  11
ENDBRANCH   9  10
ENDBRANCH   8   9
BRANCH   8  20
HETATM   20  C   UNL     4      -9.799  16.458  66.987  1.00  0.00    -0.251 C  
HETATM   21  C   UNL     4     -10.420  16.954  65.622  1.00  0.00    -0.238 C  
HETATM   22  O   UNL     4     -10.870  18.137  65.650  1.00  0.00    -0.407 OA 
HETATM   23  O   UNL     4     -10.415  16.145  64.632  1.00  0.00    -0.526 OA 
ENDBRANCH   8  20
ENDBRANCH   7   8
TORSDOF 7
ENDMDL
MODEL      378
REMARK 921   NORMALIZED FREE ENERGY PREDICTED BY IDOCK:   -2.51 KCAL/MOL
REMARK 922        TOTAL FREE ENERGY PREDICTED BY IDOCK:   -4.98 KCAL/MOL
REMARK 923 INTER-LIGAND FREE ENERGY PREDICTED BY IDOCK:   -3.82 KCAL/MOL
REMARK 924 INTRA-LIGAND FREE ENERGY PREDICTED BY IDOCK:   -1.17 KCAL/MOL
REMARK 927      BINDING AFFINITY PREDICTED BY RF-SCORE:    0.00 PKD
ROOT
HETATM    1 NA   UNL     1      -7.399  12.664  69.126  1.00  0.00    -0.099 Na 
HETATM    2 NA   UNL     2      -9.359  16.459  67.398  1.00  0.00    -0.203 Na 
HETATM    3 CA   UNL     3     -12.241  10.103  69.531  1.00  0.00    -0.337 Ca 
HETATM    4  O   UNL     4      -8.039  12.950  67.203  1.00  0.00    -0.173 OA 
HETATM    5  C   UNL     4      -9.126  13.419  66.758  1.00  0.00    -0.212 C  
HETATM    6  O   UNL     4      -9.592  14.545  67.147  1.00  0.00    -0.220 OA 
HETATM    7  C   UNL     4      -9.979  12.674  65.712  1.00  0.00    -0.256 C  
ENDROOT
BRANCH   7   8
HETATM    8  N   UNL     4      -9.772  11.211  65.522  1.00  0.00    -0.217 NA 
BRANCH   8   9
HETATM    9  C   UNL     4     -10.520  10.264  66.354  1.00  0.00    -0.163 C  
BRANCH   9  10
HETATM   10  C   UNL     4     -10.100   8.794  66.300  1.00  0.00    -0.184 C  
BRANCH  10  11
HETATM   11  N   UNL     4      -9.052   8.430  67.287  1.00  0.00    -0.135 NA 
BRANCH  11  12
HETATM   12  C   UNL     4      -8.596   9.575  68.138  1.00  0.00    -0.120 C  
HETATM   13  O   UNL     4      -6.297   9.824  68.845  1.00  0.00    -0.042 OA 
HETATM   14  O   UNL     4      -6.796   9.643  66.597  1.00  0.00    -0.081 OA 
HETATM   15  C   UNL     4      -7.063   9.758  67.853  1.00  0.00    -0.083 C  
ENDBRANCH  11  12
BRANCH  11  16
HETATM   16  C   UNL     4      -9.553   7.315  68.171  1.00  0.00    -0.140 C  
HETATM   17  C   UNL     4      -8.740   6.049  67.768  1.00  0.00    -0.104 C  
HETATM   18  O   UNL     4      -9.417   5.116  67.250  1.00  0.00    -0.121 OA 
HETATM   19  O   UNL     4      -7.471   6.277  67.757  1.00  0.00    -0.089 OA 
ENDBRANCH  11  16
ENDBRANCH  10  11
ENDBRANCH   9  10
ENDBRANCH   8   9
BRANCH   8  20
HETATM   20  C   UNL     4     -10.105  10.893  64.072  1.00  0.00    -0.358 C  
HETATM   21  C   UNL     4      -8.912  10.328  63.207  1.00  0.00    -0.242 C  
HETATM   22  O   UNL     4      -9.251   9.460  62.348  1.00  0.00    -0.258 OA 
HETATM   23  O   UNL     4      -7.737  10.780  63.436  1.00  0.00     0.021 OA 
ENDBRANCH   8  20
ENDBRANCH   7   8
TORSDOF 7
ENDMDL
MODEL      379
REMARK 921   NORMALIZED FREE ENERGY PREDICTED BY IDOCK:   -2.48 KCAL/MOL
REMARK 922        TOTAL FREE ENERGY PREDICTED BY IDOCK:   -4.93 KCAL/MOL
REMARK 923 INTER-LIGAND FREE ENERGY PREDICTED BY IDOCK:   -4.67 KCAL/MOL
REMARK 924 INTRA-LIGAND FREE ENERGY PREDICTED BY IDOCK:   -0.26 KCAL/MOL
REMARK 927      BINDING AFFINITY PREDICTED BY RF-SCORE:    0.00 PKD
ROOT
HETATM    1 NA   UNL     1      -9.167  12.246  64.120  1.00  0.00    -0.424 Na 
HETATM    2 NA   UNL     2      -6.161  14.063  67.103  1.00  0.00    -0.159 Na 
HETATM    3 CA   UNL     3      -8.482   7.205  66.188  1.00  0.00    -0.101 Ca 
HETATM    4  O   UNL     4      -9.506  12.693  66.088  1.00  0.00    -0.239 OA 
HETATM    5  C   UNL     4      -8.820  12.440  67.120  1.00  0.00    -0.197 C  
HETATM    6  O   UNL     4      -7.579  12.735  67.203  1.00  0.00    -0.132 OA 
HETATM    7  C   UNL     4      -9.422  11.754  68.363  1.00  0.00    -0.188 C  
ENDROOT
BRANCH   7   8
HETATM    8  N   UNL     4     -10.696  10.995  68.222  1.00  0.00    -0.182 NA 
BRANCH   8   9
HETATM    9  C   UNL     4     -10.955   9.853  69.105  1.00  0.00    -0.200 C  
BRANCH   9  10
HETATM   10  C   UNL     4     -10.350   8.505  68.710  1.00  0.00    -0.213 C  
BRANCH  10  11
HETATM   11  N   UNL     4      -9.330   7.999  69.664  1.00  0.00    -0.156 NA 
BRANCH  11  12
HETATM   12  C   UNL     4      -7.961   7.865  69.072  1.00  0.00    -0.122 C  
HETATM   13  O   UNL     4      -6.448   6.088  69.708  1.00  0.00    -0.038 OA 
HETATM   14  O   UNL     4      -8.555   5.575  68.915  1.00  0.00    -0.100 OA 
HETATM   15  C   UNL     4      -7.567   6.350  69.203  1.00  0.00    -0.100 C  
ENDBRANCH  11  12
BRANCH  11  16
HETATM   16  C   UNL     4      -9.270   8.904  70.869  1.00  0.00    -0.231 C  
HETATM   17  C   UNL     4      -9.997   8.141  72.015  1.00  0.00    -0.233 C  
HETATM   18  O   UNL     4     -11.063   8.679  72.429  1.00  0.00    -0.354 OA 
HETATM   19  O   UNL     4      -9.551   6.938  72.149  1.00  0.00    -0.147 OA 
ENDBRANCH  11  16
ENDBRANCH  10  11
ENDBRANCH   9  10
ENDBRANCH   8   9
BRANCH   8  20
HETATM   20  C   UNL     4     -11.835  11.982  68.421  1.00  0.00    -0.300 C  
HETATM   21  C   UNL     4     -12.136  12.384  69.918  1.00  0.00    -0.247 C  
HETATM   22  O   UNL     4     -12.499  13.588  70.075  1.00  0.00    -0.268 OA 
HETATM   23  O   UNL     4     -11.993  11.489  70.820  1.00  0.00    -0.344 OA 
ENDBRANCH   8  20
ENDBRANCH   7   8
TORSDOF 7
ENDMDL
MODEL      380
REMARK 921   NORMALIZED FREE ENERGY PREDICTED BY IDOCK:   -2.47 KCAL/MOL
REMARK 922        TOTAL FREE ENERGY PREDICTED BY IDOCK:   -4.93 KCAL/MOL
REMARK 923 INTER-LIGAND FREE ENERGY PREDICTED BY IDOCK:   -3.93 KCAL/MOL
REMARK 924 INTRA-LIGAND FREE ENERGY PREDICTED BY IDOCK:   -1.00 KCAL/MOL
REMARK 927      BINDING AFFINITY PREDICTED BY RF-SCORE:    0.00 PKD
ROOT
HETATM    1 NA   UNL     1      -5.424   6.580  67.839  1.00  0.00    -0.005 Na 
HETATM    2 NA   UNL     2      -7.455   2.514  68.599  1.00  0.00    -0.045 Na 
HETATM    3 CA   UNL     3      -9.541   8.264  64.617  1.00  0.00    -0.388 Ca 
HETATM    4  O   UNL     4      -6.970   6.200  69.125  1.00  0.00    -0.063 OA 
HETATM    5  C   UNL     4      -8.044   5.553  68.953  1.00  0.00    -0.095 C  
HETATM    6  O   UNL     4      -8.054   4.361  68.489  1.00  0.00    -0.081 OA 
HETATM    7  C   UNL     4      -9.427   6.146  69.288  1.00  0.00    -0.133 C  
ENDROOT
BRANCH   7   8
HETATM    8  N   UNL     4      -9.567   7.623  69.412  1.00  0.00    -0.159 NA 
BRANCH   8   9
HETATM    9  C   UNL     4      -9.739   8.435  68.203  1.00  0.00    -0.155 C  
BRANCH   9  10
HETATM   10  C   UNL     4      -9.098   9.824  68.189  1.00  0.00    -0.125 C  
BRANCH  10  11
HETATM   11  N   UNL     4      -9.737  10.773  67.243  1.00  0.00    -0.160 NA 
BRANCH  11  12
HETATM   12  C   UNL     4      -9.107  10.791  65.884  1.00  0.00    -0.188 C  
HETATM   13  O   UNL     4      -9.957  12.166  64.085  1.00  0.00    -0.296 OA 
HETATM   14  O   UNL     4      -9.373  13.138  66.096  1.00  0.00    -0.194 OA 
HETATM   15  C   UNL     4      -9.474  12.177  65.243  1.00  0.00     0.027 C  
ENDBRANCH  11  12
BRANCH  11  16
HETATM   16  C   UNL     4     -11.204  10.448  67.111  1.00  0.00    -0.007 C  
HETATM   17  C   UNL     4     -11.934  11.326  68.171  1.00  0.00    -0.110 C  
HETATM   18  O   UNL     4     -12.504  10.687  69.101  1.00  0.00    -0.317 OA 
HETATM   19  O   UNL     4     -11.588  12.565  68.089  1.00  0.00    -0.297 OA 
ENDBRANCH  11  16
ENDBRANCH  10  11
ENDBRANCH   9  10
ENDBRANCH   8   9
BRANCH   8  20
HETATM   20  C   UNL     4     -10.770   7.889  70.304  1.00  0.00    -0.236 C  
HETATM   21  C   UNL     4     -10.478   8.721  71.613  1.00  0.00    -0.317 C  
HETATM   22  O   UNL     4     -11.409   9.510  71.953  1.00  0.00    -0.329 OA 
HETATM   23  O   UNL     4      -9.359   8.536  72.205  1.00  0.00    -0.259 OA 
ENDBRANCH   8  20
ENDBRANCH   7   8
TORSDOF 7
ENDMDL
MODEL      381
REMARK 921   NORMALIZED FREE ENERGY PREDICTED BY IDOCK:   -2.47 KCAL/MOL
REMARK 922        TOTAL FREE ENERGY PREDICTED BY IDOCK:   -4.93 KCAL/MOL
REMARK 923 INTER-LIGAND FREE ENERGY PREDICTED BY IDOCK:   -3.99 KCAL/MOL
REMARK 924 INTRA-LIGAND FREE ENERGY PREDICTED BY IDOCK:   -0.94 KCAL/MOL
REMARK 927      BINDING AFFINITY PREDICTED BY RF-SCORE:    0.00 PKD
ROOT
HETATM    1 NA   UNL     1      -5.724  14.304  68.537  1.00  0.00    -0.074 Na 
HETATM    2 NA   UNL     2      -9.946  16.148  68.419  1.00  0.00    -0.203 Na 
HETATM    3 CA   UNL     3      -7.523   9.851  71.202  1.00  0.00    -0.126 Ca 
HETATM    4  O   UNL     4      -7.249  13.804  67.267  1.00  0.00    -0.136 OA 
HETATM    5  C   UNL     4      -8.470  13.564  67.499  1.00  0.00    -0.192 C  
HETATM    6  O   UNL     4      -9.206  14.367  68.168  1.00  0.00    -0.185 OA 
HETATM    7  C   UNL     4      -9.169  12.285  66.997  1.00  0.00    -0.205 C  
ENDROOT
BRANCH   7   8
HETATM    8  N   UNL     4      -8.336  11.114  66.604  1.00  0.00    -0.155 NA 
BRANCH   8   9
HETATM    9  C   UNL     4      -8.269   9.948  67.490  1.00  0.00    -0.114 C  
BRANCH   9  10
HETATM   10  C   UNL     4      -8.996  10.039  68.832  1.00  0.00    -0.152 C  
BRANCH  10  11
HETATM   11  N   UNL     4      -9.990   8.959  69.054  1.00  0.00    -0.184 NA 
BRANCH  11  12
HETATM   12  C   UNL     4     -11.053   9.308  70.050  1.00  0.00    -0.205 C  
HETATM   13  O   UNL     4     -11.901   7.704  71.649  1.00  0.00    -0.272 OA 
HETATM   14  O   UNL     4      -9.636   8.144  71.555  1.00  0.00    -0.156 OA 
HETATM   15  C   UNL     4     -10.878   8.314  71.254  1.00  0.00    -0.237 C  
ENDBRANCH  11  12
BRANCH  11  16
HETATM   16  C   UNL     4     -10.635   8.585  67.743  1.00  0.00    -0.175 C  
HETATM   17  C   UNL     4     -10.378   7.060  67.559  1.00  0.00    -0.225 C  
HETATM   18  O   UNL     4      -9.639   6.751  66.581  1.00  0.00    -0.165 OA 
HETATM   19  O   UNL     4     -10.718   6.386  68.604  1.00  0.00    -0.227 OA 
ENDBRANCH  11  16
ENDBRANCH  10  11
ENDBRANCH   9  10
ENDBRANCH   8   9
BRANCH   8  20
HETATM   20  C   UNL     4      -8.850  10.626  65.259  1.00  0.00    -0.189 C  
HETATM   21  C   UNL     4      -7.866   9.694  64.449  1.00  0.00    -0.129 C  
HETATM   22  O   UNL     4      -8.436   8.778  63.786  1.00  0.00    -0.171 OA 
HETATM   23  O   UNL     4      -6.612   9.935  64.526  1.00  0.00    -0.111 OA 
ENDBRANCH   8  20
ENDBRANCH   7   8
TORSDOF 7
ENDMDL
MODEL      382
REMARK 921   NORMALIZED FREE ENERGY PREDICTED BY IDOCK:   -2.46 KCAL/MOL
REMARK 922        TOTAL FREE ENERGY PREDICTED BY IDOCK:   -4.91 KCAL/MOL
REMARK 923 INTER-LIGAND FREE ENERGY PREDICTED BY IDOCK:   -5.73 KCAL/MOL
REMARK 924 INTRA-LIGAND FREE ENERGY PREDICTED BY IDOCK:    0.82 KCAL/MOL
REMARK 927      BINDING AFFINITY PREDICTED BY RF-SCORE:    0.00 PKD
ROOT
HETATM    1 NA   UNL     1      -6.471   5.760  64.958  1.00  0.00    -0.032 Na 
HETATM    2 NA   UNL     2      -5.813   6.190  69.498  1.00  0.00    -0.011 Na 
HETATM    3 CA   UNL     3     -11.930   5.665  65.553  1.00  0.00    -0.643 Ca 
HETATM    4  O   UNL     4      -6.669   7.465  66.072  1.00  0.00    -0.051 OA 
HETATM    5  C   UNL     4      -7.264   7.667  67.170  1.00  0.00    -0.090 C  
HETATM    6  O   UNL     4      -7.054   6.942  68.202  1.00  0.00    -0.080 OA 
HETATM    7  C   UNL     4      -8.292   8.800  67.355  1.00  0.00    -0.109 C  
ENDROOT
BRANCH   7   8
HETATM    8  N   UNL     4      -8.923   9.407  66.150  1.00  0.00    -0.153 NA 
BRANCH   8   9
HETATM    9  C   UNL     4     -10.223  10.073  66.275  1.00  0.00    -0.215 C  
BRANCH   9  10
HETATM   10  C   UNL     4     -10.514  11.236  65.325  1.00  0.00    -0.282 C  
BRANCH  10  11
HETATM   11  N   UNL     4     -11.084  12.432  65.994  1.00  0.00    -0.295 NA 
BRANCH  11  12
HETATM   12  C   UNL     4     -10.227  13.655  65.884  1.00  0.00    -0.311 C  
HETATM   13  O   UNL     4     -10.614  15.629  67.227  1.00  0.00    -0.294 OA 
HETATM   14  O   UNL     4     -10.302  13.584  68.253  1.00  0.00    -0.239 OA 
HETATM   15  C   UNL     4     -10.342  14.404  67.259  1.00  0.00    -0.260 C  
ENDBRANCH  11  12
BRANCH  11  16
HETATM   16  C   UNL     4     -12.452  12.725  65.429  1.00  0.00    -0.416 C  
HETATM   17  C   UNL     4     -12.211  13.341  64.019  1.00  0.00    -0.410 C  
HETATM   18  O   UNL     4     -12.572  14.545  63.888  1.00  0.00    -0.827 OA 
HETATM   19  O   UNL     4     -11.415  12.617  63.309  1.00  0.00    -0.483 OA 
ENDBRANCH  11  16
ENDBRANCH  10  11
ENDBRANCH   9  10
ENDBRANCH   8   9
BRANCH   8  20
HETATM   20  C   UNL     4      -7.946  10.433  65.597  1.00  0.00    -0.153 C  
HETATM   21  C   UNL     4      -7.161  11.277  66.675  1.00  0.00    -0.127 C  
HETATM   22  O   UNL     4      -5.969  11.561  66.353  1.00  0.00    -0.140 OA 
HETATM   23  O   UNL     4      -7.774  11.597  67.750  1.00  0.00    -0.114 OA 
ENDBRANCH   8  20
ENDBRANCH   7   8
TORSDOF 7
ENDMDL
MODEL      383
REMARK 921   NORMALIZED FREE ENERGY PREDICTED BY IDOCK:   -2.45 KCAL/MOL
REMARK 922        TOTAL FREE ENERGY PREDICTED BY IDOCK:   -4.90 KCAL/MOL
REMARK 923 INTER-LIGAND FREE ENERGY PREDICTED BY IDOCK:   -4.20 KCAL/MOL
REMARK 924 INTRA-LIGAND FREE ENERGY PREDICTED BY IDOCK:   -0.71 KCAL/MOL
REMARK 927      BINDING AFFINITY PREDICTED BY RF-SCORE:    0.00 PKD
ROOT
HETATM    1 NA   UNL     1      -7.419   5.538  71.436  1.00  0.00    -0.072 Na 
HETATM    2 NA   UNL     2      -6.366   8.980  74.313  1.00  0.00    -0.122 Na 
HETATM    3 CA   UNL     3     -12.670   5.527  73.046  1.00  0.00    -0.501 Ca 
HETATM    4  O   UNL     4      -7.808   7.529  71.165  1.00  0.00    -0.088 OA 
HETATM    5  C   UNL     4      -8.308   8.385  71.951  1.00  0.00    -0.167 C  
HETATM    6  O   UNL     4      -7.857   8.570  73.133  1.00  0.00    -0.343 OA 
HETATM    7  C   UNL     4      -9.502   9.274  71.550  1.00  0.00    -0.031 C  
ENDROOT
BRANCH   7   8
HETATM    8  N   UNL     4     -10.360   8.858  70.406  1.00  0.00    -0.195 NA 
BRANCH   8   9
HETATM    9  C   UNL     4      -9.835   8.952  69.040  1.00  0.00    -0.180 C  
BRANCH   9  10
HETATM   10  C   UNL     4     -10.703   9.659  67.998  1.00  0.00    -0.232 C  
BRANCH  10  11
HETATM   11  N   UNL     4     -10.435  11.114  67.877  1.00  0.00    -0.182 NA 
BRANCH  11  12
HETATM   12  C   UNL     4     -11.481  11.978  68.512  1.00  0.00    -0.293 C  
HETATM   13  O   UNL     4     -11.772  14.303  67.915  1.00  0.00    -0.322 OA 
HETATM   14  O   UNL     4     -11.865  12.676  66.279  1.00  0.00    -0.393 OA 
HETATM   15  C   UNL     4     -11.794  13.124  67.485  1.00  0.00    -0.360 C  
ENDBRANCH  11  12
BRANCH  11  16
HETATM   16  C   UNL     4      -9.088  11.434  68.477  1.00  0.00    -0.169 C  
HETATM   17  C   UNL     4      -8.126  11.660  67.273  1.00  0.00    -0.160 C  
HETATM   18  O   UNL     4      -7.192  10.815  67.163  1.00  0.00    -0.092 OA 
HETATM   19  O   UNL     4      -8.612  12.495  66.420  1.00  0.00    -0.048 OA 
ENDBRANCH  11  16
ENDBRANCH  10  11
ENDBRANCH   9  10
ENDBRANCH   8   9
BRANCH   8  20
HETATM   20  C   UNL     4     -10.748   7.406  70.637  1.00  0.00    -0.229 C  
HETATM   21  C   UNL     4     -12.238   7.163  71.101  1.00  0.00    -0.365 C  
HETATM   22  O   UNL     4     -12.765   6.107  70.642  1.00  0.00     0.663 OA 
HETATM   23  O   UNL     4     -12.773   8.027  71.878  1.00  0.00    -0.315 OA 
ENDBRANCH   8  20
ENDBRANCH   7   8
TORSDOF 7
ENDMDL
MODEL      384
REMARK 921   NORMALIZED FREE ENERGY PREDICTED BY IDOCK:   -2.42 KCAL/MOL
REMARK 922        TOTAL FREE ENERGY PREDICTED BY IDOCK:   -4.85 KCAL/MOL
REMARK 923 INTER-LIGAND FREE ENERGY PREDICTED BY IDOCK:   -3.97 KCAL/MOL
REMARK 924 INTRA-LIGAND FREE ENERGY PREDICTED BY IDOCK:   -0.88 KCAL/MOL
REMARK 927      BINDING AFFINITY PREDICTED BY RF-SCORE:    0.00 PKD
ROOT
HETATM    1 NA   UNL     1      -9.784   9.878  68.648  1.00  0.00    -0.140 Na 
HETATM    2 NA   UNL     2     -13.605  10.565  71.131  1.00  0.00    -0.350 Na 
HETATM    3 CA   UNL     3      -6.738   9.154  73.160  1.00  0.00    -0.093 Ca 
HETATM    4  O   UNL     4     -10.938   8.448  69.548  1.00  0.00    -0.170 OA 
HETATM    5  C   UNL     4     -11.413   8.390  70.720  1.00  0.00    -0.255 C  
HETATM    6  O   UNL     4     -12.092   9.347  71.228  1.00  0.00    -0.305 OA 
HETATM    7  C   UNL     4     -11.211   7.163  71.631  1.00  0.00    -0.244 C  
ENDROOT
BRANCH   7   8
HETATM    8  N   UNL     4     -10.109   6.209  71.325  1.00  0.00    -0.185 NA 
BRANCH   8   9
HETATM    9  C   UNL     4      -9.941   5.719  69.953  1.00  0.00    -0.194 C  
BRANCH   9  10
HETATM   10  C   UNL     4      -8.611   6.014  69.257  1.00  0.00    -0.118 C  
BRANCH  10  11
HETATM   11  N   UNL     4      -8.704   6.064  67.776  1.00  0.00    -0.106 NA 
BRANCH  11  12
HETATM   12  C   UNL     4      -7.950   7.202  67.160  1.00  0.00    -0.110 C  
HETATM   13  O   UNL     4      -8.414   7.997  64.924  1.00  0.00    -0.136 OA 
HETATM   14  O   UNL     4     -10.112   7.906  66.486  1.00  0.00    -0.246 OA 
HETATM   15  C   UNL     4      -8.895   7.822  66.070  1.00  0.00    -0.157 C  
ENDBRANCH  11  12
BRANCH  11  16
HETATM   16  C   UNL     4      -8.215   4.762  67.193  1.00  0.00    -0.106 C  
HETATM   17  C   UNL     4      -9.491   3.945  66.837  1.00  0.00    -0.202 C  
HETATM   18  O   UNL     4      -9.652   2.880  67.499  1.00  0.00    -0.167 OA 
HETATM   19  O   UNL     4     -10.325   4.636  66.137  1.00  0.00    -0.269 OA 
ENDBRANCH  11  16
ENDBRANCH  10  11
ENDBRANCH   9  10
ENDBRANCH   8   9
BRANCH   8  20
HETATM   20  C   UNL     4      -8.805   6.884  71.722  1.00  0.00    -0.131 C  
HETATM   21  C   UNL     4      -7.991   6.172  72.872  1.00  0.00    -0.105 C  
HETATM   22  O   UNL     4      -6.733   6.237  72.742  1.00  0.00    -0.064 OA 
HETATM   23  O   UNL     4      -8.650   5.607  73.812  1.00  0.00    -0.119 OA 
ENDBRANCH   8  20
ENDBRANCH   7   8
TORSDOF 7
ENDMDL
MODEL      385
REMARK 921   NORMALIZED FREE ENERGY PREDICTED BY IDOCK:   -2.41 KCAL/MOL
REMARK 922        TOTAL FREE ENERGY PREDICTED BY IDOCK:   -4.84 KCAL/MOL
REMARK 923 INTER-LIGAND FREE ENERGY PREDICTED BY IDOCK:   -4.06 KCAL/MOL
REMARK 924 INTRA-LIGAND FREE ENERGY PREDICTED BY IDOCK:   -0.77 KCAL/MOL
REMARK 927      BINDING AFFINITY PREDICTED BY RF-SCORE:    0.00 PKD
ROOT
HETATM    1 NA   UNL     1     -10.740  14.055  63.533  1.00  0.00    -0.496 Na 
HETATM    2 NA   UNL     2      -9.586  18.019  65.580  1.00  0.00    -0.249 Na 
HETATM    3 CA   UNL     3      -6.124  11.604  65.223  1.00  0.00    -0.359 Ca 
HETATM    4  O   UNL     4     -10.890  14.499  65.525  1.00  0.00    -0.305 OA 
HETATM    5  C   UNL     4     -10.057  15.029  66.316  1.00  0.00    -0.282 C  
HETATM    6  O   UNL     4      -9.474  16.135  66.050  1.00  0.00    -0.304 OA 
HETATM    7  C   UNL     4      -9.676  14.386  67.664  1.00  0.00    -0.219 C  
ENDROOT
BRANCH   7   8
HETATM    8  N   UNL     4      -9.945  12.936  67.874  1.00  0.00    -0.226 NA 
BRANCH   8   9
HETATM    9  C   UNL     4      -9.200  12.207  68.905  1.00  0.00     0.231 C  
BRANCH   9  10
HETATM   10  C   UNL     4      -7.747  11.838  68.598  1.00  0.00    -0.126 C  
BRANCH  10  11
HETATM   11  N   UNL     4      -7.420  10.413  68.856  1.00  0.00    -0.090 NA 
BRANCH  11  12
HETATM   12  C   UNL     4      -7.219  10.089  70.304  1.00  0.00    -0.147 C  
HETATM   13  O   UNL     4      -6.317   7.969  71.040  1.00  0.00    -0.036 OA 
HETATM   14  O   UNL     4      -5.128   9.267  69.546  1.00  0.00    -0.035 OA 
HETATM   15  C   UNL     4      -6.088   9.001  70.364  1.00  0.00    -0.037 C  
ENDBRANCH  11  12
BRANCH  11  16
HETATM   16  C   UNL     4      -8.506   9.532  68.290  1.00  0.00    -0.119 C  
HETATM   17  C   UNL     4      -8.076   9.206  66.829  1.00  0.00    -0.111 C  
HETATM   18  O   UNL     4      -8.831   9.670  65.928  1.00  0.00    -0.141 OA 
HETATM   19  O   UNL     4      -6.864   8.770  66.772  1.00  0.00    -0.068 OA 
ENDBRANCH  11  16
ENDBRANCH  10  11
ENDBRANCH   9  10
ENDBRANCH   8   9
BRANCH   8  20
HETATM   20  C   UNL     4     -11.422  12.793  68.205  1.00  0.00    -0.314 C  
HETATM   21  C   UNL     4     -11.964  11.313  68.287  1.00  0.00    -0.145 C  
HETATM   22  O   UNL     4     -12.854  11.128  69.169  1.00  0.00    -0.099 OA 
HETATM   23  O   UNL     4     -11.475  10.449  67.480  1.00  0.00    -0.386 OA 
ENDBRANCH   8  20
ENDBRANCH   7   8
TORSDOF 7
ENDMDL
MODEL      386
REMARK 921   NORMALIZED FREE ENERGY PREDICTED BY IDOCK:   -2.40 KCAL/MOL
REMARK 922        TOTAL FREE ENERGY PREDICTED BY IDOCK:   -4.83 KCAL/MOL
REMARK 923 INTER-LIGAND FREE ENERGY PREDICTED BY IDOCK:   -5.61 KCAL/MOL
REMARK 924 INTRA-LIGAND FREE ENERGY PREDICTED BY IDOCK:    0.78 KCAL/MOL
REMARK 927      BINDING AFFINITY PREDICTED BY RF-SCORE:    0.00 PKD
ROOT
HETATM    1 NA   UNL     1     -14.215   9.921  69.617  1.00  0.00    -0.586 Na 
HETATM    2 NA   UNL     2     -13.234  13.013  72.890  1.00  0.00    -0.461 Na 
HETATM    3 CA   UNL     3     -14.013  13.735  65.670  1.00  0.00    -0.542 Ca 
HETATM    4  O   UNL     4     -12.375  10.699  70.061  1.00  0.00    -0.311 OA 
HETATM    5  C   UNL     4     -12.010  11.895  70.252  1.00  0.00    -0.330 C  
HETATM    6  O   UNL     4     -12.605  12.664  71.083  1.00  0.00    -0.366 OA 
HETATM    7  C   UNL     4     -10.822  12.526  69.499  1.00  0.00     0.193 C  
ENDROOT
BRANCH   7   8
HETATM    8  N   UNL     4     -10.350  11.893  68.236  1.00  0.00    -0.196 NA 
BRANCH   8   9
HETATM    9  C   UNL     4      -9.559  10.660  68.300  1.00  0.00    -0.162 C  
BRANCH   9  10
HETATM   10  C   UNL     4      -8.914  10.305  69.640  1.00  0.00    -0.118 C  
BRANCH  10  11
HETATM   11  N   UNL     4      -8.128   9.046  69.616  1.00  0.00    -0.098 NA 
BRANCH  11  12
HETATM   12  C   UNL     4      -6.725   9.217  69.120  1.00  0.00    -0.050 C  
HETATM   13  O   UNL     4      -5.629  11.371  69.061  1.00  0.00    -0.040 OA 
HETATM   14  O   UNL     4      -6.504  10.581  71.047  1.00  0.00    -0.346 OA 
HETATM   15  C   UNL     4      -6.166  10.515  69.805  1.00  0.00    -0.074 C  
ENDBRANCH  11  12
BRANCH  11  16
HETATM   16  C   UNL     4      -8.102   8.437  70.995  1.00  0.00    -0.119 C  
HETATM   17  C   UNL     4      -9.423   7.623  71.130  1.00  0.00    -0.154 C  
HETATM   18  O   UNL     4     -10.233   8.050  72.001  1.00  0.00    -0.196 OA 
HETATM   19  O   UNL     4      -9.601   6.828  70.130  1.00  0.00    -0.161 OA 
ENDBRANCH  11  16
ENDBRANCH  10  11
ENDBRANCH   9  10
ENDBRANCH   8   9
BRANCH   8  20
HETATM   20  C   UNL     4     -11.580  11.593  67.394  1.00  0.00    -0.254 C  
HETATM   21  C   UNL     4     -11.897  12.635  66.252  1.00  0.00    -0.410 C  
HETATM   22  O   UNL     4     -12.377  12.127  65.195  1.00  0.00    -0.488 OA 
HETATM   23  O   UNL     4     -11.651  13.869  66.480  1.00  0.00    -0.337 OA 
ENDBRANCH   8  20
ENDBRANCH   7   8
TORSDOF 7
ENDMDL
MODEL      387
REMARK 921   NORMALIZED FREE ENERGY PREDICTED BY IDOCK:   -2.40 KCAL/MOL
REMARK 922        TOTAL FREE ENERGY PREDICTED BY IDOCK:   -4.82 KCAL/MOL
REMARK 923 INTER-LIGAND FREE ENERGY PREDICTED BY IDOCK:   -4.18 KCAL/MOL
REMARK 924 INTRA-LIGAND FREE ENERGY PREDICTED BY IDOCK:   -0.64 KCAL/MOL
REMARK 927      BINDING AFFINITY PREDICTED BY RF-SCORE:    0.00 PKD
ROOT
HETATM    1 NA   UNL     1      -8.846   5.835  68.769  1.00  0.00    -0.106 Na 
HETATM    2 NA   UNL     2      -5.674   5.044  65.520  1.00  0.00    -0.013 Na 
HETATM    3 CA   UNL     3      -7.224  11.048  69.369  1.00  0.00    -0.070 Ca 
HETATM    4  O   UNL     4      -8.935   6.393  66.802  1.00  0.00    -0.122 OA 
HETATM    5  C   UNL     4      -8.074   6.955  66.065  1.00  0.00    -0.119 C  
HETATM    6  O   UNL     4      -6.881   6.508  65.948  1.00  0.00    -0.050 OA 
HETATM    7  C   UNL     4      -8.388   8.224  65.248  1.00  0.00    -0.166 C  
ENDROOT
BRANCH   7   8
HETATM    8  N   UNL     4      -9.562   9.056  65.632  1.00  0.00    -0.223 NA 
BRANCH   8   9
HETATM    9  C   UNL     4     -10.172   8.876  66.953  1.00  0.00    -0.276 C  
BRANCH   9  10
HETATM   10  C   UNL     4      -9.611   9.707  68.108  1.00  0.00    -0.143 C  
BRANCH  10  11
HETATM   11  N   UNL     4     -10.647  10.229  69.035  1.00  0.00    -0.210 NA 
BRANCH  11  12
HETATM   12  C   UNL     4     -11.644  11.135  68.381  1.00  0.00    -0.306 C  
HETATM   13  O   UNL     4     -12.068  13.378  69.180  1.00  0.00    -0.317 OA 
HETATM   14  O   UNL     4      -9.920  12.746  68.616  1.00  0.00    -0.190 OA 
HETATM   15  C   UNL     4     -11.197  12.603  68.716  1.00  0.00    -0.280 C  
ENDBRANCH  11  12
BRANCH  11  16
HETATM   16  C   UNL     4     -11.368   9.077  69.689  1.00  0.00     0.121 C  
HETATM   17  C   UNL     4     -10.364   8.468  70.712  1.00  0.00    -0.198 C  
HETATM   18  O   UNL     4      -9.987   7.288  70.460  1.00  0.00    -0.190 OA 
HETATM   19  O   UNL     4      -9.857   9.369  71.482  1.00  0.00    -0.245 OA 
ENDBRANCH  11  16
ENDBRANCH  10  11
ENDBRANCH   9  10
ENDBRANCH   8   9
BRANCH   8  20
HETATM   20  C   UNL     4      -9.136  10.513  65.530  1.00  0.00    -0.186 C  
HETATM   21  C   UNL     4     -10.157  11.474  64.805  1.00  0.00    -0.269 C  
HETATM   22  O   UNL     4     -10.209  12.644  65.287  1.00  0.00    -0.286 OA 
HETATM   23  O   UNL     4     -10.825  11.006  63.819  1.00  0.00    -0.339 OA 
ENDBRANCH   8  20
ENDBRANCH   7   8
TORSDOF 7
ENDMDL
MODEL      388
REMARK 921   NORMALIZED FREE ENERGY PREDICTED BY IDOCK:   -2.40 KCAL/MOL
REMARK 922        TOTAL FREE ENERGY PREDICTED BY IDOCK:   -4.82 KCAL/MOL
REMARK 923 INTER-LIGAND FREE ENERGY PREDICTED BY IDOCK:   -4.61 KCAL/MOL
REMARK 924 INTRA-LIGAND FREE ENERGY PREDICTED BY IDOCK:   -0.20 KCAL/MOL
REMARK 927      BINDING AFFINITY PREDICTED BY RF-SCORE:    0.00 PKD
ROOT
HETATM    1 NA   UNL     1      -6.748   5.844  69.077  1.00  0.00    -0.041 Na 
HETATM    2 NA   UNL     2      -8.967   3.053  71.996  1.00  0.00    -0.074 Na 
HETATM    3 CA   UNL     3     -11.428   7.316  66.608  1.00  0.00    -0.359 Ca 
HETATM    4  O   UNL     4      -7.795   6.394  70.747  1.00  0.00    -0.102 OA 
HETATM    5  C   UNL     4      -8.944   6.051  71.149  1.00  0.00    -0.139 C  
HETATM    6  O   UNL     4      -9.289   4.825  71.261  1.00  0.00    -0.136 OA 
HETATM    7  C   UNL     4     -10.024   7.081  71.536  1.00  0.00    -0.180 C  
ENDROOT
BRANCH   7   8
HETATM    8  N   UNL     4      -9.895   8.481  71.045  1.00  0.00    -0.183 NA 
BRANCH   8   9
HETATM    9  C   UNL     4      -9.872   8.740  69.602  1.00  0.00    -0.183 C  
BRANCH   9  10
HETATM   10  C   UNL     4      -9.674  10.187  69.148  1.00  0.00    -0.215 C  
BRANCH  10  11
HETATM   11  N   UNL     4      -9.549  10.346  67.677  1.00  0.00    -0.148 NA 
BRANCH  11  12
HETATM   12  C   UNL     4      -9.159   9.088  66.962  1.00  0.00    -0.130 C  
HETATM   13  O   UNL     4      -9.088   8.943  64.550  1.00  0.00    -0.058 OA 
HETATM   14  O   UNL     4      -7.865  10.571  65.639  1.00  0.00    -0.154 OA 
HETATM   15  C   UNL     4      -8.616   9.527  65.556  1.00  0.00    -0.146 C  
ENDBRANCH  11  12
BRANCH  11  16
HETATM   16  C   UNL     4     -10.848  10.862  67.110  1.00  0.00    -0.280 C  
HETATM   17  C   UNL     4     -10.912  12.371  67.491  1.00  0.00    -0.252 C  
HETATM   18  O   UNL     4     -11.842  12.687  68.286  1.00  0.00    -0.318 OA 
HETATM   19  O   UNL     4      -9.830  12.994  67.169  1.00  0.00    -0.222 OA 
ENDBRANCH  11  16
ENDBRANCH  10  11
ENDBRANCH   9  10
ENDBRANCH   8   9
BRANCH   8  20
HETATM   20  C   UNL     4     -11.058   9.272  71.623  1.00  0.00    -0.368 C  
HETATM   21  C   UNL     4     -12.397   8.462  71.831  1.00  0.00    -0.347 C  
HETATM   22  O   UNL     4     -13.062   8.801  72.854  1.00  0.00    -0.312 OA 
HETATM   23  O   UNL     4     -12.692   7.559  70.974  1.00  0.00    -0.265 OA 
ENDBRANCH   8  20
ENDBRANCH   7   8
TORSDOF 7
ENDMDL
MODEL      389
REMARK 921   NORMALIZED FREE ENERGY PREDICTED BY IDOCK:   -2.38 KCAL/MOL
REMARK 922        TOTAL FREE ENERGY PREDICTED BY IDOCK:   -4.80 KCAL/MOL
REMARK 923 INTER-LIGAND FREE ENERGY PREDICTED BY IDOCK:   -4.66 KCAL/MOL
REMARK 924 INTRA-LIGAND FREE ENERGY PREDICTED BY IDOCK:   -0.14 KCAL/MOL
REMARK 927      BINDING AFFINITY PREDICTED BY RF-SCORE:    0.00 PKD
ROOT
HETATM    1 NA   UNL     1     -12.004  12.268  67.800  1.00  0.00    -0.267 Na 
HETATM    2 NA   UNL     2     -14.271  13.149  71.714  1.00  0.00    -0.382 Na 
HETATM    3 CA   UNL     3      -7.181  12.005  70.414  1.00  0.00    -0.354 Ca 
HETATM    4  O   UNL     4     -12.533  10.918  69.245  1.00  0.00    -0.392 OA 
HETATM    5  C   UNL     4     -12.407  10.966  70.503  1.00  0.00    -0.374 C  
HETATM    6  O   UNL     4     -12.822  11.960  71.191  1.00  0.00    -0.343 OA 
HETATM    7  C   UNL     4     -11.741   9.834  71.309  1.00  0.00    -0.394 C  
ENDROOT
BRANCH   7   8
HETATM    8  N   UNL     4     -10.857   8.866  70.601  1.00  0.00    -0.228 NA 
BRANCH   8   9
HETATM    9  C   UNL     4      -9.460   9.225  70.340  1.00  0.00    -0.246 C  
BRANCH   9  10
HETATM   10  C   UNL     4      -8.766   8.545  69.159  1.00  0.00    -0.134 C  
BRANCH  10  11
HETATM   11  N   UNL     4      -7.467   7.914  69.505  1.00  0.00    -0.091 NA 
BRANCH  11  12
HETATM   12  C   UNL     4      -7.598   6.633  70.269  1.00  0.00    -0.096 C  
HETATM   13  O   UNL     4      -6.127   4.750  69.896  1.00  0.00    -0.020 OA 
HETATM   14  O   UNL     4      -5.240   6.812  70.437  1.00  0.00    -0.018 OA 
HETATM   15  C   UNL     4      -6.183   5.954  70.246  1.00  0.00    -0.031 C  
ENDBRANCH  11  12
BRANCH  11  16
HETATM   16  C   UNL     4      -6.670   7.670  68.248  1.00  0.00    -0.062 C  
HETATM   17  C   UNL     4      -6.203   9.072  67.757  1.00  0.00    -0.051 C  
HETATM   18  O   UNL     4      -6.683   9.443  66.648  1.00  0.00    -0.070 OA 
HETATM   19  O   UNL     4      -5.637   9.747  68.699  1.00  0.00    -0.037 OA 
ENDBRANCH  11  16
ENDBRANCH  10  11
ENDBRANCH   9  10
ENDBRANCH   8   9
BRANCH   8  20
HETATM   20  C   UNL     4     -10.845   7.584  71.418  1.00  0.00    -0.229 C  
HETATM   21  C   UNL     4     -11.088   6.253  70.604  1.00  0.00    -0.327 C  
HETATM   22  O   UNL     4     -10.432   5.254  71.024  1.00  0.00    -0.230 OA 
HETATM   23  O   UNL     4     -11.902   6.293  69.618  1.00  0.00    -0.290 OA 
ENDBRANCH   8  20
ENDBRANCH   7   8
TORSDOF 7
ENDMDL
MODEL      390
REMARK 921   NORMALIZED FREE ENERGY PREDICTED BY IDOCK:   -2.38 KCAL/MOL
REMARK 922        TOTAL FREE ENERGY PREDICTED BY IDOCK:   -4.79 KCAL/MOL
REMARK 923 INTER-LIGAND FREE ENERGY PREDICTED BY IDOCK:   -3.97 KCAL/MOL
REMARK 924 INTRA-LIGAND FREE ENERGY PREDICTED BY IDOCK:   -0.82 KCAL/MOL
REMARK 927      BINDING AFFINITY PREDICTED BY RF-SCORE:    0.00 PKD
ROOT
HETATM    1 NA   UNL     1      -9.078   5.381  63.153  1.00  0.00    -0.182 Na 
HETATM    2 NA   UNL     2      -7.262   1.637  65.132  1.00  0.00    -0.038 Na 
HETATM    3 CA   UNL     3     -12.237   6.410  67.527  1.00  0.00    -0.580 Ca 
HETATM    4  O   UNL     4      -7.615   5.334  64.583  1.00  0.00    -0.073 OA 
HETATM    5  C   UNL     4      -7.546   4.692  65.671  1.00  0.00    -0.082 C  
HETATM    6  O   UNL     4      -7.730   3.428  65.729  1.00  0.00    -0.080 OA 
HETATM    7  C   UNL     4      -7.238   5.379  67.016  1.00  0.00    -0.078 C  
ENDROOT
BRANCH   7   8
HETATM    8  N   UNL     4      -7.435   6.850  67.137  1.00  0.00    -0.093 NA 
BRANCH   8   9
HETATM    9  C   UNL     4      -8.703   7.366  67.664  1.00  0.00    -0.125 C  
BRANCH   9  10
HETATM   10  C   UNL     4      -8.639   8.583  68.588  1.00  0.00    -0.135 C  
BRANCH  10  11
HETATM   11  N   UNL     4      -9.948   9.251  68.796  1.00  0.00    -0.175 NA 
BRANCH  11  12
HETATM   12  C   UNL     4     -10.651   9.616  67.525  1.00  0.00    -0.277 C  
HETATM   13  O   UNL     4     -12.016  11.603  67.329  1.00  0.00    -0.627 OA 
HETATM   14  O   UNL     4      -9.817  11.782  68.010  1.00  0.00    -0.173 OA 
HETATM   15  C   UNL     4     -10.861  11.172  67.564  1.00  0.00    -0.254 C  
ENDBRANCH  11  12
BRANCH  11  16
HETATM   16  C   UNL     4     -10.843   8.367  69.628  1.00  0.00    -0.148 C  
HETATM   17  C   UNL     4     -10.738   8.902  71.087  1.00  0.00    -0.263 C  
HETATM   18  O   UNL     4     -10.210   8.107  71.916  1.00  0.00    -0.193 OA 
HETATM   19  O   UNL     4     -10.934  10.175  71.147  1.00  0.00    -0.245 OA 
ENDBRANCH  11  16
ENDBRANCH  10  11
ENDBRANCH   9  10
ENDBRANCH   8   9
BRANCH   8  20
HETATM   20  C   UNL     4      -6.328   7.382  68.034  1.00  0.00    -0.048 C  
HETATM   21  C   UNL     4      -5.493   8.586  67.447  1.00  0.00    -0.038 C  
HETATM   22  O   UNL     4      -5.126   9.439  68.308  1.00  0.00    -0.034 OA 
HETATM   23  O   UNL     4      -5.263   8.599  66.189  1.00  0.00    -0.030 OA 
ENDBRANCH   8  20
ENDBRANCH   7   8
TORSDOF 7
ENDMDL
MODEL      391
REMARK 921   NORMALIZED FREE ENERGY PREDICTED BY IDOCK:   -2.38 KCAL/MOL
REMARK 922        TOTAL FREE ENERGY PREDICTED BY IDOCK:   -4.79 KCAL/MOL
REMARK 923 INTER-LIGAND FREE ENERGY PREDICTED BY IDOCK:   -4.03 KCAL/MOL
REMARK 924 INTRA-LIGAND FREE ENERGY PREDICTED BY IDOCK:   -0.76 KCAL/MOL
REMARK 927      BINDING AFFINITY PREDICTED BY RF-SCORE:    0.00 PKD
ROOT
HETATM    1 NA   UNL     1     -10.645  10.637  71.243  1.00  0.00    -0.283 Na 
HETATM    2 NA   UNL     2      -6.129   9.863  71.737  1.00  0.00    -0.082 Na 
HETATM    3 CA   UNL     3      -9.767  15.659  69.200  1.00  0.00    -0.167 Ca 
HETATM    4  O   UNL     4      -9.318  10.122  69.773  1.00  0.00    -0.211 OA 
HETATM    5  C   UNL     4      -8.172  10.583  69.498  1.00  0.00    -0.079 C  
HETATM    6  O   UNL     4      -7.252  10.688  70.379  1.00  0.00    -0.201 OA 
HETATM    7  C   UNL     4      -7.792  11.059  68.082  1.00  0.00    -0.116 C  
ENDROOT
BRANCH   7   8
HETATM    8  N   UNL     4      -8.876  11.386  67.115  1.00  0.00    -0.153 NA 
BRANCH   8   9
HETATM    9  C   UNL     4      -9.743  10.314  66.615  1.00  0.00    -0.185 C  
BRANCH   9  10
HETATM   10  C   UNL     4      -9.378   9.681  65.271  1.00  0.00    -0.260 C  
BRANCH  10  11
HETATM   11  N   UNL     4      -8.626   8.407  65.390  1.00  0.00    -0.176 NA 
BRANCH  11  12
HETATM   12  C   UNL     4      -7.150   8.552  65.178  1.00  0.00    -0.075 C  
HETATM   13  O   UNL     4      -5.855   6.919  63.951  1.00  0.00    -0.031 OA 
HETATM   14  O   UNL     4      -7.687   7.914  62.958  1.00  0.00    -0.119 OA 
HETATM   15  C   UNL     4      -6.805   7.736  63.881  1.00  0.00    -0.062 C  
ENDBRANCH  11  12
BRANCH  11  16
HETATM   16  C   UNL     4      -8.880   7.791  66.743  1.00  0.00    -0.139 C  
HETATM   17  C   UNL     4      -9.762   6.534  66.483  1.00  0.00    -0.126 C  
HETATM   18  O   UNL     4     -10.928   6.584  66.968  1.00  0.00    -0.368 OA 
HETATM   19  O   UNL     4      -9.260   5.776  65.568  1.00  0.00    -0.096 OA 
ENDBRANCH  11  16
ENDBRANCH  10  11
ENDBRANCH   9  10
ENDBRANCH   8   9
BRANCH   8  20
HETATM   20  C   UNL     4      -9.776  12.418  67.777  1.00  0.00    -0.201 C  
HETATM   21  C   UNL     4     -10.630  13.310  66.793  1.00  0.00    -0.276 C  
HETATM   22  O   UNL     4     -11.782  13.610  67.224  1.00  0.00    -0.337 OA 
HETATM   23  O   UNL     4     -10.103  13.646  65.677  1.00  0.00    -0.293 OA 
ENDBRANCH   8  20
ENDBRANCH   7   8
TORSDOF 7
ENDMDL
MODEL      392
REMARK 921   NORMALIZED FREE ENERGY PREDICTED BY IDOCK:   -2.37 KCAL/MOL
REMARK 922        TOTAL FREE ENERGY PREDICTED BY IDOCK:   -4.79 KCAL/MOL
REMARK 923 INTER-LIGAND FREE ENERGY PREDICTED BY IDOCK:   -5.40 KCAL/MOL
REMARK 924 INTRA-LIGAND FREE ENERGY PREDICTED BY IDOCK:    0.61 KCAL/MOL
REMARK 927      BINDING AFFINITY PREDICTED BY RF-SCORE:    0.00 PKD
ROOT
HETATM    1 NA   UNL     1      -8.383   6.330  70.101  1.00  0.00    -0.107 Na 
HETATM    2 NA   UNL     2      -6.164   9.707  72.314  1.00  0.00    -0.076 Na 
HETATM    3 CA   UNL     3     -13.198   8.937  70.530  1.00  0.00    -0.507 Ca 
HETATM    4  O   UNL     4      -7.804   8.133  69.327  1.00  0.00    -0.105 OA 
HETATM    5  C   UNL     4      -7.935   9.306  69.783  1.00  0.00    -0.103 C  
HETATM    6  O   UNL     4      -7.562   9.623  70.965  1.00  0.00    -0.326 OA 
HETATM    7  C   UNL     4      -8.556  10.449  68.956  1.00  0.00    -0.157 C  
ENDROOT
BRANCH   7   8
HETATM    8  N   UNL     4      -9.399  10.111  67.776  1.00  0.00    -0.141 NA 
BRANCH   8   9
HETATM    9  C   UNL     4     -10.450  11.040  67.350  1.00  0.00    -0.218 C  
BRANCH   9  10
HETATM   10  C   UNL     4     -10.278  12.515  67.718  1.00  0.00    -0.217 C  
BRANCH  10  11
HETATM   11  N   UNL     4      -9.773  13.358  66.605  1.00  0.00    -0.268 NA 
BRANCH  11  12
HETATM   12  C   UNL     4     -10.542  13.202  65.329  1.00  0.00    -0.313 C  
HETATM   13  O   UNL     4     -12.826  12.407  65.286  1.00  0.00    -0.557 OA 
HETATM   14  O   UNL     4     -12.273  14.247  66.568  1.00  0.00    -0.441 OA 
HETATM   15  C   UNL     4     -12.062  13.309  65.710  1.00  0.00    -0.441 C  
ENDBRANCH  11  12
BRANCH  11  16
HETATM   16  C   UNL     4      -9.782  14.808  67.022  1.00  0.00    -0.237 C  
HETATM   17  C   UNL     4      -8.481  15.024  67.849  1.00  0.00    -0.147 C  
HETATM   18  O   UNL     4      -8.658  15.307  69.068  1.00  0.00    -0.194 OA 
HETATM   19  O   UNL     4      -7.438  14.589  67.227  1.00  0.00    -0.191 OA 
ENDBRANCH  11  16
ENDBRANCH  10  11
ENDBRANCH   9  10
ENDBRANCH   8   9
BRANCH   8  20
HETATM   20  C   UNL     4      -8.463   9.922  66.592  1.00  0.00    -0.125 C  
HETATM   21  C   UNL     4      -8.755   8.663  65.685  1.00  0.00    -0.182 C  
HETATM   22  O   UNL     4      -8.535   8.843  64.450  1.00  0.00    -0.172 OA 
HETATM   23  O   UNL     4      -9.175   7.598  66.254  1.00  0.00    -0.174 OA 
ENDBRANCH   8  20
ENDBRANCH   7   8
TORSDOF 7
ENDMDL
MODEL      393
REMARK 921   NORMALIZED FREE ENERGY PREDICTED BY IDOCK:   -2.37 KCAL/MOL
REMARK 922        TOTAL FREE ENERGY PREDICTED BY IDOCK:   -4.78 KCAL/MOL
REMARK 923 INTER-LIGAND FREE ENERGY PREDICTED BY IDOCK:   -5.96 KCAL/MOL
REMARK 924 INTRA-LIGAND FREE ENERGY PREDICTED BY IDOCK:    1.19 KCAL/MOL
REMARK 927      BINDING AFFINITY PREDICTED BY RF-SCORE:    0.00 PKD
ROOT
HETATM    1 NA   UNL     1     -10.634  10.000  63.517  1.00  0.00    -0.417 Na 
HETATM    2 NA   UNL     2      -6.249  11.409  63.359  1.00  0.00    -0.362 Na 
HETATM    3 CA   UNL     3      -9.193   5.072  65.467  1.00  0.00    -0.131 Ca 
HETATM    4  O   UNL     4      -9.490  10.636  65.090  1.00  0.00    -0.194 OA 
HETATM    5  C   UNL     4      -8.311  10.327  65.429  1.00  0.00    -0.162 C  
HETATM    6  O   UNL     4      -7.330  10.385  64.612  1.00  0.00    -0.119 OA 
HETATM    7  C   UNL     4      -7.959   9.854  66.854  1.00  0.00    -0.109 C  
ENDROOT
BRANCH   7   8
HETATM    8  N   UNL     4      -9.047   9.343  67.734  1.00  0.00    -0.126 NA 
BRANCH   8   9
HETATM    9  C   UNL     4     -10.218  10.186  67.996  1.00  0.00    -0.173 C  
BRANCH   9  10
HETATM   10  C   UNL     4      -9.973  11.677  68.239  1.00  0.00    -0.201 C  
BRANCH  10  11
HETATM   11  N   UNL     4     -10.951  12.306  69.161  1.00  0.00    -0.203 NA 
BRANCH  11  12
HETATM   12  C   UNL     4     -11.434  13.649  68.708  1.00  0.00    -0.309 C  
HETATM   13  O   UNL     4     -11.072  14.462  66.459  1.00  0.00    -0.317 OA 
HETATM   14  O   UNL     4     -12.141  12.442  66.793  1.00  0.00    -0.578 OA 
HETATM   15  C   UNL     4     -11.604  13.559  67.150  1.00  0.00    -0.357 C  
ENDBRANCH  11  12
BRANCH  11  16
HETATM   16  C   UNL     4     -12.131  11.387  69.354  1.00  0.00    -0.291 C  
HETATM   17  C   UNL     4     -12.453  11.415  70.877  1.00  0.00    -0.379 C  
HETATM   18  O   UNL     4     -12.281  10.320  71.485  1.00  0.00    -0.374 OA 
HETATM   19  O   UNL     4     -12.557  12.620  71.324  1.00  0.00    -0.350 OA 
ENDBRANCH  11  16
ENDBRANCH  10  11
ENDBRANCH   9  10
ENDBRANCH   8   9
BRANCH   8  20
HETATM   20  C   UNL     4      -9.557   8.050  67.117  1.00  0.00    -0.175 C  
HETATM   21  C   UNL     4     -10.359   7.100  68.090  1.00  0.00    -0.196 C  
HETATM   22  O   UNL     4     -11.316   6.475  67.543  1.00  0.00    -0.284 OA 
HETATM   23  O   UNL     4      -9.988   7.041  69.313  1.00  0.00    -0.157 OA 
ENDBRANCH   8  20
ENDBRANCH   7   8
TORSDOF 7
ENDMDL
MODEL      394
REMARK 921   NORMALIZED FREE ENERGY PREDICTED BY IDOCK:   -2.36 KCAL/MOL
REMARK 922        TOTAL FREE ENERGY PREDICTED BY IDOCK:   -4.77 KCAL/MOL
REMARK 923 INTER-LIGAND FREE ENERGY PREDICTED BY IDOCK:   -5.60 KCAL/MOL
REMARK 924 INTRA-LIGAND FREE ENERGY PREDICTED BY IDOCK:    0.83 KCAL/MOL
REMARK 927      BINDING AFFINITY PREDICTED BY RF-SCORE:    0.00 PKD
ROOT
HETATM    1 NA   UNL     1      -5.129  17.169  65.391  1.00  0.00    -0.155 Na 
HETATM    2 NA   UNL     2      -6.151  18.124  69.781  1.00  0.00    -0.188 Na 
HETATM    3 CA   UNL     3      -7.318  12.146  65.761  1.00  0.00    -0.330 Ca 
HETATM    4  O   UNL     4      -6.957  17.706  66.138  1.00  0.00    -0.260 OA 
HETATM    5  C   UNL     4      -7.590  17.283  67.149  1.00  0.00    -0.190 C  
HETATM    6  O   UNL     4      -7.060  17.231  68.312  1.00  0.00    -0.183 OA 
HETATM    7  C   UNL     4      -9.049  16.795  67.064  1.00  0.00    -0.224 C  
ENDROOT
BRANCH   7   8
HETATM    8  N   UNL     4      -9.605  16.408  65.737  1.00  0.00    -0.500 NA 
BRANCH   8   9
HETATM    9  C   UNL     4     -10.153  15.062  65.551  1.00  0.00    -0.369 C  
BRANCH   9  10
HETATM   10  C   UNL     4      -9.336  13.886  66.090  1.00  0.00    -0.098 C  
BRANCH  10  11
HETATM   11  N   UNL     4     -10.064  13.046  67.074  1.00  0.00    -0.240 NA 
BRANCH  11  12
HETATM   12  C   UNL     4      -9.572  11.634  67.147  1.00  0.00    -0.175 C  
HETATM   13  O   UNL     4     -11.014   9.794  67.767  1.00  0.00    -0.274 OA 
HETATM   14  O   UNL     4     -11.592  11.163  65.999  1.00  0.00    -0.082 OA 
HETATM   15  C   UNL     4     -10.827  10.714  66.934  1.00  0.00    -0.205 C  
ENDBRANCH  11  12
BRANCH  11  16
HETATM   16  C   UNL     4      -9.980  13.679  68.441  1.00  0.00    -0.235 C  
HETATM   17  C   UNL     4     -11.426  14.144  68.787  1.00  0.00    -0.299 C  
HETATM   18  O   UNL     4     -11.579  15.394  68.892  1.00  0.00    -0.315 OA 
HETATM   19  O   UNL     4     -12.288  13.200  68.618  1.00  0.00    -0.138 OA 
ENDBRANCH  11  16
ENDBRANCH  10  11
ENDBRANCH   9  10
ENDBRANCH   8   9
BRANCH   8  20
HETATM   20  C   UNL     4     -10.715  17.393  65.408  1.00  0.00    -0.035 C  
HETATM   21  C   UNL     4     -10.647  18.777  66.164  1.00  0.00    -0.377 C  
HETATM   22  O   UNL     4     -11.033  19.770  65.478  1.00  0.00    -0.378 OA 
HETATM   23  O   UNL     4     -10.220  18.782  67.370  1.00  0.00    -0.351 OA 
ENDBRANCH   8  20
ENDBRANCH   7   8
TORSDOF 7
ENDMDL
MODEL      395
REMARK 921   NORMALIZED FREE ENERGY PREDICTED BY IDOCK:   -2.35 KCAL/MOL
REMARK 922        TOTAL FREE ENERGY PREDICTED BY IDOCK:   -4.76 KCAL/MOL
REMARK 923 INTER-LIGAND FREE ENERGY PREDICTED BY IDOCK:   -5.85 KCAL/MOL
REMARK 924 INTRA-LIGAND FREE ENERGY PREDICTED BY IDOCK:    1.09 KCAL/MOL
REMARK 927      BINDING AFFINITY PREDICTED BY RF-SCORE:    0.00 PKD
ROOT
HETATM    1 NA   UNL     1     -11.372  14.034  63.411  1.00  0.00    -0.577 Na 
HETATM    2 NA   UNL     2     -10.294  18.220  65.008  1.00  0.00    -0.161 Na 
HETATM    3 CA   UNL     3      -6.751  11.852  65.424  1.00  0.00    -0.235 Ca 
HETATM    4  O   UNL     4     -11.555  14.699  65.337  1.00  0.00    -0.346 OA 
HETATM    5  C   UNL     4     -10.739  15.326  66.073  1.00  0.00    -0.320 C  
HETATM    6  O   UNL     4     -10.165  16.403  65.690  1.00  0.00    -0.432 OA 
HETATM    7  C   UNL     4     -10.368  14.846  67.490  1.00  0.00    -0.239 C  
ENDROOT
BRANCH   7   8
HETATM    8  N   UNL     4     -10.623  13.425  67.860  1.00  0.00    -0.240 NA 
BRANCH   8   9
HETATM    9  C   UNL     4      -9.523  12.609  68.383  1.00  0.00    -0.163 C  
BRANCH   9  10
HETATM   10  C   UNL     4      -8.425  12.193  67.402  1.00  0.00    -0.173 C  
BRANCH  10  11
HETATM   11  N   UNL     4      -8.348  10.728  67.170  1.00  0.00    -0.125 NA 
BRANCH  11  12
HETATM   12  C   UNL     4      -7.928   9.945  68.375  1.00  0.00    -0.096 C  
HETATM   13  O   UNL     4      -9.500   9.251  70.077  1.00  0.00    -0.181 OA 
HETATM   14  O   UNL     4      -9.860   8.664  67.873  1.00  0.00    -0.160 OA 
HETATM   15  C   UNL     4      -9.200   9.162  68.862  1.00  0.00    -0.139 C  
ENDBRANCH  11  12
BRANCH  11  16
HETATM   16  C   UNL     4      -9.682  10.221  66.681  1.00  0.00    -0.185 C  
HETATM   17  C   UNL     4      -9.805  10.695  65.202  1.00  0.00    -0.284 C  
HETATM   18  O   UNL     4     -10.730  11.527  64.978  1.00  0.00    -0.285 OA 
HETATM   19  O   UNL     4      -8.761  10.390  64.511  1.00  0.00    -0.180 OA 
ENDBRANCH  11  16
ENDBRANCH  10  11
ENDBRANCH   9  10
ENDBRANCH   8   9
BRANCH   8  20
HETATM   20  C   UNL     4     -11.721  13.423  68.912  1.00  0.00    -0.328 C  
HETATM   21  C   UNL     4     -12.187  11.998  69.408  1.00  0.00    -0.097 C  
HETATM   22  O   UNL     4     -12.499  11.946  70.635  1.00  0.00    -0.318 OA 
HETATM   23  O   UNL     4     -12.212  11.044  68.556  1.00  0.00    -0.582 OA 
ENDBRANCH   8  20
ENDBRANCH   7   8
TORSDOF 7
ENDMDL
MODEL      396
REMARK 921   NORMALIZED FREE ENERGY PREDICTED BY IDOCK:   -2.35 KCAL/MOL
REMARK 922        TOTAL FREE ENERGY PREDICTED BY IDOCK:   -4.75 KCAL/MOL
REMARK 923 INTER-LIGAND FREE ENERGY PREDICTED BY IDOCK:   -3.75 KCAL/MOL
REMARK 924 INTRA-LIGAND FREE ENERGY PREDICTED BY IDOCK:   -1.00 KCAL/MOL
REMARK 927      BINDING AFFINITY PREDICTED BY RF-SCORE:    0.00 PKD
ROOT
HETATM    1 NA   UNL     1      -5.254  13.496  68.026  1.00  0.00    -0.065 Na 
HETATM    2 NA   UNL     2      -8.524  16.585  69.025  1.00  0.00    -0.179 Na 
HETATM    3 CA   UNL     3      -7.366   9.827  71.525  1.00  0.00    -0.064 Ca 
HETATM    4  O   UNL     4      -7.180  13.513  67.335  1.00  0.00    -0.166 OA 
HETATM    5  C   UNL     4      -8.275  13.672  67.949  1.00  0.00    -0.171 C  
HETATM    6  O   UNL     4      -8.480  14.663  68.731  1.00  0.00    -0.162 OA 
HETATM    7  C   UNL     4      -9.450  12.684  67.809  1.00  0.00    -0.198 C  
ENDROOT
BRANCH   7   8
HETATM    8  N   UNL     4      -9.182  11.312  67.295  1.00  0.00    -0.164 NA 
BRANCH   8   9
HETATM    9  C   UNL     4      -9.994  10.191  67.777  1.00  0.00    -0.168 C  
BRANCH   9  10
HETATM   10  C   UNL     4      -9.507   9.452  69.024  1.00  0.00    -0.160 C  
BRANCH  10  11
HETATM   11  N   UNL     4      -9.551   7.972  68.904  1.00  0.00    -0.151 NA 
BRANCH  11  12
HETATM   12  C   UNL     4      -9.031   7.454  67.599  1.00  0.00    -0.126 C  
HETATM   13  O   UNL     4      -9.831   5.394  66.617  1.00  0.00    -0.146 OA 
HETATM   14  O   UNL     4     -11.328   7.067  67.155  1.00  0.00    -0.240 OA 
HETATM   15  C   UNL     4     -10.161   6.542  67.001  1.00  0.00    -0.215 C  
ENDBRANCH  11  12
BRANCH  11  16
HETATM   16  C   UNL     4      -8.775   7.348  70.037  1.00  0.00    -0.140 C  
HETATM   17  C   UNL     4      -9.825   6.624  70.930  1.00  0.00    -0.183 C  
HETATM   18  O   UNL     4      -9.960   7.096  72.095  1.00  0.00    -0.165 OA 
HETATM   19  O   UNL     4     -10.594   5.854  70.238  1.00  0.00    -0.239 OA 
ENDBRANCH  11  16
ENDBRANCH  10  11
ENDBRANCH   9  10
ENDBRANCH   8   9
BRANCH   8  20
HETATM   20  C   UNL     4      -9.335  11.358  65.783  1.00  0.00    -0.228 C  
HETATM   21  C   UNL     4      -8.238  10.577  64.961  1.00  0.00    -0.120 C  
HETATM   22  O   UNL     4      -8.668  10.020  63.907  1.00  0.00    -0.170 OA 
HETATM   23  O   UNL     4      -7.041  10.571  65.412  1.00  0.00    -0.133 OA 
ENDBRANCH   8  20
ENDBRANCH   7   8
TORSDOF 7
ENDMDL
MODEL      397
REMARK 921   NORMALIZED FREE ENERGY PREDICTED BY IDOCK:   -2.33 KCAL/MOL
REMARK 922        TOTAL FREE ENERGY PREDICTED BY IDOCK:   -4.72 KCAL/MOL
REMARK 923 INTER-LIGAND FREE ENERGY PREDICTED BY IDOCK:   -3.74 KCAL/MOL
REMARK 924 INTRA-LIGAND FREE ENERGY PREDICTED BY IDOCK:   -0.98 KCAL/MOL
REMARK 927      BINDING AFFINITY PREDICTED BY RF-SCORE:    0.00 PKD
ROOT
HETATM    1 NA   UNL     1     -11.489   6.424  67.584  1.00  0.00    -0.278 Na 
HETATM    2 NA   UNL     2     -13.074   9.697  70.414  1.00  0.00    -0.445 Na 
HETATM    3 CA   UNL     3      -6.322   7.165  69.292  1.00  0.00    -0.027 Ca 
HETATM    4  O   UNL     4     -11.823   6.253  69.596  1.00  0.00    -0.290 OA 
HETATM    5  C   UNL     4     -11.497   7.014  70.553  1.00  0.00    -0.319 C  
HETATM    6  O   UNL     4     -11.766   8.264  70.551  1.00  0.00    -0.205 OA 
HETATM    7  C   UNL     4     -10.748   6.500  71.798  1.00  0.00    -0.228 C  
ENDROOT
BRANCH   7   8
HETATM    8  N   UNL     4     -10.019   5.203  71.717  1.00  0.00    -0.180 NA 
BRANCH   8   9
HETATM    9  C   UNL     4      -8.843   5.091  70.850  1.00  0.00    -0.133 C  
BRANCH   9  10
HETATM   10  C   UNL     4      -8.965   4.209  69.606  1.00  0.00    -0.101 C  
BRANCH  10  11
HETATM   11  N   UNL     4      -8.796   4.943  68.327  1.00  0.00    -0.102 NA 
BRANCH  11  12
HETATM   12  C   UNL     4      -8.481   6.397  68.499  1.00  0.00    -0.119 C  
HETATM   13  O   UNL     4      -7.608   7.752  66.697  1.00  0.00    -0.093 OA 
HETATM   14  O   UNL     4      -9.589   6.601  66.413  1.00  0.00    -0.161 OA 
HETATM   15  C   UNL     4      -8.574   7.045  67.072  1.00  0.00    -0.122 C  
ENDBRANCH  11  12
BRANCH  11  16
HETATM   16  C   UNL     4      -7.713   4.289  67.505  1.00  0.00    -0.084 C  
HETATM   17  C   UNL     4      -8.356   3.014  66.885  1.00  0.00    -0.092 C  
HETATM   18  O   UNL     4      -7.869   1.917  67.280  1.00  0.00    -0.063 OA 
HETATM   19  O   UNL     4      -9.474   3.277  66.297  1.00  0.00    -0.159 OA 
ENDBRANCH  11  16
ENDBRANCH  10  11
ENDBRANCH   9  10
ENDBRANCH   8   9
BRANCH   8  20
HETATM   20  C   UNL     4      -9.572   4.848  73.126  1.00  0.00    -0.137 C  
HETATM   21  C   UNL     4     -10.078   3.456  73.672  1.00  0.00    -0.124 C  
HETATM   22  O   UNL     4      -9.249   2.851  74.416  1.00  0.00    -0.080 OA 
HETATM   23  O   UNL     4     -11.247   3.066  73.331  1.00  0.00    -0.201 OA 
ENDBRANCH   8  20
ENDBRANCH   7   8
TORSDOF 7
ENDMDL
MODEL      398
REMARK 921   NORMALIZED FREE ENERGY PREDICTED BY IDOCK:   -2.32 KCAL/MOL
REMARK 922        TOTAL FREE ENERGY PREDICTED BY IDOCK:   -4.71 KCAL/MOL
REMARK 923 INTER-LIGAND FREE ENERGY PREDICTED BY IDOCK:   -5.16 KCAL/MOL
REMARK 924 INTRA-LIGAND FREE ENERGY PREDICTED BY IDOCK:    0.44 KCAL/MOL
REMARK 927      BINDING AFFINITY PREDICTED BY RF-SCORE:    0.00 PKD
ROOT
HETATM    1 NA   UNL     1      -9.942   6.770  71.625  1.00  0.00    -0.169 Na 
HETATM    2 NA   UNL     2     -14.402   6.807  72.784  1.00  0.00    -0.527 Na 
HETATM    3 CA   UNL     3     -11.105   7.635  66.327  1.00  0.00    -0.416 Ca 
HETATM    4  O   UNL     4     -11.139   8.415  71.856  1.00  0.00    -0.265 OA 
HETATM    5  C   UNL     4     -12.301   8.657  71.418  1.00  0.00    -0.304 C  
HETATM    6  O   UNL     4     -13.275   7.846  71.587  1.00  0.00    -0.331 OA 
HETATM    7  C   UNL     4     -12.638   9.945  70.642  1.00  0.00    -0.173 C  
ENDROOT
BRANCH   7   8
HETATM    8  N   UNL     4     -11.531  10.726  70.023  1.00  0.00    -0.306 NA 
BRANCH   8   9
HETATM    9  C   UNL     4     -10.722  10.114  68.964  1.00  0.00    -0.221 C  
BRANCH   9  10
HETATM   10  C   UNL     4      -9.439   9.395  69.384  1.00  0.00    -0.173 C  
BRANCH  10  11
HETATM   11  N   UNL     4      -8.210   9.932  68.746  1.00  0.00    -0.109 NA 
BRANCH  11  12
HETATM   12  C   UNL     4      -7.021   9.968  69.655  1.00  0.00    -0.096 C  
HETATM   13  O   UNL     4      -7.117   9.184  71.940  1.00  0.00    -0.314 OA 
HETATM   14  O   UNL     4      -7.730   7.776  70.216  1.00  0.00    -0.086 OA 
HETATM   15  C   UNL     4      -7.254   8.854  70.737  1.00  0.00    -0.083 C  
ENDBRANCH  11  12
BRANCH  11  16
HETATM   16  C   UNL     4      -7.880   9.121  67.518  1.00  0.00    -0.100 C  
HETATM   17  C   UNL     4      -8.337   9.978  66.301  1.00  0.00    -0.127 C  
HETATM   18  O   UNL     4      -9.282   9.487  65.621  1.00  0.00    -0.188 OA 
HETATM   19  O   UNL     4      -7.878  11.181  66.362  1.00  0.00    -0.156 OA 
ENDBRANCH  11  16
ENDBRANCH  10  11
ENDBRANCH   9  10
ENDBRANCH   8   9
BRANCH   8  20
HETATM   20  C   UNL     4     -12.140  11.993  69.444  1.00  0.00    -0.202 C  
HETATM   21  C   UNL     4     -12.239  13.218  70.436  1.00  0.00    -0.332 C  
HETATM   22  O   UNL     4     -12.054  14.348  69.895  1.00  0.00    -0.306 OA 
HETATM   23  O   UNL     4     -12.491  12.975  71.666  1.00  0.00    -0.172 OA 
ENDBRANCH   8  20
ENDBRANCH   7   8
TORSDOF 7
ENDMDL
MODEL      399
REMARK 921   NORMALIZED FREE ENERGY PREDICTED BY IDOCK:   -2.31 KCAL/MOL
REMARK 922        TOTAL FREE ENERGY PREDICTED BY IDOCK:   -4.70 KCAL/MOL
REMARK 923 INTER-LIGAND FREE ENERGY PREDICTED BY IDOCK:   -4.31 KCAL/MOL
REMARK 924 INTRA-LIGAND FREE ENERGY PREDICTED BY IDOCK:   -0.40 KCAL/MOL
REMARK 927      BINDING AFFINITY PREDICTED BY RF-SCORE:    0.00 PKD
ROOT
HETATM    1 NA   UNL     1     -11.183   4.110  65.691  1.00  0.00    -0.430 Na 
HETATM    2 NA   UNL     2      -7.028   3.083  67.399  1.00  0.00    -0.042 Na 
HETATM    3 CA   UNL     3     -11.621   8.556  68.885  1.00  0.00    -0.436 Ca 
HETATM    4  O   UNL     4      -9.402   4.991  65.204  1.00  0.00    -0.140 OA 
HETATM    5  C   UNL     4      -8.470   5.428  65.940  1.00  0.00    -0.127 C  
HETATM    6  O   UNL     4      -7.937   4.715  66.859  1.00  0.00    -0.101 OA 
HETATM    7  C   UNL     4      -7.900   6.852  65.793  1.00  0.00    -0.106 C  
ENDROOT
BRANCH   7   8
HETATM    8  N   UNL     4      -8.708   7.883  65.082  1.00  0.00    -0.027 NA 
BRANCH   8   9
HETATM    9  C   UNL     4      -9.439   8.887  65.861  1.00  0.00    -0.234 C  
BRANCH   9  10
HETATM   10  C   UNL     4      -9.469  10.317  65.317  1.00  0.00    -0.240 C  
BRANCH  10  11
HETATM   11  N   UNL     4      -9.939  11.326  66.299  1.00  0.00    -0.214 NA 
BRANCH  11  12
HETATM   12  C   UNL     4     -11.339  11.801  66.058  1.00  0.00    -0.273 C  
HETATM   13  O   UNL     4     -12.144  13.924  66.889  1.00  0.00    -0.424 OA 
HETATM   14  O   UNL     4     -10.261  13.852  65.554  1.00  0.00    -0.311 OA 
HETATM   15  C   UNL     4     -11.299  13.368  66.147  1.00  0.00    -0.303 C  
ENDBRANCH  11  12
BRANCH  11  16
HETATM   16  C   UNL     4      -9.834  10.763  67.695  1.00  0.00    -0.171 C  
HETATM   17  C   UNL     4      -8.565  11.411  68.323  1.00  0.00    -0.156 C  
HETATM   18  O   UNL     4      -7.625  10.609  68.589  1.00  0.00    -0.089 OA 
HETATM   19  O   UNL     4      -8.567  12.694  68.196  1.00  0.00    -0.177 OA 
ENDBRANCH  11  16
ENDBRANCH  10  11
ENDBRANCH   9  10
ENDBRANCH   8   9
BRANCH   8  20
HETATM   20  C   UNL     4      -7.766   8.634  64.154  1.00  0.00    -0.129 C  
HETATM   21  C   UNL     4      -6.264   8.722  64.631  1.00  0.00    -0.066 C  
HETATM   22  O   UNL     4      -5.412   8.672  63.695  1.00  0.00    -0.061 OA 
HETATM   23  O   UNL     4      -6.038   8.834  65.885  1.00  0.00    -0.051 OA 
ENDBRANCH   8  20
ENDBRANCH   7   8
TORSDOF 7
ENDMDL
MODEL      400
REMARK 921   NORMALIZED FREE ENERGY PREDICTED BY IDOCK:   -2.30 KCAL/MOL
REMARK 922        TOTAL FREE ENERGY PREDICTED BY IDOCK:   -4.69 KCAL/MOL
REMARK 923 INTER-LIGAND FREE ENERGY PREDICTED BY IDOCK:   -4.85 KCAL/MOL
REMARK 924 INTRA-LIGAND FREE ENERGY PREDICTED BY IDOCK:    0.16 KCAL/MOL
REMARK 927      BINDING AFFINITY PREDICTED BY RF-SCORE:    0.00 PKD
ROOT
HETATM    1 NA   UNL     1      -8.719  13.581  65.776  1.00  0.00    -0.416 Na 
HETATM    2 NA   UNL     2      -6.854  10.218  63.236  1.00  0.00    -0.112 Na 
HETATM    3 CA   UNL     3     -13.818  12.039  64.440  1.00  0.00    -0.742 Ca 
HETATM    4  O   UNL     4      -8.563  11.603  66.279  1.00  0.00    -0.175 OA 
HETATM    5  C   UNL     4      -8.836  10.560  65.616  1.00  0.00    -0.182 C  
HETATM    6  O   UNL     4      -8.376  10.362  64.439  1.00  0.00    -0.165 OA 
HETATM    7  C   UNL     4      -9.745   9.445  66.169  1.00  0.00    -0.265 C  
ENDROOT
BRANCH   7   8
HETATM    8  N   UNL     4     -10.659   9.755  67.304  1.00  0.00    -0.264 NA 
BRANCH   8   9
HETATM    9  C   UNL     4     -10.156   9.666  68.678  1.00  0.00    -0.179 C  
BRANCH   9  10
HETATM   10  C   UNL     4      -9.112   8.589  68.979  1.00  0.00    -0.146 C  
BRANCH  10  11
HETATM   11  N   UNL     4      -9.378   7.823  70.223  1.00  0.00    -0.157 NA 
BRANCH  11  12
HETATM   12  C   UNL     4      -8.327   7.992  71.276  1.00  0.00    -0.117 C  
HETATM   13  O   UNL     4      -7.757   6.227  72.828  1.00  0.00    -0.103 OA 
HETATM   14  O   UNL     4      -7.650   5.837  70.555  1.00  0.00    -0.085 OA 
HETATM   15  C   UNL     4      -7.802   6.552  71.617  1.00  0.00    -0.100 C  
ENDBRANCH  11  12
BRANCH  11  16
HETATM   16  C   UNL     4     -10.720   8.218  70.786  1.00  0.00    -0.218 C  
HETATM   17  C   UNL     4     -11.577   6.917  70.807  1.00  0.00    -0.349 C  
HETATM   18  O   UNL     4     -12.583   6.921  70.042  1.00  0.00     0.168 OA 
HETATM   19  O   UNL     4     -10.955   5.942  71.378  1.00  0.00    -0.265 OA 
ENDBRANCH  11  16
ENDBRANCH  10  11
ENDBRANCH   9  10
ENDBRANCH   8   9
BRANCH   8  20
HETATM   20  C   UNL     4     -11.163  11.176  67.103  1.00  0.00    -0.249 C  
HETATM   21  C   UNL     4     -11.948  11.800  68.321  1.00  0.00    -0.165 C  
HETATM   22  O   UNL     4     -11.757  13.041  68.489  1.00  0.00    -0.302 OA 
HETATM   23  O   UNL     4     -12.691  11.025  69.017  1.00  0.00    -0.260 OA 
ENDBRANCH   8  20
ENDBRANCH   7   8
TORSDOF 7
ENDMDL
MODEL      401
REMARK 921   NORMALIZED FREE ENERGY PREDICTED BY IDOCK:   -2.29 KCAL/MOL
REMARK 922        TOTAL FREE ENERGY PREDICTED BY IDOCK:   -4.68 KCAL/MOL
REMARK 923 INTER-LIGAND FREE ENERGY PREDICTED BY IDOCK:   -5.45 KCAL/MOL
REMARK 924 INTRA-LIGAND FREE ENERGY PREDICTED BY IDOCK:    0.77 KCAL/MOL
REMARK 927      BINDING AFFINITY PREDICTED BY RF-SCORE:    0.00 PKD
ROOT
HETATM    1 NA   UNL     1     -11.077  10.794  63.405  1.00  0.00    -0.491 Na 
HETATM    2 NA   UNL     2      -8.757   6.996  64.597  1.00  0.00    -0.235 Na 
HETATM    3 CA   UNL     3     -12.631  11.718  68.591  1.00  0.00    -0.305 Ca 
HETATM    4  O   UNL     4      -9.229  10.707  64.279  1.00  0.00    -0.203 OA 
HETATM    5  C   UNL     4      -8.818  10.037  65.271  1.00  0.00    -0.178 C  
HETATM    6  O   UNL     4      -8.987   8.772  65.356  1.00  0.00    -0.197 OA 
HETATM    7  C   UNL     4      -8.081  10.688  66.458  1.00  0.00    -0.140 C  
ENDROOT
BRANCH   7   8
HETATM    8  N   UNL     4      -8.213  12.156  66.672  1.00  0.00    -0.081 NA 
BRANCH   8   9
HETATM    9  C   UNL     4      -9.497  12.708  67.113  1.00  0.00    -0.214 C  
BRANCH   9  10
HETATM   10  C   UNL     4      -9.817  14.152  66.720  1.00  0.00    -0.272 C  
BRANCH  10  11
HETATM   11  N   UNL     4     -10.096  15.042  67.875  1.00  0.00    -0.226 NA 
BRANCH  11  12
HETATM   12  C   UNL     4      -9.434  16.383  67.781  1.00  0.00    -0.222 C  
HETATM   13  O   UNL     4      -8.321  17.135  65.770  1.00  0.00    -0.519 OA 
HETATM   14  O   UNL     4     -10.529  16.467  65.679  1.00  0.00    -0.361 OA 
HETATM   15  C   UNL     4      -9.416  16.763  66.257  1.00  0.00    -0.286 C  
ENDBRANCH  11  12
BRANCH  11  16
HETATM   16  C   UNL     4     -11.585  15.227  68.026  1.00  0.00    -0.312 C  
HETATM   17  C   UNL     4     -11.920  14.833  69.494  1.00  0.00    -0.311 C  
HETATM   18  O   UNL     4     -12.652  13.810  69.625  1.00  0.00    -0.217 OA 
HETATM   19  O   UNL     4     -11.156  15.436  70.340  1.00  0.00    -0.282 OA 
ENDBRANCH  11  16
ENDBRANCH  10  11
ENDBRANCH   9  10
ENDBRANCH   8   9
BRANCH   8  20
HETATM   20  C   UNL     4      -7.174  12.557  67.708  1.00  0.00    -0.125 C  
HETATM   21  C   UNL     4      -6.994  11.556  68.915  1.00  0.00    -0.100 C  
HETATM   22  O   UNL     4      -5.804  11.454  69.339  1.00  0.00    -0.053 OA 
HETATM   23  O   UNL     4      -8.032  10.950  69.354  1.00  0.00    -0.119 OA 
ENDBRANCH   8  20
ENDBRANCH   7   8
TORSDOF 7
ENDMDL
MODEL      402
REMARK 921   NORMALIZED FREE ENERGY PREDICTED BY IDOCK:   -2.29 KCAL/MOL
REMARK 922        TOTAL FREE ENERGY PREDICTED BY IDOCK:   -4.66 KCAL/MOL
REMARK 923 INTER-LIGAND FREE ENERGY PREDICTED BY IDOCK:   -5.82 KCAL/MOL
REMARK 924 INTRA-LIGAND FREE ENERGY PREDICTED BY IDOCK:    1.16 KCAL/MOL
REMARK 927      BINDING AFFINITY PREDICTED BY RF-SCORE:    0.00 PKD
ROOT
HETATM    1 NA   UNL     1     -12.269  13.041  71.196  1.00  0.00    -0.297 Na 
HETATM    2 NA   UNL     2     -13.114   9.095  73.421  1.00  0.00    -0.421 Na 
HETATM    3 CA   UNL     3      -6.918  11.885  70.758  1.00  0.00    -0.267 Ca 
HETATM    4  O   UNL     4     -12.444  11.177  70.369  1.00  0.00    -0.311 OA 
HETATM    5  C   UNL     4     -11.929  10.073  70.711  1.00  0.00    -0.335 C  
HETATM    6  O   UNL     4     -12.016   9.621  71.904  1.00  0.00    -0.370 OA 
HETATM    7  C   UNL     4     -11.153   9.183  69.720  1.00  0.00    -0.125 C  
ENDROOT
BRANCH   7   8
HETATM    8  N   UNL     4     -10.626   9.789  68.465  1.00  0.00    -0.214 NA 
BRANCH   8   9
HETATM    9  C   UNL     4     -10.318  11.222  68.431  1.00  0.00    -0.192 C  
BRANCH   9  10
HETATM   10  C   UNL     4     -10.829  12.025  67.234  1.00  0.00    -0.246 C  
BRANCH  10  11
HETATM   11  N   UNL     4     -10.002  13.214  66.908  1.00  0.00    -0.240 NA 
BRANCH  11  12
HETATM   12  C   UNL     4     -10.617  14.120  65.887  1.00  0.00    -0.298 C  
HETATM   13  O   UNL     4     -12.956  13.989  65.287  1.00  0.00    -0.743 OA 
HETATM   14  O   UNL     4     -12.352  14.296  67.494  1.00  0.00    -0.287 OA 
HETATM   15  C   UNL     4     -12.149  14.195  66.225  1.00  0.00    -0.442 C  
ENDBRANCH  11  12
BRANCH  11  16
HETATM   16  C   UNL     4      -9.718  13.995  68.167  1.00  0.00    -0.220 C  
HETATM   17  C   UNL     4      -8.182  14.251  68.175  1.00  0.00    -0.146 C  
HETATM   18  O   UNL     4      -7.547  13.688  69.113  1.00  0.00    -0.011 OA 
HETATM   19  O   UNL     4      -7.771  14.749  67.059  1.00  0.00    -0.168 OA 
ENDBRANCH  11  16
ENDBRANCH  10  11
ENDBRANCH   9  10
ENDBRANCH   8   9
BRANCH   8  20
HETATM   20  C   UNL     4      -9.347   9.048  68.108  1.00  0.00    -0.142 C  
HETATM   21  C   UNL     4      -8.142   9.246  69.108  1.00  0.00    -0.106 C  
HETATM   22  O   UNL     4      -7.416   8.220  69.264  1.00  0.00    -0.081 OA 
HETATM   23  O   UNL     4      -8.001  10.392  69.659  1.00  0.00    -0.161 OA 
ENDBRANCH   8  20
ENDBRANCH   7   8
TORSDOF 7
ENDMDL
MODEL      403
REMARK 921   NORMALIZED FREE ENERGY PREDICTED BY IDOCK:   -2.28 KCAL/MOL
REMARK 922        TOTAL FREE ENERGY PREDICTED BY IDOCK:   -4.66 KCAL/MOL
REMARK 923 INTER-LIGAND FREE ENERGY PREDICTED BY IDOCK:   -5.72 KCAL/MOL
REMARK 924 INTRA-LIGAND FREE ENERGY PREDICTED BY IDOCK:    1.06 KCAL/MOL
REMARK 927      BINDING AFFINITY PREDICTED BY RF-SCORE:    0.00 PKD
ROOT
HETATM    1 NA   UNL     1     -10.628   6.724  72.027  1.00  0.00    -0.201 Na 
HETATM    2 NA   UNL     2      -6.540   8.842  72.220  1.00  0.00    -0.066 Na 
HETATM    3 CA   UNL     3     -13.339  11.461  72.638  1.00  0.00    -0.538 Ca 
HETATM    4  O   UNL     4      -9.716   7.774  70.526  1.00  0.00    -0.175 OA 
HETATM    5  C   UNL     4      -9.160   8.911  70.536  1.00  0.00    -0.200 C  
HETATM    6  O   UNL     4      -8.256   9.220  71.386  1.00  0.00    -0.330 OA 
HETATM    7  C   UNL     4      -9.526  10.017  69.526  1.00  0.00    -0.226 C  
ENDROOT
BRANCH   7   8
HETATM    8  N   UNL     4     -10.824   9.931  68.800  1.00  0.00    -0.221 NA 
BRANCH   8   9
HETATM    9  C   UNL     4     -11.320  11.102  68.070  1.00  0.00    -0.312 C  
BRANCH   9  10
HETATM   10  C   UNL     4     -10.892  12.481  68.575  1.00  0.00    -0.243 C  
BRANCH  10  11
HETATM   11  N   UNL     4     -11.041  13.564  67.571  1.00  0.00    -0.267 NA 
BRANCH  11  12
HETATM   12  C   UNL     4     -10.098  14.710  67.769  1.00  0.00    -0.228 C  
HETATM   13  O   UNL     4      -8.104  14.522  69.124  1.00  0.00    -0.122 OA 
HETATM   14  O   UNL     4      -8.445  13.058  67.371  1.00  0.00    -0.180 OA 
HETATM   15  C   UNL     4      -8.701  14.082  68.112  1.00  0.00    -0.180 C  
ENDBRANCH  11  12
BRANCH  11  16
HETATM   16  C   UNL     4     -10.859  12.998  66.184  1.00  0.00    -0.279 C  
HETATM   17  C   UNL     4     -12.167  13.334  65.409  1.00  0.00    -0.456 C  
HETATM   18  O   UNL     4     -12.860  12.335  65.061  1.00  0.00    -0.563 OA 
HETATM   19  O   UNL     4     -12.478  14.582  65.508  1.00  0.00    -0.345 OA 
ENDBRANCH  11  16
ENDBRANCH  10  11
ENDBRANCH   9  10
ENDBRANCH   8   9
BRANCH   8  20
HETATM   20  C   UNL     4     -10.705   8.795  67.797  1.00  0.00    -0.125 C  
HETATM   21  C   UNL     4      -9.446   8.851  66.847  1.00  0.00    -0.177 C  
HETATM   22  O   UNL     4      -8.954   7.720  66.559  1.00  0.00    -0.145 OA 
HETATM   23  O   UNL     4      -9.039  10.000  66.458  1.00  0.00    -0.145 OA 
ENDBRANCH   8  20
ENDBRANCH   7   8
TORSDOF 7
ENDMDL
MODEL      404
REMARK 921   NORMALIZED FREE ENERGY PREDICTED BY IDOCK:   -2.28 KCAL/MOL
REMARK 922        TOTAL FREE ENERGY PREDICTED BY IDOCK:   -4.66 KCAL/MOL
REMARK 923 INTER-LIGAND FREE ENERGY PREDICTED BY IDOCK:   -3.80 KCAL/MOL
REMARK 924 INTRA-LIGAND FREE ENERGY PREDICTED BY IDOCK:   -0.85 KCAL/MOL
REMARK 927      BINDING AFFINITY PREDICTED BY RF-SCORE:    0.00 PKD
ROOT
HETATM    1 NA   UNL     1      -9.226  11.711  69.893  1.00  0.00    -0.279 Na 
HETATM    2 NA   UNL     2     -12.449   9.788  72.566  1.00  0.00    -0.333 Na 
HETATM    3 CA   UNL     3      -5.911   7.363  70.412  1.00  0.00    -0.022 Ca 
HETATM    4  O   UNL     4     -10.565  10.261  69.353  1.00  0.00    -0.206 OA 
HETATM    5  C   UNL     4     -10.895   9.187  69.933  1.00  0.00    -0.228 C  
HETATM    6  O   UNL     4     -11.263   9.159  71.157  1.00  0.00    -0.272 OA 
HETATM    7  C   UNL     4     -10.878   7.822  69.216  1.00  0.00    -0.080 C  
ENDROOT
BRANCH   7   8
HETATM    8  N   UNL     4     -10.075   7.672  67.970  1.00  0.00    -0.179 NA 
BRANCH   8   9
HETATM    9  C   UNL     4     -10.252   8.635  66.879  1.00  0.00    -0.296 C  
BRANCH   9  10
HETATM   10  C   UNL     4      -9.012   9.388  66.395  1.00  0.00    -0.152 C  
BRANCH  10  11
HETATM   11  N   UNL     4      -9.302  10.734  65.840  1.00  0.00    -0.181 NA 
BRANCH  11  12
HETATM   12  C   UNL     4     -10.728  10.924  65.423  1.00  0.00    -0.119 C  
HETATM   13  O   UNL     4     -11.503  12.951  64.356  1.00  0.00    -0.323 OA 
HETATM   14  O   UNL     4      -9.746  11.768  63.437  1.00  0.00    -0.351 OA 
HETATM   15  C   UNL     4     -10.715  11.979  64.260  1.00  0.00    -0.336 C  
ENDBRANCH  11  12
BRANCH  11  16
HETATM   16  C   UNL     4      -8.930  11.791  66.851  1.00  0.00    -0.195 C  
HETATM   17  C   UNL     4      -7.390  11.672  67.048  1.00  0.00    -0.143 C  
HETATM   18  O   UNL     4      -7.021  11.310  68.202  1.00  0.00    -0.066 OA 
HETATM   19  O   UNL     4      -6.760  11.675  65.923  1.00  0.00     0.334 OA 
ENDBRANCH  11  16
ENDBRANCH  10  11
ENDBRANCH   9  10
ENDBRANCH   8   9
BRANCH   8  20
HETATM   20  C   UNL     4      -8.608   7.714  68.370  1.00  0.00    -0.124 C  
HETATM   21  C   UNL     4      -7.852   6.328  68.336  1.00  0.00    -0.105 C  
HETATM   22  O   UNL     4      -6.641   6.400  67.970  1.00  0.00    -0.060 OA 
HETATM   23  O   UNL     4      -8.504   5.280  68.670  1.00  0.00    -0.090 OA 
ENDBRANCH   8  20
ENDBRANCH   7   8
TORSDOF 7
ENDMDL
MODEL      405
REMARK 921   NORMALIZED FREE ENERGY PREDICTED BY IDOCK:   -2.28 KCAL/MOL
REMARK 922        TOTAL FREE ENERGY PREDICTED BY IDOCK:   -4.65 KCAL/MOL
REMARK 923 INTER-LIGAND FREE ENERGY PREDICTED BY IDOCK:   -4.57 KCAL/MOL
REMARK 924 INTRA-LIGAND FREE ENERGY PREDICTED BY IDOCK:   -0.09 KCAL/MOL
REMARK 927      BINDING AFFINITY PREDICTED BY RF-SCORE:    0.00 PKD
ROOT
HETATM    1 NA   UNL     1      -7.765   5.343  64.176  1.00  0.00    -0.059 Na 
HETATM    2 NA   UNL     2     -11.617   2.825  64.430  1.00  0.00    -0.456 Na 
HETATM    3 CA   UNL     3     -10.610  10.010  63.635  1.00  0.00    -0.413 Ca 
HETATM    4  O   UNL     4      -8.987   5.126  65.803  1.00  0.00    -0.143 OA 
HETATM    5  C   UNL     4     -10.246   5.203  65.905  1.00  0.00    -0.120 C  
HETATM    6  O   UNL     4     -11.032   4.536  65.148  1.00  0.00    -0.236 OA 
HETATM    7  C   UNL     4     -10.936   6.106  66.946  1.00  0.00    -0.305 C  
ENDROOT
BRANCH   7   8
HETATM    8  N   UNL     4     -10.163   7.220  67.561  1.00  0.00    -0.200 NA 
BRANCH   8   9
HETATM    9  C   UNL     4     -10.120   8.523  66.891  1.00  0.00    -0.294 C  
BRANCH   9  10
HETATM   10  C   UNL     4      -8.925   8.809  65.981  1.00  0.00    -0.192 C  
BRANCH  10  11
HETATM   11  N   UNL     4      -8.760  10.244  65.635  1.00  0.00    -0.155 NA 
BRANCH  11  12
HETATM   12  C   UNL     4      -8.759  11.157  66.822  1.00  0.00    -0.157 C  
HETATM   13  O   UNL     4      -9.250  13.518  66.635  1.00  0.00    -0.248 OA 
HETATM   14  O   UNL     4     -10.769  11.963  65.855  1.00  0.00    -0.265 OA 
HETATM   15  C   UNL     4      -9.701  12.360  66.457  1.00  0.00    -0.240 C  
ENDBRANCH  11  12
BRANCH  11  16
HETATM   16  C   UNL     4      -7.483  10.434  64.854  1.00  0.00    -0.065 C  
HETATM   17  C   UNL     4      -6.334  10.431  65.905  1.00  0.00    -0.119 C  
HETATM   18  O   UNL     4      -5.705  11.522  66.019  1.00  0.00    -0.197 OA 
HETATM   19  O   UNL     4      -6.405   9.413  66.692  1.00  0.00    -0.064 OA 
ENDBRANCH  11  16
ENDBRANCH  10  11
ENDBRANCH   9  10
ENDBRANCH   8   9
BRANCH   8  20
HETATM   20  C   UNL     4     -10.731   7.450  68.953  1.00  0.00    -0.130 C  
HETATM   21  C   UNL     4      -9.669   7.725  70.088  1.00  0.00    -0.183 C  
HETATM   22  O   UNL     4     -10.045   8.552  70.970  1.00  0.00    -0.188 OA 
HETATM   23  O   UNL     4      -8.550   7.108  70.025  1.00  0.00    -0.138 OA 
ENDBRANCH   8  20
ENDBRANCH   7   8
TORSDOF 7
ENDMDL
MODEL      406
REMARK 921   NORMALIZED FREE ENERGY PREDICTED BY IDOCK:   -2.27 KCAL/MOL
REMARK 922        TOTAL FREE ENERGY PREDICTED BY IDOCK:   -4.65 KCAL/MOL
REMARK 923 INTER-LIGAND FREE ENERGY PREDICTED BY IDOCK:   -5.37 KCAL/MOL
REMARK 924 INTRA-LIGAND FREE ENERGY PREDICTED BY IDOCK:    0.72 KCAL/MOL
REMARK 927      BINDING AFFINITY PREDICTED BY RF-SCORE:    0.00 PKD
ROOT
HETATM    1 NA   UNL     1     -11.440  12.821  69.968  1.00  0.00    -0.250 Na 
HETATM    2 NA   UNL     2      -8.050  15.812  69.075  1.00  0.00    -0.136 Na 
HETATM    3 CA   UNL     3     -14.245  14.356  65.502  1.00  0.00    -0.722 Ca 
HETATM    4  O   UNL     4      -9.939  12.603  68.594  1.00  0.00    -0.194 OA 
HETATM    5  C   UNL     4      -9.496  13.406  67.723  1.00  0.00    -0.210 C  
HETATM    6  O   UNL     4      -9.141  14.599  68.014  1.00  0.00    -0.179 OA 
HETATM    7  C   UNL     4      -9.350  13.015  66.239  1.00  0.00    -0.140 C  
ENDROOT
BRANCH   7   8
HETATM    8  N   UNL     4     -10.116  11.847  65.721  1.00  0.00    -0.233 NA 
BRANCH   8   9
HETATM    9  C   UNL     4      -9.998  10.552  66.398  1.00  0.00    -0.218 C  
BRANCH   9  10
HETATM   10  C   UNL     4      -9.059   9.516  65.778  1.00  0.00    -0.196 C  
BRANCH  10  11
HETATM   11  N   UNL     4      -8.087   8.933  66.737  1.00  0.00    -0.110 NA 
BRANCH  11  12
HETATM   12  C   UNL     4      -8.157   9.530  68.109  1.00  0.00    -0.102 C  
HETATM   13  O   UNL     4      -6.178  10.173  69.341  1.00  0.00    -0.043 OA 
HETATM   14  O   UNL     4      -6.552  11.040  67.234  1.00  0.00    -0.067 OA 
HETATM   15  C   UNL     4      -6.844  10.371  68.296  1.00  0.00    -0.065 C  
ENDBRANCH  11  12
BRANCH  11  16
HETATM   16  C   UNL     4      -8.293   7.442  66.827  1.00  0.00    -0.122 C  
HETATM   17  C   UNL     4      -8.699   7.153  68.303  1.00  0.00    -0.128 C  
HETATM   18  O   UNL     4      -7.873   6.461  68.963  1.00  0.00    -0.106 OA 
HETATM   19  O   UNL     4      -9.664   7.914  68.693  1.00  0.00    -0.153 OA 
ENDBRANCH  11  16
ENDBRANCH  10  11
ENDBRANCH   9  10
ENDBRANCH   8   9
BRANCH   8  20
HETATM   20  C   UNL     4     -11.588  12.229  65.739  1.00  0.00    -0.388 C  
HETATM   21  C   UNL     4     -12.277  12.352  64.324  1.00  0.00    -0.452 C  
HETATM   22  O   UNL     4     -13.485  11.973  64.294  1.00  0.00    -0.654 OA 
HETATM   23  O   UNL     4     -11.581  12.813  63.355  1.00  0.00    -0.499 OA 
ENDBRANCH   8  20
ENDBRANCH   7   8
TORSDOF 7
ENDMDL
MODEL      407
REMARK 921   NORMALIZED FREE ENERGY PREDICTED BY IDOCK:   -2.27 KCAL/MOL
REMARK 922        TOTAL FREE ENERGY PREDICTED BY IDOCK:   -4.64 KCAL/MOL
REMARK 923 INTER-LIGAND FREE ENERGY PREDICTED BY IDOCK:   -3.68 KCAL/MOL
REMARK 924 INTRA-LIGAND FREE ENERGY PREDICTED BY IDOCK:   -0.97 KCAL/MOL
REMARK 927      BINDING AFFINITY PREDICTED BY RF-SCORE:    0.00 PKD
ROOT
HETATM    1 NA   UNL     1      -5.505  15.031  68.594  1.00  0.00    -0.080 Na 
HETATM    2 NA   UNL     2      -9.871  16.500  68.711  1.00  0.00    -0.194 Na 
HETATM    3 CA   UNL     3      -6.796  10.356  71.171  1.00  0.00    -0.094 Ca 
HETATM    4  O   UNL     4      -7.034  14.440  67.369  1.00  0.00    -0.186 OA 
HETATM    5  C   UNL     4      -8.218  14.086  67.641  1.00  0.00    -0.180 C  
HETATM    6  O   UNL     4      -8.992  14.800  68.367  1.00  0.00    -0.174 OA 
HETATM    7  C   UNL     4      -8.825  12.767  67.123  1.00  0.00    -0.202 C  
ENDROOT
BRANCH   7   8
HETATM    8  N   UNL     4      -7.912  11.687  66.656  1.00  0.00    -0.135 NA 
BRANCH   8   9
HETATM    9  C   UNL     4      -7.372  10.730  67.627  1.00  0.00    -0.094 C  
BRANCH   9  10
HETATM   10  C   UNL     4      -8.088  10.611  68.973  1.00  0.00    -0.148 C  
BRANCH  10  11
HETATM   11  N   UNL     4      -8.886   9.368  69.124  1.00  0.00    -0.138 NA 
BRANCH  11  12
HETATM   12  C   UNL     4      -8.346   8.422  70.152  1.00  0.00    -0.120 C  
HETATM   13  O   UNL     4      -8.905   6.069  70.162  1.00  0.00    -0.140 OA 
HETATM   14  O   UNL     4      -7.982   7.022  68.272  1.00  0.00    -0.119 OA 
HETATM   15  C   UNL     4      -8.374   6.993  69.500  1.00  0.00    -0.133 C  
ENDBRANCH  11  12
BRANCH  11  16
HETATM   16  C   UNL     4     -10.313   9.718  69.464  1.00  0.00    -0.230 C  
HETATM   17  C   UNL     4     -11.092   9.696  68.116  1.00  0.00    -0.050 C  
HETATM   18  O   UNL     4     -11.553  10.812  67.742  1.00  0.00    -0.521 OA 
HETATM   19  O   UNL     4     -10.886   8.606  67.459  1.00  0.00    -0.202 OA 
ENDBRANCH  11  16
ENDBRANCH  10  11
ENDBRANCH   9  10
ENDBRANCH   8   9
BRANCH   8  20
HETATM   20  C   UNL     4      -8.663  10.883  65.606  1.00  0.00    -0.183 C  
HETATM   21  C   UNL     4      -7.765  10.015  64.640  1.00  0.00    -0.146 C  
HETATM   22  O   UNL     4      -8.279   8.908  64.300  1.00  0.00    -0.154 OA 
HETATM   23  O   UNL     4      -6.629  10.487  64.291  1.00  0.00    -0.055 OA 
ENDBRANCH   8  20
ENDBRANCH   7   8
TORSDOF 7
ENDMDL
MODEL      408
REMARK 921   NORMALIZED FREE ENERGY PREDICTED BY IDOCK:   -2.24 KCAL/MOL
REMARK 922        TOTAL FREE ENERGY PREDICTED BY IDOCK:   -4.60 KCAL/MOL
REMARK 923 INTER-LIGAND FREE ENERGY PREDICTED BY IDOCK:   -4.09 KCAL/MOL
REMARK 924 INTRA-LIGAND FREE ENERGY PREDICTED BY IDOCK:   -0.50 KCAL/MOL
REMARK 927      BINDING AFFINITY PREDICTED BY RF-SCORE:    0.00 PKD
ROOT
HETATM    1 NA   UNL     1     -12.577   6.460  69.162  1.00  0.00    -0.476 Na 
HETATM    2 NA   UNL     2     -11.994   5.040  64.816  1.00  0.00    -0.701 Na 
HETATM    3 CA   UNL     3     -10.382   1.846  71.177  1.00  0.00    -0.146 Ca 
HETATM    4  O   UNL     4     -10.836   6.475  68.087  1.00  0.00    -0.255 OA 
HETATM    5  C   UNL     4     -10.299   5.578  67.374  1.00  0.00    -0.225 C  
HETATM    6  O   UNL     4     -10.938   4.970  66.449  1.00  0.00    -0.177 OA 
HETATM    7  C   UNL     4      -8.833   5.141  67.564  1.00  0.00    -0.105 C  
ENDROOT
BRANCH   7   8
HETATM    8  N   UNL     4      -8.148   5.450  68.850  1.00  0.00    -0.093 NA 
BRANCH   8   9
HETATM    9  C   UNL     4      -8.276   4.520  69.976  1.00  0.00    -0.066 C  
BRANCH   9  10
HETATM   10  C   UNL     4      -9.662   4.358  70.603  1.00  0.00    -0.213 C  
BRANCH  10  11
HETATM   11  N   UNL     4      -9.898   5.233  71.779  1.00  0.00    -0.165 NA 
BRANCH  11  12
HETATM   12  C   UNL     4     -11.230   5.919  71.766  1.00  0.00    -0.250 C  
HETATM   13  O   UNL     4     -11.704   7.843  73.152  1.00  0.00    -0.264 OA 
HETATM   14  O   UNL     4      -9.905   7.885  71.704  1.00  0.00    -0.160 OA 
HETATM   15  C   UNL     4     -10.973   7.395  72.235  1.00  0.00    -0.254 C  
ENDBRANCH  11  12
BRANCH  11  16
HETATM   16  C   UNL     4      -9.761   4.427  73.046  1.00  0.00    -0.135 C  
HETATM   17  C   UNL     4      -8.328   4.714  73.584  1.00  0.00    -0.105 C  
HETATM   18  O   UNL     4      -7.546   3.720  73.594  1.00  0.00    -0.067 OA 
HETATM   19  O   UNL     4      -8.084   5.979  73.651  1.00  0.00    -0.106 OA 
ENDBRANCH  11  16
ENDBRANCH  10  11
ENDBRANCH   9  10
ENDBRANCH   8   9
BRANCH   8  20
HETATM   20  C   UNL     4      -6.664   5.588  68.549  1.00  0.00    -0.057 C  
HETATM   21  C   UNL     4      -6.057   4.491  67.591  1.00  0.00    -0.028 C  
HETATM   22  O   UNL     4      -5.154   4.916  66.810  1.00  0.00    -0.007 OA 
HETATM   23  O   UNL     4      -6.512   3.298  67.679  1.00  0.00    -0.035 OA 
ENDBRANCH   8  20
ENDBRANCH   7   8
TORSDOF 7
ENDMDL
MODEL      409
REMARK 921   NORMALIZED FREE ENERGY PREDICTED BY IDOCK:   -2.24 KCAL/MOL
REMARK 922        TOTAL FREE ENERGY PREDICTED BY IDOCK:   -4.59 KCAL/MOL
REMARK 923 INTER-LIGAND FREE ENERGY PREDICTED BY IDOCK:   -5.64 KCAL/MOL
REMARK 924 INTRA-LIGAND FREE ENERGY PREDICTED BY IDOCK:    1.05 KCAL/MOL
REMARK 927      BINDING AFFINITY PREDICTED BY RF-SCORE:    0.00 PKD
ROOT
HETATM    1 NA   UNL     1     -12.139  12.096  71.047  1.00  0.00    -0.308 Na 
HETATM    2 NA   UNL     2     -11.290   8.019  69.073  1.00  0.00    -0.392 Na 
HETATM    3 CA   UNL     3      -6.793  13.335  71.259  1.00  0.00    -0.260 Ca 
HETATM    4  O   UNL     4     -11.686  11.753  69.081  1.00  0.00    -0.274 OA 
HETATM    5  C   UNL     4     -10.775  11.048  68.557  1.00  0.00    -0.202 C  
HETATM    6  O   UNL     4     -10.592   9.824  68.877  1.00  0.00    -0.207 OA 
HETATM    7  C   UNL     4      -9.812  11.606  67.490  1.00  0.00    -0.188 C  
ENDROOT
BRANCH   7   8
HETATM    8  N   UNL     4      -9.650  13.081  67.364  1.00  0.00    -0.205 NA 
BRANCH   8   9
HETATM    9  C   UNL     4      -9.738  13.920  68.563  1.00  0.00    -0.202 C  
BRANCH   9  10
HETATM   10  C   UNL     4      -9.706  15.437  68.366  1.00  0.00    -0.211 C  
BRANCH  10  11
HETATM   11  N   UNL     4     -10.362  16.200  69.458  1.00  0.00    -0.269 NA 
BRANCH  11  12
HETATM   12  C   UNL     4     -10.255  17.687  69.308  1.00  0.00    -0.147 C  
HETATM   13  O   UNL     4      -8.987  18.717  67.525  1.00  0.00    -0.273 OA 
HETATM   14  O   UNL     4     -10.659  17.207  67.021  1.00  0.00    -0.306 OA 
HETATM   15  C   UNL     4      -9.952  17.960  67.791  1.00  0.00    -0.331 C  
ENDBRANCH  11  12
BRANCH  11  16
HETATM   16  C   UNL     4     -11.816  15.808  69.549  1.00  0.00    -0.347 C  
HETATM   17  C   UNL     4     -12.103  15.573  71.061  1.00  0.00    -0.387 C  
HETATM   18  O   UNL     4     -12.397  14.385  71.376  1.00  0.00    -0.330 OA 
HETATM   19  O   UNL     4     -11.706  16.564  71.785  1.00  0.00    -0.435 OA 
ENDBRANCH  11  16
ENDBRANCH  10  11
ENDBRANCH   9  10
ENDBRANCH   8   9
BRANCH   8  20
HETATM   20  C   UNL     4      -8.287  13.334  66.740  1.00  0.00     0.096 C  
HETATM   21  C   UNL     4      -7.061  12.680  67.489  1.00  0.00    -0.152 C  
HETATM   22  O   UNL     4      -6.137  12.271  66.725  1.00  0.00    -0.222 OA 
HETATM   23  O   UNL     4      -7.100  12.620  68.766  1.00  0.00    -0.091 OA 
ENDBRANCH   8  20
ENDBRANCH   7   8
TORSDOF 7
ENDMDL
MODEL      410
REMARK 921   NORMALIZED FREE ENERGY PREDICTED BY IDOCK:   -2.23 KCAL/MOL
REMARK 922        TOTAL FREE ENERGY PREDICTED BY IDOCK:   -4.58 KCAL/MOL
REMARK 923 INTER-LIGAND FREE ENERGY PREDICTED BY IDOCK:   -3.69 KCAL/MOL
REMARK 924 INTRA-LIGAND FREE ENERGY PREDICTED BY IDOCK:   -0.89 KCAL/MOL
REMARK 927      BINDING AFFINITY PREDICTED BY RF-SCORE:    0.00 PKD
ROOT
HETATM    1 NA   UNL     1      -9.180  10.434  64.971  1.00  0.00    -0.153 Na 
HETATM    2 NA   UNL     2      -5.763   8.486  62.570  1.00  0.00    -0.071 Na 
HETATM    3 CA   UNL     3     -11.750   5.622  65.605  1.00  0.00    -0.677 Ca 
HETATM    4  O   UNL     4      -7.605   9.363  65.722  1.00  0.00    -0.097 OA 
HETATM    5  C   UNL     4      -7.121   8.250  65.364  1.00  0.00    -0.067 C  
HETATM    6  O   UNL     4      -6.788   8.010  64.153  1.00  0.00    -0.064 OA 
HETATM    7  C   UNL     4      -6.893   7.092  66.356  1.00  0.00    -0.061 C  
ENDROOT
BRANCH   7   8
HETATM    8  N   UNL     4      -7.624   7.099  67.653  1.00  0.00    -0.108 NA 
BRANCH   8   9
HETATM    9  C   UNL     4      -7.384   8.185  68.609  1.00  0.00    -0.089 C  
BRANCH   9  10
HETATM   10  C   UNL     4      -6.750   7.815  69.951  1.00  0.00    -0.042 C  
BRANCH  10  11
HETATM   11  N   UNL     4      -7.733   7.585  71.040  1.00  0.00    -0.088 NA 
BRANCH  11  12
HETATM   12  C   UNL     4      -8.925   8.491  70.982  1.00  0.00    -0.179 C  
HETATM   13  O   UNL     4     -10.728   8.358  72.587  1.00  0.00    -0.339 OA 
HETATM   14  O   UNL     4      -8.560   8.667  73.318  1.00  0.00    -0.375 OA 
HETATM   15  C   UNL     4      -9.499   8.565  72.441  1.00  0.00    -0.280 C  
ENDBRANCH  11  12
BRANCH  11  16
HETATM   16  C   UNL     4      -8.193   6.149  71.015  1.00  0.00    -0.123 C  
HETATM   17  C   UNL     4      -7.128   5.344  71.817  1.00  0.00    -0.076 C  
HETATM   18  O   UNL     4      -6.467   4.503  71.143  1.00  0.00    -0.024 OA 
HETATM   19  O   UNL     4      -6.892   5.875  72.968  1.00  0.00    -0.073 OA 
ENDBRANCH  11  16
ENDBRANCH  10  11
ENDBRANCH   9  10
ENDBRANCH   8   9
BRANCH   8  20
HETATM   20  C   UNL     4      -9.111   7.105  67.334  1.00  0.00    -0.121 C  
HETATM   21  C   UNL     4      -9.926   5.857  67.857  1.00  0.00    -0.134 C  
HETATM   22  O   UNL     4     -11.105   6.122  68.237  1.00  0.00    -0.333 OA 
HETATM   23  O   UNL     4      -9.346   4.717  67.851  1.00  0.00    -0.121 OA 
ENDBRANCH   8  20
ENDBRANCH   7   8
TORSDOF 7
ENDMDL
MODEL      411
REMARK 921   NORMALIZED FREE ENERGY PREDICTED BY IDOCK:   -2.21 KCAL/MOL
REMARK 922        TOTAL FREE ENERGY PREDICTED BY IDOCK:   -4.56 KCAL/MOL
REMARK 923 INTER-LIGAND FREE ENERGY PREDICTED BY IDOCK:   -5.19 KCAL/MOL
REMARK 924 INTRA-LIGAND FREE ENERGY PREDICTED BY IDOCK:    0.63 KCAL/MOL
REMARK 927      BINDING AFFINITY PREDICTED BY RF-SCORE:    0.00 PKD
ROOT
HETATM    1 NA   UNL     1     -12.024  12.351  67.762  1.00  0.00    -0.265 Na 
HETATM    2 NA   UNL     2     -14.220  13.207  71.722  1.00  0.00    -0.382 Na 
HETATM    3 CA   UNL     3      -7.116  12.455  70.225  1.00  0.00    -0.360 Ca 
HETATM    4  O   UNL     4     -12.424  11.014  69.259  1.00  0.00    -0.400 OA 
HETATM    5  C   UNL     4     -12.263  11.106  70.511  1.00  0.00    -0.384 C  
HETATM    6  O   UNL     4     -12.718  12.093  71.185  1.00  0.00    -0.358 OA 
HETATM    7  C   UNL     4     -11.506  10.040  71.326  1.00  0.00    -0.314 C  
ENDROOT
BRANCH   7   8
HETATM    8  N   UNL     4     -10.586   9.108  70.616  1.00  0.00    -0.226 NA 
BRANCH   8   9
HETATM    9  C   UNL     4      -9.185   9.491  70.415  1.00  0.00    -0.253 C  
BRANCH   9  10
HETATM   10  C   UNL     4      -8.403   8.758  69.325  1.00  0.00    -0.120 C  
BRANCH  10  11
HETATM   11  N   UNL     4      -8.447   9.425  67.999  1.00  0.00    -0.120 NA 
BRANCH  11  12
HETATM   12  C   UNL     4      -7.466  10.547  67.851  1.00  0.00    -0.091 C  
HETATM   13  O   UNL     4      -5.631  10.869  69.392  1.00  0.00    -0.041 OA 
HETATM   14  O   UNL     4      -5.875   8.848  68.303  1.00  0.00    -0.041 OA 
HETATM   15  C   UNL     4      -6.147  10.081  68.563  1.00  0.00    -0.045 C  
ENDBRANCH  11  12
BRANCH  11  16
HETATM   16  C   UNL     4      -8.213   8.407  66.911  1.00  0.00    -0.103 C  
HETATM   17  C   UNL     4      -9.497   7.527  66.862  1.00  0.00    -0.171 C  
HETATM   18  O   UNL     4      -9.334   6.316  67.184  1.00  0.00    -0.119 OA 
HETATM   19  O   UNL     4     -10.567   8.243  66.789  1.00  0.00    -0.306 OA 
ENDBRANCH  11  16
ENDBRANCH  10  11
ENDBRANCH   9  10
ENDBRANCH   8   9
BRANCH   8  20
HETATM   20  C   UNL     4     -10.585   7.798  71.390  1.00  0.00    -0.213 C  
HETATM   21  C   UNL     4     -10.116   7.895  72.894  1.00  0.00    -0.310 C  
HETATM   22  O   UNL     4     -10.725   7.114  73.685  1.00  0.00    -0.375 OA 
HETATM   23  O   UNL     4      -9.188   8.727  73.181  1.00  0.00    -0.199 OA 
ENDBRANCH   8  20
ENDBRANCH   7   8
TORSDOF 7
ENDMDL
MODEL      412
REMARK 921   NORMALIZED FREE ENERGY PREDICTED BY IDOCK:   -2.21 KCAL/MOL
REMARK 922        TOTAL FREE ENERGY PREDICTED BY IDOCK:   -4.56 KCAL/MOL
REMARK 923 INTER-LIGAND FREE ENERGY PREDICTED BY IDOCK:   -5.23 KCAL/MOL
REMARK 924 INTRA-LIGAND FREE ENERGY PREDICTED BY IDOCK:    0.67 KCAL/MOL
REMARK 927      BINDING AFFINITY PREDICTED BY RF-SCORE:    0.00 PKD
ROOT
HETATM    1 NA   UNL     1     -11.301   5.493  68.265  1.00  0.00    -0.233 Na 
HETATM    2 NA   UNL     2      -9.214   6.737  64.349  1.00  0.00    -0.335 Na 
HETATM    3 CA   UNL     3      -6.824   6.614  71.243  1.00  0.00    -0.050 Ca 
HETATM    4  O   UNL     4     -10.979   7.400  67.596  1.00  0.00    -0.171 OA 
HETATM    5  C   UNL     4      -9.936   7.945  67.128  1.00  0.00    -0.230 C  
HETATM    6  O   UNL     4      -9.271   7.428  66.166  1.00  0.00    -0.166 OA 
HETATM    7  C   UNL     4      -9.381   9.273  67.679  1.00  0.00    -0.128 C  
ENDROOT
BRANCH   7   8
HETATM    8  N   UNL     4      -9.800   9.723  69.036  1.00  0.00    -0.173 NA 
BRANCH   8   9
HETATM    9  C   UNL     4      -8.949   9.419  70.191  1.00  0.00    -0.227 C  
BRANCH   9  10
HETATM   10  C   UNL     4      -9.643   9.161  71.529  1.00  0.00    -0.208 C  
BRANCH  10  11
HETATM   11  N   UNL     4     -10.411   7.891  71.575  1.00  0.00    -0.207 NA 
BRANCH  11  12
HETATM   12  C   UNL     4      -9.603   6.709  72.015  1.00  0.00    -0.148 C  
HETATM   13  O   UNL     4      -7.996   6.842  73.818  1.00  0.00    -0.101 OA 
HETATM   14  O   UNL     4     -10.189   7.465  74.185  1.00  0.00    -0.176 OA 
HETATM   15  C   UNL     4      -9.206   6.974  73.511  1.00  0.00    -0.163 C  
ENDBRANCH  11  12
BRANCH  11  16
HETATM   16  C   UNL     4     -11.603   8.051  72.486  1.00  0.00    -0.403 C  
HETATM   17  C   UNL     4     -12.854   8.047  71.559  1.00  0.00    -0.311 C  
HETATM   18  O   UNL     4     -13.506   9.130  71.527  1.00  0.00    -0.360 OA 
HETATM   19  O   UNL     4     -12.851   7.041  70.752  1.00  0.00    -0.246 OA 
ENDBRANCH  11  16
ENDBRANCH  10  11
ENDBRANCH   9  10
ENDBRANCH   8   9
BRANCH   8  20
HETATM   20  C   UNL     4      -9.958  11.234  68.982  1.00  0.00    -0.105 C  
HETATM   21  C   UNL     4     -11.354  11.757  68.462  1.00  0.00    -0.273 C  
HETATM   22  O   UNL     4     -11.762  12.815  69.027  1.00  0.00    -0.288 OA 
HETATM   23  O   UNL     4     -11.939  11.090  67.541  1.00  0.00    -0.529 OA 
ENDBRANCH   8  20
ENDBRANCH   7   8
TORSDOF 7
ENDMDL
MODEL      413
REMARK 921   NORMALIZED FREE ENERGY PREDICTED BY IDOCK:   -2.20 KCAL/MOL
REMARK 922        TOTAL FREE ENERGY PREDICTED BY IDOCK:   -4.54 KCAL/MOL
REMARK 923 INTER-LIGAND FREE ENERGY PREDICTED BY IDOCK:   -4.87 KCAL/MOL
REMARK 924 INTRA-LIGAND FREE ENERGY PREDICTED BY IDOCK:    0.33 KCAL/MOL
REMARK 927      BINDING AFFINITY PREDICTED BY RF-SCORE:    0.00 PKD
ROOT
HETATM    1 NA   UNL     1     -12.386  12.432  67.694  1.00  0.00    -0.335 Na 
HETATM    2 NA   UNL     2     -14.204  12.855  71.907  1.00  0.00    -0.368 Na 
HETATM    3 CA   UNL     3      -7.265  12.777  69.649  1.00  0.00    -0.226 Ca 
HETATM    4  O   UNL     4     -12.525  10.975  69.125  1.00  0.00    -0.432 OA 
HETATM    5  C   UNL     4     -12.238  11.001  70.357  1.00  0.00    -0.373 C  
HETATM    6  O   UNL     4     -12.690  11.903  71.143  1.00  0.00    -0.371 OA 
HETATM    7  C   UNL     4     -11.322   9.950  71.013  1.00  0.00    -0.386 C  
ENDROOT
BRANCH   7   8
HETATM    8  N   UNL     4     -10.416   9.142  70.149  1.00  0.00    -0.206 NA 
BRANCH   8   9
HETATM    9  C   UNL     4     -10.574   7.684  70.106  1.00  0.00    -0.236 C  
BRANCH   9  10
HETATM   10  C   UNL     4      -9.311   6.845  69.904  1.00  0.00    -0.150 C  
BRANCH  10  11
HETATM   11  N   UNL     4      -9.102   5.810  70.947  1.00  0.00    -0.144 NA 
BRANCH  11  12
HETATM   12  C   UNL     4     -10.072   4.671  70.874  1.00  0.00    -0.187 C  
HETATM   13  O   UNL     4     -10.466   3.189  72.744  1.00  0.00    -0.163 OA 
HETATM   14  O   UNL     4     -10.740   5.466  73.006  1.00  0.00    -0.217 OA 
HETATM   15  C   UNL     4     -10.525   4.378  72.349  1.00  0.00    -0.149 C  
ENDBRANCH  11  12
BRANCH  11  16
HETATM   16  C   UNL     4      -7.694   5.276  70.858  1.00  0.00    -0.093 C  
HETATM   17  C   UNL     4      -7.002   5.665  72.197  1.00  0.00    -0.081 C  
HETATM   18  O   UNL     4      -6.044   6.484  72.092  1.00  0.00    -0.038 OA 
HETATM   19  O   UNL     4      -7.707   5.319  73.220  1.00  0.00    -0.098 OA 
ENDBRANCH  11  16
ENDBRANCH  10  11
ENDBRANCH   9  10
ENDBRANCH   8   9
BRANCH   8  20
HETATM   20  C   UNL     4     -10.577   9.651  68.726  1.00  0.00    -0.216 C  
HETATM   21  C   UNL     4      -9.241  10.071  67.997  1.00  0.00    -0.134 C  
HETATM   22  O   UNL     4      -9.218   9.816  66.756  1.00  0.00    -0.144 OA 
HETATM   23  O   UNL     4      -8.321  10.617  68.697  1.00  0.00    -0.121 OA 
ENDBRANCH   8  20
ENDBRANCH   7   8
TORSDOF 7
ENDMDL
MODEL      414
REMARK 921   NORMALIZED FREE ENERGY PREDICTED BY IDOCK:   -2.17 KCAL/MOL
REMARK 922        TOTAL FREE ENERGY PREDICTED BY IDOCK:   -4.50 KCAL/MOL
REMARK 923 INTER-LIGAND FREE ENERGY PREDICTED BY IDOCK:   -4.77 KCAL/MOL
REMARK 924 INTRA-LIGAND FREE ENERGY PREDICTED BY IDOCK:    0.26 KCAL/MOL
REMARK 927      BINDING AFFINITY PREDICTED BY RF-SCORE:    0.00 PKD
ROOT
HETATM    1 NA   UNL     1     -10.283   5.233  64.392  1.00  0.00    -0.373 Na 
HETATM    2 NA   UNL     2      -6.959   2.789  66.443  1.00  0.00    -0.042 Na 
HETATM    3 CA   UNL     3     -12.609   6.491  69.207  1.00  0.00    -0.586 Ca 
HETATM    4  O   UNL     4      -8.621   5.967  65.333  1.00  0.00    -0.152 OA 
HETATM    5  C   UNL     4      -8.116   5.681  66.457  1.00  0.00    -0.105 C  
HETATM    6  O   UNL     4      -7.856   4.477  66.801  1.00  0.00    -0.097 OA 
HETATM    7  C   UNL     4      -7.776   6.757  67.507  1.00  0.00    -0.110 C  
ENDROOT
BRANCH   7   8
HETATM    8  N   UNL     4      -8.418   8.097  67.400  1.00  0.00    -0.125 NA 
BRANCH   8   9
HETATM    9  C   UNL     4      -9.381   8.518  68.423  1.00  0.00    -0.134 C  
BRANCH   9  10
HETATM   10  C   UNL     4      -8.821   8.995  69.765  1.00  0.00    -0.153 C  
BRANCH  10  11
HETATM   11  N   UNL     4      -9.863   9.298  70.779  1.00  0.00    -0.266 NA 
BRANCH  11  12
HETATM   12  C   UNL     4     -11.260   9.022  70.315  1.00  0.00    -0.205 C  
HETATM   13  O   UNL     4     -13.134  10.404  70.967  1.00  0.00    -0.381 OA 
HETATM   14  O   UNL     4     -11.301  11.363  69.939  1.00  0.00    -0.270 OA 
HETATM   15  C   UNL     4     -12.027  10.391  70.376  1.00  0.00    -0.320 C  
ENDBRANCH  11  12
BRANCH  11  16
HETATM   16  C   UNL     4      -9.588   8.514  72.038  1.00  0.00    -0.301 C  
HETATM   17  C   UNL     4     -10.681   7.407  72.101  1.00  0.00    -0.225 C  
HETATM   18  O   UNL     4     -11.490   7.502  73.068  1.00  0.00    -0.312 OA 
HETATM   19  O   UNL     4     -10.763   6.749  70.995  1.00  0.00    -0.223 OA 
ENDBRANCH  11  16
ENDBRANCH  10  11
ENDBRANCH   9  10
ENDBRANCH   8   9
BRANCH   8  20
HETATM   20  C   UNL     4      -7.304   9.132  67.382  1.00  0.00    -0.084 C  
HETATM   21  C   UNL     4      -7.040   9.825  65.989  1.00  0.00    -0.101 C  
HETATM   22  O   UNL     4      -6.705  11.045  66.064  1.00  0.00    -0.109 OA 
HETATM   23  O   UNL     4      -7.179   9.119  64.931  1.00  0.00    -0.093 OA 
ENDBRANCH   8  20
ENDBRANCH   7   8
TORSDOF 7
ENDMDL
MODEL      415
REMARK 921   NORMALIZED FREE ENERGY PREDICTED BY IDOCK:   -2.16 KCAL/MOL
REMARK 922        TOTAL FREE ENERGY PREDICTED BY IDOCK:   -4.49 KCAL/MOL
REMARK 923 INTER-LIGAND FREE ENERGY PREDICTED BY IDOCK:   -3.28 KCAL/MOL
REMARK 924 INTRA-LIGAND FREE ENERGY PREDICTED BY IDOCK:   -1.21 KCAL/MOL
REMARK 927      BINDING AFFINITY PREDICTED BY RF-SCORE:    0.00 PKD
ROOT
HETATM    1 NA   UNL     1      -6.895   7.434  69.960  1.00  0.00    -0.044 Na 
HETATM    2 NA   UNL     2     -10.449   8.361  72.743  1.00  0.00    -0.238 Na 
HETATM    3 CA   UNL     3     -10.203   6.745  65.630  1.00  0.00    -0.408 Ca 
HETATM    4  O   UNL     4      -7.921   9.200  70.097  1.00  0.00    -0.091 OA 
HETATM    5  C   UNL     4      -9.165   9.431  70.114  1.00  0.00    -0.234 C  
HETATM    6  O   UNL     4      -9.957   8.835  70.922  1.00  0.00    -0.192 OA 
HETATM    7  C   UNL     4      -9.828  10.446  69.162  1.00  0.00    -0.223 C  
ENDROOT
BRANCH   7   8
HETATM    8  N   UNL     4      -9.104  10.858  67.927  1.00  0.00    -0.146 NA 
BRANCH   8   9
HETATM    9  C   UNL     4      -9.422  10.204  66.654  1.00  0.00    -0.170 C  
BRANCH   9  10
HETATM   10  C   UNL     4      -8.790   8.838  66.385  1.00  0.00    -0.147 C  
BRANCH  10  11
HETATM   11  N   UNL     4      -7.423   8.909  65.811  1.00  0.00    -0.089 NA 
BRANCH  11  12
HETATM   12  C   UNL     4      -7.069  10.252  65.250  1.00  0.00    -0.130 C  
HETATM   13  O   UNL     4      -5.218  10.569  63.728  1.00  0.00    -0.137 OA 
HETATM   14  O   UNL     4      -6.876   9.045  63.218  1.00  0.00    -0.090 OA 
HETATM   15  C   UNL     4      -6.315   9.985  63.899  1.00  0.00    -0.132 C  
ENDBRANCH  11  12
BRANCH  11  16
HETATM   16  C   UNL     4      -6.411   8.521  66.860  1.00  0.00    -0.056 C  
HETATM   17  C   UNL     4      -6.148   6.999  66.661  1.00  0.00    -0.038 C  
HETATM   18  O   UNL     4      -6.514   6.258  67.618  1.00  0.00    -0.042 OA 
HETATM   19  O   UNL     4      -5.873   6.715  65.433  1.00  0.00    -0.028 OA 
ENDBRANCH  11  16
ENDBRANCH  10  11
ENDBRANCH   9  10
ENDBRANCH   8   9
BRANCH   8  20
HETATM   20  C   UNL     4      -9.345  12.347  67.738  1.00  0.00    -0.196 C  
HETATM   21  C   UNL     4      -8.069  13.267  67.870  1.00  0.00    -0.159 C  
HETATM   22  O   UNL     4      -8.059  14.266  67.091  1.00  0.00    -0.188 OA 
HETATM   23  O   UNL     4      -7.177  12.938  68.726  1.00  0.00    -0.102 OA 
ENDBRANCH   8  20
ENDBRANCH   7   8
TORSDOF 7
ENDMDL
MODEL      416
REMARK 921   NORMALIZED FREE ENERGY PREDICTED BY IDOCK:   -2.15 KCAL/MOL
REMARK 922        TOTAL FREE ENERGY PREDICTED BY IDOCK:   -4.48 KCAL/MOL
REMARK 923 INTER-LIGAND FREE ENERGY PREDICTED BY IDOCK:   -4.12 KCAL/MOL
REMARK 924 INTRA-LIGAND FREE ENERGY PREDICTED BY IDOCK:   -0.36 KCAL/MOL
REMARK 927      BINDING AFFINITY PREDICTED BY RF-SCORE:    0.00 PKD
ROOT
HETATM    1 NA   UNL     1      -8.789  12.196  64.240  1.00  0.00    -0.395 Na 
HETATM    2 NA   UNL     2      -5.149  12.936  66.967  1.00  0.00    -0.091 Na 
HETATM    3 CA   UNL     3      -9.883   7.390  66.665  1.00  0.00    -0.154 Ca 
HETATM    4  O   UNL     4      -8.819  12.851  66.179  1.00  0.00     0.063 OA 
HETATM    5  C   UNL     4      -8.212  12.421  67.203  1.00  0.00    -0.176 C  
HETATM    6  O   UNL     4      -6.947  12.238  67.218  1.00  0.00    -0.143 OA 
HETATM    7  C   UNL     4      -8.947  12.082  68.515  1.00  0.00    -0.098 C  
ENDROOT
BRANCH   7   8
HETATM    8  N   UNL     4     -10.416  11.843  68.478  1.00  0.00    -0.219 NA 
BRANCH   8   9
HETATM    9  C   UNL     4     -11.291  12.831  67.839  1.00  0.00    -0.293 C  
BRANCH   9  10
HETATM   10  C   UNL     4     -12.160  13.698  68.752  1.00  0.00    -0.297 C  
BRANCH  10  11
HETATM   11  N   UNL     4     -11.495  14.942  69.214  1.00  0.00    -0.285 NA 
BRANCH  11  12
HETATM   12  C   UNL     4     -11.109  14.922  70.661  1.00  0.00    -0.133 C  
HETATM   13  O   UNL     4     -11.816  16.639  72.210  1.00  0.00    -0.466 OA 
HETATM   14  O   UNL     4     -13.392  15.471  70.992  1.00  0.00    -0.505 OA 
HETATM   15  C   UNL     4     -12.209  15.741  71.426  1.00  0.00    -0.445 C  
ENDBRANCH  11  12
BRANCH  11  16
HETATM   16  C   UNL     4     -10.272  15.207  68.372  1.00  0.00    -0.221 C  
HETATM   17  C   UNL     4     -10.657  16.368  67.409  1.00  0.00    -0.306 C  
HETATM   18  O   UNL     4     -10.683  16.066  66.182  1.00  0.00    -0.305 OA 
HETATM   19  O   UNL     4     -11.172  17.367  68.043  1.00  0.00    -0.157 OA 
ENDBRANCH  11  16
ENDBRANCH  10  11
ENDBRANCH   9  10
ENDBRANCH   8   9
BRANCH   8  20
HETATM   20  C   UNL     4     -10.641  10.519  67.765  1.00  0.00    -0.243 C  
HETATM   21  C   UNL     4     -10.805   9.259  68.702  1.00  0.00    -0.078 C  
HETATM   22  O   UNL     4     -11.627   8.393  68.278  1.00  0.00     1.015 OA 
HETATM   23  O   UNL     4     -10.114   9.216  69.777  1.00  0.00    -0.184 OA 
ENDBRANCH   8  20
ENDBRANCH   7   8
TORSDOF 7
ENDMDL
MODEL      417
REMARK 921   NORMALIZED FREE ENERGY PREDICTED BY IDOCK:   -2.13 KCAL/MOL
REMARK 922        TOTAL FREE ENERGY PREDICTED BY IDOCK:   -4.45 KCAL/MOL
REMARK 923 INTER-LIGAND FREE ENERGY PREDICTED BY IDOCK:   -4.78 KCAL/MOL
REMARK 924 INTRA-LIGAND FREE ENERGY PREDICTED BY IDOCK:    0.33 KCAL/MOL
REMARK 927      BINDING AFFINITY PREDICTED BY RF-SCORE:    0.00 PKD
ROOT
HETATM    1 NA   UNL     1     -10.418  11.899  70.062  1.00  0.00    -0.433 Na 
HETATM    2 NA   UNL     2     -14.313  12.771  72.365  1.00  0.00    -0.401 Na 
HETATM    3 CA   UNL     3      -8.334   9.040  74.263  1.00  0.00    -0.186 Ca 
HETATM    4  O   UNL     4     -11.989  10.620  70.347  1.00  0.00    -0.286 OA 
HETATM    5  C   UNL     4     -12.636  10.330  71.396  1.00  0.00    -0.434 C  
HETATM    6  O   UNL     4     -13.149  11.227  72.149  1.00  0.00    -0.458 OA 
HETATM    7  C   UNL     4     -12.859   8.875  71.853  1.00  0.00    -0.380 C  
ENDROOT
BRANCH   7   8
HETATM    8  N   UNL     4     -11.969   7.807  71.319  1.00  0.00    -0.298 NA 
BRANCH   8   9
HETATM    9  C   UNL     4     -10.934   8.154  70.340  1.00  0.00    -0.247 C  
BRANCH   9  10
HETATM   10  C   UNL     4      -9.706   8.911  70.851  1.00  0.00    -0.239 C  
BRANCH  10  11
HETATM   11  N   UNL     4      -8.445   8.553  70.154  1.00  0.00    -0.122 NA 
BRANCH  11  12
HETATM   12  C   UNL     4      -7.541   7.666  70.953  1.00  0.00    -0.080 C  
HETATM   13  O   UNL     4      -5.158   8.050  71.106  1.00  0.00    -0.026 OA 
HETATM   14  O   UNL     4      -6.633   9.726  71.697  1.00  0.00    -0.306 OA 
HETATM   15  C   UNL     4      -6.292   8.535  71.339  1.00  0.00    -0.050 C  
ENDBRANCH  11  12
BRANCH  11  16
HETATM   16  C   UNL     4      -8.763   7.890  68.837  1.00  0.00    -0.135 C  
HETATM   17  C   UNL     4      -8.485   8.960  67.740  1.00  0.00    -0.125 C  
HETATM   18  O   UNL     4      -9.501   9.344  67.092  1.00  0.00    -0.138 OA 
HETATM   19  O   UNL     4      -7.319   9.493  67.873  1.00  0.00    -0.082 OA 
ENDBRANCH  11  16
ENDBRANCH  10  11
ENDBRANCH   9  10
ENDBRANCH   8   9
BRANCH   8  20
HETATM   20  C   UNL     4     -11.265   7.169  72.507  1.00  0.00    -0.290 C  
HETATM   21  C   UNL     4     -11.740   5.711  72.879  1.00  0.00    -0.126 C  
HETATM   22  O   UNL     4     -10.819   4.950  73.300  1.00  0.00    -0.233 OA 
HETATM   23  O   UNL     4     -12.978   5.426  72.730  1.00  0.00     0.290 OA 
ENDBRANCH   8  20
ENDBRANCH   7   8
TORSDOF 7
ENDMDL
MODEL      418
REMARK 921   NORMALIZED FREE ENERGY PREDICTED BY IDOCK:   -2.11 KCAL/MOL
REMARK 922        TOTAL FREE ENERGY PREDICTED BY IDOCK:   -4.41 KCAL/MOL
REMARK 923 INTER-LIGAND FREE ENERGY PREDICTED BY IDOCK:   -4.37 KCAL/MOL
REMARK 924 INTRA-LIGAND FREE ENERGY PREDICTED BY IDOCK:   -0.04 KCAL/MOL
REMARK 927      BINDING AFFINITY PREDICTED BY RF-SCORE:    0.00 PKD
ROOT
HETATM    1 NA   UNL     1      -8.428   5.320  68.742  1.00  0.00    -0.088 Na 
HETATM    2 NA   UNL     2      -5.717   6.059  72.395  1.00  0.00    -0.026 Na 
HETATM    3 CA   UNL     3     -12.985   6.023  71.726  1.00  0.00    -0.288 Ca 
HETATM    4  O   UNL     4      -7.952   7.128  69.574  1.00  0.00    -0.122 OA 
HETATM    5  C   UNL     4      -7.955   7.506  70.781  1.00  0.00    -0.103 C  
HETATM    6  O   UNL     4      -7.351   6.854  71.700  1.00  0.00    -0.082 OA 
HETATM    7  C   UNL     4      -8.687   8.781  71.245  1.00  0.00    -0.215 C  
ENDROOT
BRANCH   7   8
HETATM    8  N   UNL     4      -9.751   9.358  70.377  1.00  0.00    -0.244 NA 
BRANCH   8   9
HETATM    9  C   UNL     4      -9.500   9.524  68.942  1.00  0.00    -0.155 C  
BRANCH   9  10
HETATM   10  C   UNL     4     -10.001  10.810  68.282  1.00  0.00    -0.168 C  
BRANCH  10  11
HETATM   11  N   UNL     4      -8.921  11.655  67.712  1.00  0.00    -0.164 NA 
BRANCH  11  12
HETATM   12  C   UNL     4      -7.800  10.874  67.099  1.00  0.00    -0.127 C  
HETATM   13  O   UNL     4      -5.743  11.919  66.376  1.00  0.00    -0.252 OA 
HETATM   14  O   UNL     4      -6.462  12.183  68.554  1.00  0.00    -0.053 OA 
HETATM   15  C   UNL     4      -6.489  11.699  67.360  1.00  0.00    -0.103 C  
ENDBRANCH  11  12
BRANCH  11  16
HETATM   16  C   UNL     4      -9.501  12.592  66.683  1.00  0.00    -0.244 C  
HETATM   17  C   UNL     4      -9.947  13.864  67.464  1.00  0.00    -0.240 C  
HETATM   18  O   UNL     4     -11.192  14.084  67.470  1.00  0.00    -0.289 OA 
HETATM   19  O   UNL     4      -9.007  14.317  68.221  1.00  0.00    -0.175 OA 
ENDBRANCH  11  16
ENDBRANCH  10  11
ENDBRANCH   9  10
ENDBRANCH   8   9
BRANCH   8  20
HETATM   20  C   UNL     4     -10.978   8.471  70.517  1.00  0.00    -0.241 C  
HETATM   21  C   UNL     4     -11.557   8.332  71.979  1.00  0.00    -0.340 C  
HETATM   22  O   UNL     4     -12.819   8.247  72.039  1.00  0.00    -0.327 OA 
HETATM   23  O   UNL     4     -10.728   8.316  72.954  1.00  0.00    -0.320 OA 
ENDBRANCH   8  20
ENDBRANCH   7   8
TORSDOF 7
ENDMDL
MODEL      419
REMARK 921   NORMALIZED FREE ENERGY PREDICTED BY IDOCK:   -2.09 KCAL/MOL
REMARK 922        TOTAL FREE ENERGY PREDICTED BY IDOCK:   -4.39 KCAL/MOL
REMARK 923 INTER-LIGAND FREE ENERGY PREDICTED BY IDOCK:   -5.80 KCAL/MOL
REMARK 924 INTRA-LIGAND FREE ENERGY PREDICTED BY IDOCK:    1.42 KCAL/MOL
REMARK 927      BINDING AFFINITY PREDICTED BY RF-SCORE:    0.00 PKD
ROOT
HETATM    1 NA   UNL     1      -8.296   6.371  69.546  1.00  0.00    -0.107 Na 
HETATM    2 NA   UNL     2      -5.227   9.716  70.341  1.00  0.00    -0.029 Na 
HETATM    3 CA   UNL     3     -11.908   8.575  73.047  1.00  0.00    -0.364 Ca 
HETATM    4  O   UNL     4      -8.319   8.268  68.780  1.00  0.00    -0.122 OA 
HETATM    5  C   UNL     4      -8.161   9.388  69.347  1.00  0.00    -0.119 C  
HETATM    6  O   UNL     4      -7.155   9.636  70.096  1.00  0.00    -0.083 OA 
HETATM    7  C   UNL     4      -9.168  10.545  69.185  1.00  0.00    -0.171 C  
ENDROOT
BRANCH   7   8
HETATM    8  N   UNL     4     -10.548  10.240  68.714  1.00  0.00    -0.197 NA 
BRANCH   8   9
HETATM    9  C   UNL     4     -10.856  10.324  67.283  1.00  0.00    -0.250 C  
BRANCH   9  10
HETATM   10  C   UNL     4     -10.649  11.675  66.596  1.00  0.00    -0.243 C  
BRANCH  10  11
HETATM   11  N   UNL     4     -11.897  12.460  66.420  1.00  0.00    -0.560 NA 
BRANCH  11  12
HETATM   12  C   UNL     4     -12.285  13.260  67.625  1.00  0.00    -0.135 C  
HETATM   13  O   UNL     4     -10.702  13.830  69.361  1.00  0.00    -0.126 OA 
HETATM   14  O   UNL     4     -10.263  14.411  67.170  1.00  0.00    -0.254 OA 
HETATM   15  C   UNL     4     -10.973  13.950  68.142  1.00  0.00    -0.249 C  
ENDBRANCH  11  12
BRANCH  11  16
HETATM   16  C   UNL     4     -11.756  13.378  65.232  1.00  0.00    -0.323 C  
HETATM   17  C   UNL     4     -12.239  12.560  63.998  1.00  0.00    -0.480 C  
HETATM   18  O   UNL     4     -11.349  12.310  63.135  1.00  0.00    -0.366 OA 
HETATM   19  O   UNL     4     -13.392  12.019  64.201  1.00  0.00    -0.725 OA 
ENDBRANCH  11  16
ENDBRANCH  10  11
ENDBRANCH   9  10
ENDBRANCH   8   9
BRANCH   8  20
HETATM   20  C   UNL     4     -10.874   8.823  69.160  1.00  0.00    -0.053 C  
HETATM   21  C   UNL     4     -11.315   8.666  70.667  1.00  0.00    -0.247 C  
HETATM   22  O   UNL     4     -12.198   7.780  70.867  1.00  0.00    -0.257 OA 
HETATM   23  O   UNL     4     -10.760   9.423  71.537  1.00  0.00    -0.346 OA 
ENDBRANCH   8  20
ENDBRANCH   7   8
TORSDOF 7
ENDMDL
MODEL      420
REMARK 921   NORMALIZED FREE ENERGY PREDICTED BY IDOCK:   -2.09 KCAL/MOL
REMARK 922        TOTAL FREE ENERGY PREDICTED BY IDOCK:   -4.39 KCAL/MOL
REMARK 923 INTER-LIGAND FREE ENERGY PREDICTED BY IDOCK:   -3.29 KCAL/MOL
REMARK 924 INTRA-LIGAND FREE ENERGY PREDICTED BY IDOCK:   -1.10 KCAL/MOL
REMARK 927      BINDING AFFINITY PREDICTED BY RF-SCORE:    0.00 PKD
ROOT
HETATM    1 NA   UNL     1      -8.416  10.684  66.917  1.00  0.00    -0.117 Na 
HETATM    2 NA   UNL     2     -12.599  10.666  68.851  1.00  0.00    -0.433 Na 
HETATM    3 CA   UNL     3      -6.123   8.441  71.376  1.00  0.00    -0.033 Ca 
HETATM    4  O   UNL     4      -9.673   9.081  67.113  1.00  0.00    -0.159 OA 
HETATM    5  C   UNL     4     -10.329   8.665  68.112  1.00  0.00    -0.216 C  
HETATM    6  O   UNL     4     -11.098   9.430  68.788  1.00  0.00    -0.096 OA 
HETATM    7  C   UNL     4     -10.254   7.204  68.598  1.00  0.00    -0.179 C  
ENDROOT
BRANCH   7   8
HETATM    8  N   UNL     4      -9.098   6.362  68.178  1.00  0.00    -0.115 NA 
BRANCH   8   9
HETATM    9  C   UNL     4      -8.034   6.068  69.143  1.00  0.00    -0.103 C  
BRANCH   9  10
HETATM   10  C   UNL     4      -8.380   5.151  70.317  1.00  0.00    -0.097 C  
BRANCH  10  11
HETATM   11  N   UNL     4      -8.672   5.874  71.581  1.00  0.00    -0.135 NA 
BRANCH  11  12
HETATM   12  C   UNL     4     -10.131   6.107  71.822  1.00  0.00    -0.185 C  
HETATM   13  O   UNL     4     -10.944   7.311  73.756  1.00  0.00    -0.255 OA 
HETATM   14  O   UNL     4      -9.411   8.305  72.345  1.00  0.00    -0.215 OA 
HETATM   15  C   UNL     4     -10.233   7.388  72.725  1.00  0.00    -0.238 C  
ENDBRANCH  11  12
BRANCH  11  16
HETATM   16  C   UNL     4      -8.085   5.117  72.746  1.00  0.00    -0.109 C  
HETATM   17  C   UNL     4      -6.539   5.200  72.576  1.00  0.00    -0.053 C  
HETATM   18  O   UNL     4      -5.960   4.098  72.359  1.00  0.00    -0.014 OA 
HETATM   19  O   UNL     4      -6.141   6.413  72.391  1.00  0.00    -0.038 OA 
ENDBRANCH  11  16
ENDBRANCH  10  11
ENDBRANCH   9  10
ENDBRANCH   8   9
BRANCH   8  20
HETATM   20  C   UNL     4      -9.658   5.028  67.709  1.00  0.00    -0.146 C  
HETATM   21  C   UNL     4      -8.780   4.254  66.650  1.00  0.00    -0.113 C  
HETATM   22  O   UNL     4      -8.797   2.994  66.774  1.00  0.00    -0.129 OA 
HETATM   23  O   UNL     4      -8.144   4.943  65.780  1.00  0.00    -0.108 OA 
ENDBRANCH   8  20
ENDBRANCH   7   8
TORSDOF 7
ENDMDL
MODEL      421
REMARK 921   NORMALIZED FREE ENERGY PREDICTED BY IDOCK:   -2.08 KCAL/MOL
REMARK 922        TOTAL FREE ENERGY PREDICTED BY IDOCK:   -4.37 KCAL/MOL
REMARK 923 INTER-LIGAND FREE ENERGY PREDICTED BY IDOCK:   -5.05 KCAL/MOL
REMARK 924 INTRA-LIGAND FREE ENERGY PREDICTED BY IDOCK:    0.67 KCAL/MOL
REMARK 927      BINDING AFFINITY PREDICTED BY RF-SCORE:    0.00 PKD
ROOT
HETATM    1 NA   UNL     1     -10.786  11.809  70.294  1.00  0.00    -0.439 Na 
HETATM    2 NA   UNL     2      -6.955  14.268  69.579  1.00  0.00    -0.103 Na 
HETATM    3 CA   UNL     3     -13.450  14.404  66.252  1.00  0.00    -0.592 Ca 
HETATM    4  O   UNL     4      -9.404  11.528  68.811  1.00  0.00    -0.169 OA 
HETATM    5  C   UNL     4      -8.861  12.356  68.023  1.00  0.00    -0.187 C  
HETATM    6  O   UNL     4      -8.287  13.419  68.443  1.00  0.00    -0.159 OA 
HETATM    7  C   UNL     4      -8.847  12.154  66.495  1.00  0.00    -0.151 C  
ENDROOT
BRANCH   7   8
HETATM    8  N   UNL     4      -9.829  11.218  65.882  1.00  0.00    -0.222 NA 
BRANCH   8   9
HETATM    9  C   UNL     4      -9.952   9.855  66.409  1.00  0.00    -0.244 C  
BRANCH   9  10
HETATM   10  C   UNL     4      -9.401   8.715  65.551  1.00  0.00    -0.035 C  
BRANCH  10  11
HETATM   11  N   UNL     4      -8.658   7.686  66.321  1.00  0.00    -0.137 NA 
BRANCH  11  12
HETATM   12  C   UNL     4      -9.420   6.412  66.523  1.00  0.00    -0.156 C  
HETATM   13  O   UNL     4      -8.863   4.838  68.272  1.00  0.00    -0.101 OA 
HETATM   14  O   UNL     4      -9.318   7.038  68.808  1.00  0.00    -0.136 OA 
HETATM   15  C   UNL     4      -9.228   6.014  68.030  1.00  0.00    -0.115 C  
ENDBRANCH  11  12
BRANCH  11  16
HETATM   16  C   UNL     4      -7.349   7.385  65.635  1.00  0.00    -0.074 C  
HETATM   17  C   UNL     4      -7.568   6.052  64.860  1.00  0.00    -0.092 C  
HETATM   18  O   UNL     4      -6.878   5.073  65.264  1.00  0.00    -0.057 OA 
HETATM   19  O   UNL     4      -8.630   6.090  64.129  1.00  0.00     0.029 OA 
ENDBRANCH  11  16
ENDBRANCH  10  11
ENDBRANCH   9  10
ENDBRANCH   8   9
BRANCH   8  20
HETATM   20  C   UNL     4     -11.201  11.866  65.993  1.00  0.00    -0.324 C  
HETATM   21  C   UNL     4     -11.801  12.427  64.645  1.00  0.00    -0.380 C  
HETATM   22  O   UNL     4     -13.058  12.306  64.539  1.00  0.00    -0.791 OA 
HETATM   23  O   UNL     4     -10.994  12.943  63.797  1.00  0.00    -0.413 OA 
ENDBRANCH   8  20
ENDBRANCH   7   8
TORSDOF 7
ENDMDL
MODEL      422
REMARK 921   NORMALIZED FREE ENERGY PREDICTED BY IDOCK:   -2.08 KCAL/MOL
REMARK 922        TOTAL FREE ENERGY PREDICTED BY IDOCK:   -4.37 KCAL/MOL
REMARK 923 INTER-LIGAND FREE ENERGY PREDICTED BY IDOCK:   -4.10 KCAL/MOL
REMARK 924 INTRA-LIGAND FREE ENERGY PREDICTED BY IDOCK:   -0.27 KCAL/MOL
REMARK 927      BINDING AFFINITY PREDICTED BY RF-SCORE:    0.00 PKD
ROOT
HETATM    1 NA   UNL     1      -6.856  11.860  65.776  1.00  0.00    -0.355 Na 
HETATM    2 NA   UNL     2      -7.129  15.415  68.696  1.00  0.00    -0.101 Na 
HETATM    3 CA   UNL     3      -7.574   8.218  69.824  1.00  0.00    -0.072 Ca 
HETATM    4  O   UNL     4      -8.558  12.659  66.584  1.00  0.00    -0.148 OA 
HETATM    5  C   UNL     4      -8.834  12.974  67.779  1.00  0.00    -0.188 C  
HETATM    6  O   UNL     4      -8.074  13.729  68.477  1.00  0.00    -0.144 OA 
HETATM    7  C   UNL     4     -10.107  12.475  68.491  1.00  0.00    -0.181 C  
ENDROOT
BRANCH   7   8
HETATM    8  N   UNL     4     -10.815  11.281  67.950  1.00  0.00    -0.211 NA 
BRANCH   8   9
HETATM    9  C   UNL     4     -10.062  10.047  67.704  1.00  0.00    -0.190 C  
BRANCH   9  10
HETATM   10  C   UNL     4     -10.523   9.160  66.545  1.00  0.00    -0.127 C  
BRANCH  10  11
HETATM   11  N   UNL     4      -9.410   8.565  65.763  1.00  0.00    -0.165 NA 
BRANCH  11  12
HETATM   12  C   UNL     4      -8.757   9.521  64.813  1.00  0.00    -0.197 C  
HETATM   13  O   UNL     4      -6.492   9.213  64.024  1.00  0.00    -0.086 OA 
HETATM   14  O   UNL     4      -8.049   7.532  63.733  1.00  0.00    -0.114 OA 
HETATM   15  C   UNL     4      -7.641   8.710  64.063  1.00  0.00    -0.126 C  
ENDBRANCH  11  12
BRANCH  11  16
HETATM   16  C   UNL     4      -8.372   8.004  66.703  1.00  0.00    -0.120 C  
HETATM   17  C   UNL     4      -9.009   6.731  67.334  1.00  0.00    -0.115 C  
HETATM   18  O   UNL     4      -9.216   6.792  68.580  1.00  0.00    -0.130 OA 
HETATM   19  O   UNL     4      -9.491   5.940  66.437  1.00  0.00    -0.154 OA 
ENDBRANCH  11  16
ENDBRANCH  10  11
ENDBRANCH   9  10
ENDBRANCH   8   9
BRANCH   8  20
HETATM   20  C   UNL     4     -11.930  10.938  68.926  1.00  0.00    -0.206 C  
HETATM   21  C   UNL     4     -11.466  10.552  70.384  1.00  0.00    -0.341 C  
HETATM   22  O   UNL     4     -12.246  10.940  71.304  1.00  0.00    -0.341 OA 
HETATM   23  O   UNL     4     -10.375   9.897  70.514  1.00  0.00    -0.286 OA 
ENDBRANCH   8  20
ENDBRANCH   7   8
TORSDOF 7
ENDMDL
MODEL      423
REMARK 921   NORMALIZED FREE ENERGY PREDICTED BY IDOCK:   -2.06 KCAL/MOL
REMARK 922        TOTAL FREE ENERGY PREDICTED BY IDOCK:   -4.35 KCAL/MOL
REMARK 923 INTER-LIGAND FREE ENERGY PREDICTED BY IDOCK:   -4.38 KCAL/MOL
REMARK 924 INTRA-LIGAND FREE ENERGY PREDICTED BY IDOCK:    0.03 KCAL/MOL
REMARK 927      BINDING AFFINITY PREDICTED BY RF-SCORE:    0.00 PKD
ROOT
HETATM    1 NA   UNL     1      -9.160  10.444  64.993  1.00  0.00    -0.149 Na 
HETATM    2 NA   UNL     2      -5.290   8.257  63.777  1.00  0.00    -0.044 Na 
HETATM    3 CA   UNL     3     -11.817   5.708  65.821  1.00  0.00    -0.658 Ca 
HETATM    4  O   UNL     4      -7.800   9.565  66.244  1.00  0.00    -0.099 OA 
HETATM    5  C   UNL     4      -7.249   8.427  66.194  1.00  0.00    -0.077 C  
HETATM    6  O   UNL     4      -6.650   8.006  65.146  1.00  0.00    -0.051 OA 
HETATM    7  C   UNL     4      -7.256   7.454  67.389  1.00  0.00    -0.093 C  
ENDROOT
BRANCH   7   8
HETATM    8  N   UNL     4      -8.263   7.645  68.470  1.00  0.00    -0.124 NA 
BRANCH   8   9
HETATM    9  C   UNL     4      -7.815   7.740  69.863  1.00  0.00    -0.105 C  
BRANCH   9  10
HETATM   10  C   UNL     4      -8.053   6.528  70.765  1.00  0.00    -0.120 C  
BRANCH  10  11
HETATM   11  N   UNL     4      -9.367   6.540  71.456  1.00  0.00    -0.148 NA 
BRANCH  11  12
HETATM   12  C   UNL     4      -9.938   7.911  71.650  1.00  0.00    -0.181 C  
HETATM   13  O   UNL     4     -12.167   8.271  72.516  1.00  0.00    -0.370 OA 
HETATM   14  O   UNL     4     -10.652   7.018  73.728  1.00  0.00    -0.375 OA 
HETATM   15  C   UNL     4     -11.039   7.781  72.763  1.00  0.00    -0.398 C  
ENDBRANCH  11  12
BRANCH  11  16
HETATM   16  C   UNL     4     -10.351   5.690  70.690  1.00  0.00    -0.252 C  
HETATM   17  C   UNL     4     -10.021   4.214  71.059  1.00  0.00    -0.136 C  
HETATM   18  O   UNL     4      -9.598   3.501  70.105  1.00  0.00    -0.180 OA 
HETATM   19  O   UNL     4      -9.951   4.042  72.335  1.00  0.00    -0.151 OA 
ENDBRANCH  11  16
ENDBRANCH  10  11
ENDBRANCH   9  10
ENDBRANCH   8   9
BRANCH   8  20
HETATM   20  C   UNL     4      -9.026   8.922  68.156  1.00  0.00    -0.137 C  
HETATM   21  C   UNL     4     -10.581   8.754  67.944  1.00  0.00    -0.174 C  
HETATM   22  O   UNL     4     -11.277   9.721  68.372  1.00  0.00    -0.152 OA 
HETATM   23  O   UNL     4     -10.996   7.687  67.373  1.00  0.00    -0.207 OA 
ENDBRANCH   8  20
ENDBRANCH   7   8
TORSDOF 7
ENDMDL
MODEL      424
REMARK 921   NORMALIZED FREE ENERGY PREDICTED BY IDOCK:   -1.96 KCAL/MOL
REMARK 922        TOTAL FREE ENERGY PREDICTED BY IDOCK:   -4.21 KCAL/MOL
REMARK 923 INTER-LIGAND FREE ENERGY PREDICTED BY IDOCK:   -5.20 KCAL/MOL
REMARK 924 INTRA-LIGAND FREE ENERGY PREDICTED BY IDOCK:    0.99 KCAL/MOL
REMARK 927      BINDING AFFINITY PREDICTED BY RF-SCORE:    0.00 PKD
ROOT
HETATM    1 NA   UNL     1     -10.171   9.788  63.574  1.00  0.00    -0.415 Na 
HETATM    2 NA   UNL     2      -6.043  11.570  64.582  1.00  0.00    -0.347 Na 
HETATM    3 CA   UNL     3      -8.453   4.682  64.642  1.00  0.00    -0.101 Ca 
HETATM    4  O   UNL     4      -9.401  10.127  65.440  1.00  0.00    -0.181 OA 
HETATM    5  C   UNL     4      -8.266   9.850  65.925  1.00  0.00    -0.124 C  
HETATM    6  O   UNL     4      -7.177  10.187  65.346  1.00  0.00    -0.132 OA 
HETATM    7  C   UNL     4      -8.101   9.083  67.253  1.00  0.00    -0.103 C  
ENDROOT
BRANCH   7   8
HETATM    8  N   UNL     4      -9.246   8.284  67.771  1.00  0.00    -0.134 NA 
BRANCH   8   9
HETATM    9  C   UNL     4     -10.535   8.942  68.007  1.00  0.00    -0.208 C  
BRANCH   9  10
HETATM   10  C   UNL     4     -10.772   9.555  69.388  1.00  0.00    -0.225 C  
BRANCH  10  11
HETATM   11  N   UNL     4     -11.975  10.422  69.465  1.00  0.00    -0.162 NA 
BRANCH  11  12
HETATM   12  C   UNL     4     -12.929  10.042  70.555  1.00  0.00    -0.096 C  
HETATM   13  O   UNL     4     -12.720   7.973  71.790  1.00  0.00    -0.312 OA 
HETATM   14  O   UNL     4     -10.943   9.445  71.705  1.00  0.00    -0.363 OA 
HETATM   15  C   UNL     4     -12.154   9.055  71.499  1.00  0.00    -0.340 C  
ENDBRANCH  11  12
BRANCH  11  16
HETATM   16  C   UNL     4     -11.554  11.859  69.645  1.00  0.00    -0.317 C  
HETATM   17  C   UNL     4     -11.190  12.382  68.224  1.00  0.00    -0.263 C  
HETATM   18  O   UNL     4      -9.975  12.688  68.056  1.00  0.00    -0.207 OA 
HETATM   19  O   UNL     4     -12.124  12.137  67.369  1.00  0.00    -0.553 OA 
ENDBRANCH  11  16
ENDBRANCH  10  11
ENDBRANCH   9  10
ENDBRANCH   8   9
BRANCH   8  20
HETATM   20  C   UNL     4      -9.494   7.155  66.783  1.00  0.00    -0.169 C  
HETATM   21  C   UNL     4     -10.628   6.134  67.184  1.00  0.00    -0.305 C  
HETATM   22  O   UNL     4     -11.303   5.689  66.209  1.00  0.00     0.103 OA 
HETATM   23  O   UNL     4     -10.767   5.847  68.423  1.00  0.00    -0.242 OA 
ENDBRANCH   8  20
ENDBRANCH   7   8
TORSDOF 7
ENDMDL
MODEL      425
REMARK 921   NORMALIZED FREE ENERGY PREDICTED BY IDOCK:   -1.96 KCAL/MOL
REMARK 922        TOTAL FREE ENERGY PREDICTED BY IDOCK:   -4.20 KCAL/MOL
REMARK 923 INTER-LIGAND FREE ENERGY PREDICTED BY IDOCK:   -3.28 KCAL/MOL
REMARK 924 INTRA-LIGAND FREE ENERGY PREDICTED BY IDOCK:   -0.92 KCAL/MOL
REMARK 927      BINDING AFFINITY PREDICTED BY RF-SCORE:    0.00 PKD
ROOT
HETATM    1 NA   UNL     1      -9.356  10.527  64.665  1.00  0.00    -0.164 Na 
HETATM    2 NA   UNL     2      -5.914   8.094  62.802  1.00  0.00    -0.065 Na 
HETATM    3 CA   UNL     3     -11.567   6.043  66.938  1.00  0.00    -0.449 Ca 
HETATM    4  O   UNL     4      -7.684   9.834  65.620  1.00  0.00    -0.107 OA 
HETATM    5  C   UNL     4      -7.140   8.691  65.603  1.00  0.00    -0.083 C  
HETATM    6  O   UNL     4      -6.841   8.095  64.513  1.00  0.00    -0.066 OA 
HETATM    7  C   UNL     4      -6.795   7.924  66.895  1.00  0.00    -0.072 C  
ENDROOT
BRANCH   7   8
HETATM    8  N   UNL     4      -7.472   8.306  68.165  1.00  0.00    -0.095 NA 
BRANCH   8   9
HETATM    9  C   UNL     4      -8.585   7.491  68.662  1.00  0.00    -0.129 C  
BRANCH   9  10
HETATM   10  C   UNL     4     -10.004   7.981  68.370  1.00  0.00    -0.185 C  
BRANCH  10  11
HETATM   11  N   UNL     4     -10.568   8.860  69.425  1.00  0.00    -0.229 NA 
BRANCH  11  12
HETATM   12  C   UNL     4     -11.562   9.859  68.915  1.00  0.00     0.183 C  
HETATM   13  O   UNL     4     -11.918  11.993  69.996  1.00  0.00    -0.326 OA 
HETATM   14  O   UNL     4      -9.798  11.396  69.300  1.00  0.00    -0.024 OA 
HETATM   15  C   UNL     4     -11.075  11.265  69.416  1.00  0.00    -0.257 C  
ENDBRANCH  11  12
BRANCH  11  16
HETATM   16  C   UNL     4     -11.209   8.017  70.499  1.00  0.00    -0.250 C  
HETATM   17  C   UNL     4     -10.149   7.889  71.633  1.00  0.00    -0.181 C  
HETATM   18  O   UNL     4      -9.713   6.720  71.833  1.00  0.00    -0.157 OA 
HETATM   19  O   UNL     4      -9.675   9.037  71.979  1.00  0.00    -0.290 OA 
ENDBRANCH  11  16
ENDBRANCH  10  11
ENDBRANCH   9  10
ENDBRANCH   8   9
BRANCH   8  20
HETATM   20  C   UNL     4      -6.411   8.328  69.254  1.00  0.00    -0.039 C  
HETATM   21  C   UNL     4      -6.595   9.434  70.365  1.00  0.00    -0.077 C  
HETATM   22  O   UNL     4      -6.242   9.075  71.527  1.00  0.00    -0.068 OA 
HETATM   23  O   UNL     4      -7.069  10.568  70.010  1.00  0.00    -0.154 OA 
ENDBRANCH   8  20
ENDBRANCH   7   8
TORSDOF 7
ENDMDL
MODEL      426
REMARK 921   NORMALIZED FREE ENERGY PREDICTED BY IDOCK:   -1.95 KCAL/MOL
REMARK 922        TOTAL FREE ENERGY PREDICTED BY IDOCK:   -4.19 KCAL/MOL
REMARK 923 INTER-LIGAND FREE ENERGY PREDICTED BY IDOCK:   -5.57 KCAL/MOL
REMARK 924 INTRA-LIGAND FREE ENERGY PREDICTED BY IDOCK:    1.38 KCAL/MOL
REMARK 927      BINDING AFFINITY PREDICTED BY RF-SCORE:    0.00 PKD
ROOT
HETATM    1 NA   UNL     1     -10.150  10.083  63.051  1.00  0.00    -0.378 Na 
HETATM    2 NA   UNL     2      -6.423   7.434  62.479  1.00  0.00    -0.054 Na 
HETATM    3 CA   UNL     3     -12.211   6.711  66.864  1.00  0.00    -0.691 Ca 
HETATM    4  O   UNL     4      -8.509   9.990  64.270  1.00  0.00    -0.152 OA 
HETATM    5  C   UNL     4      -7.889   8.993  64.742  1.00  0.00    -0.122 C  
HETATM    6  O   UNL     4      -7.470   8.038  64.002  1.00  0.00    -0.094 OA 
HETATM    7  C   UNL     4      -7.588   8.846  66.247  1.00  0.00    -0.095 C  
ENDROOT
BRANCH   7   8
HETATM    8  N   UNL     4      -8.381   9.644  67.223  1.00  0.00    -0.114 NA 
BRANCH   8   9
HETATM    9  C   UNL     4      -9.824   9.805  67.018  1.00  0.00    -0.193 C  
BRANCH   9  10
HETATM   10  C   UNL     4     -10.281  10.902  66.055  1.00  0.00    -0.254 C  
BRANCH  10  11
HETATM   11  N   UNL     4     -11.185  11.906  66.670  1.00  0.00    -0.313 NA 
BRANCH  11  12
HETATM   12  C   UNL     4     -10.471  13.064  67.295  1.00  0.00    -0.238 C  
HETATM   13  O   UNL     4     -11.416  14.331  69.125  1.00  0.00    -0.257 OA 
HETATM   14  O   UNL     4     -11.163  12.044  69.320  1.00  0.00    -0.244 OA 
HETATM   15  C   UNL     4     -11.028  13.195  68.757  1.00  0.00    -0.262 C  
ENDBRANCH  11  12
BRANCH  11  16
HETATM   16  C   UNL     4     -12.157  12.415  65.635  1.00  0.00    -0.329 C  
HETATM   17  C   UNL     4     -11.314  13.255  64.631  1.00  0.00    -0.346 C  
HETATM   18  O   UNL     4     -11.584  14.490  64.602  1.00  0.00    -0.391 OA 
HETATM   19  O   UNL     4     -10.281  12.608  64.212  1.00  0.00    -0.355 OA 
ENDBRANCH  11  16
ENDBRANCH  10  11
ENDBRANCH   9  10
ENDBRANCH   8   9
BRANCH   8  20
HETATM   20  C   UNL     4      -8.192   9.003  68.590  1.00  0.00    -0.118 C  
HETATM   21  C   UNL     4      -7.807   9.991  69.759  1.00  0.00    -0.177 C  
HETATM   22  O   UNL     4      -8.308   9.694  70.884  1.00  0.00    -0.272 OA 
HETATM   23  O   UNL     4      -7.044  10.980  69.483  1.00  0.00    -0.126 OA 
ENDBRANCH   8  20
ENDBRANCH   7   8
TORSDOF 7
ENDMDL
MODEL      427
REMARK 921   NORMALIZED FREE ENERGY PREDICTED BY IDOCK:   -1.94 KCAL/MOL
REMARK 922        TOTAL FREE ENERGY PREDICTED BY IDOCK:   -4.18 KCAL/MOL
REMARK 923 INTER-LIGAND FREE ENERGY PREDICTED BY IDOCK:   -3.73 KCAL/MOL
REMARK 924 INTRA-LIGAND FREE ENERGY PREDICTED BY IDOCK:   -0.45 KCAL/MOL
REMARK 927      BINDING AFFINITY PREDICTED BY RF-SCORE:    0.00 PKD
ROOT
HETATM    1 NA   UNL     1      -9.693   6.075  62.403  1.00  0.00    -0.350 Na 
HETATM    2 NA   UNL     2     -12.113   2.165  62.701  1.00  0.00    -0.229 Na 
HETATM    3 CA   UNL     3     -11.628   7.876  67.218  1.00  0.00    -0.508 Ca 
HETATM    4  O   UNL     4      -9.236   4.430  63.531  1.00  0.00    -0.145 OA 
HETATM    5  C   UNL     4      -9.956   3.737  64.308  1.00  0.00    -0.196 C  
HETATM    6  O   UNL     4     -11.081   3.251  63.941  1.00  0.00    -0.275 OA 
HETATM    7  C   UNL     4      -9.540   3.424  65.759  1.00  0.00    -0.067 C  
ENDROOT
BRANCH   7   8
HETATM    8  N   UNL     4      -8.504   4.271  66.412  1.00  0.00    -0.112 NA 
BRANCH   8   9
HETATM    9  C   UNL     4      -8.336   5.663  65.982  1.00  0.00    -0.124 C  
BRANCH   9  10
HETATM   10  C   UNL     4      -9.322   6.695  66.533  1.00  0.00    -0.159 C  
BRANCH  10  11
HETATM   11  N   UNL     4      -8.856   8.099  66.408  1.00  0.00    -0.146 NA 
BRANCH  11  12
HETATM   12  C   UNL     4      -9.907   9.046  65.916  1.00  0.00    -0.187 C  
HETATM   13  O   UNL     4      -9.358  11.129  64.817  1.00  0.00    -0.216 OA 
HETATM   14  O   UNL     4      -8.528   9.139  63.989  1.00  0.00    -0.180 OA 
HETATM   15  C   UNL     4      -9.249   9.880  64.760  1.00  0.00    -0.254 C  
ENDBRANCH  11  12
BRANCH  11  16
HETATM   16  C   UNL     4      -8.331   8.580  67.738  1.00  0.00    -0.130 C  
HETATM   17  C   UNL     4      -6.779   8.561  67.619  1.00  0.00    -0.066 C  
HETATM   18  O   UNL     4      -6.189   7.738  68.376  1.00  0.00    -0.038 OA 
HETATM   19  O   UNL     4      -6.371   9.174  66.560  1.00  0.00    -0.064 OA 
ENDBRANCH  11  16
ENDBRANCH  10  11
ENDBRANCH   9  10
ENDBRANCH   8   9
BRANCH   8  20
HETATM   20  C   UNL     4      -8.815   4.297  67.900  1.00  0.00    -0.111 C  
HETATM   21  C   UNL     4      -7.587   4.593  68.848  1.00  0.00    -0.064 C  
HETATM   22  O   UNL     4      -7.870   5.280  69.874  1.00  0.00    -0.077 OA 
HETATM   23  O   UNL     4      -6.444   4.128  68.512  1.00  0.00    -0.035 OA 
ENDBRANCH   8  20
ENDBRANCH   7   8
TORSDOF 7
ENDMDL
MODEL      428
REMARK 921   NORMALIZED FREE ENERGY PREDICTED BY IDOCK:   -1.91 KCAL/MOL
REMARK 922        TOTAL FREE ENERGY PREDICTED BY IDOCK:   -4.13 KCAL/MOL
REMARK 923 INTER-LIGAND FREE ENERGY PREDICTED BY IDOCK:   -3.24 KCAL/MOL
REMARK 924 INTRA-LIGAND FREE ENERGY PREDICTED BY IDOCK:   -0.89 KCAL/MOL
REMARK 927      BINDING AFFINITY PREDICTED BY RF-SCORE:    0.00 PKD
ROOT
HETATM    1 NA   UNL     1      -9.177  10.165  64.856  1.00  0.00    -0.150 Na 
HETATM    2 NA   UNL     2      -5.409   7.803  63.649  1.00  0.00    -0.034 Na 
HETATM    3 CA   UNL     3     -11.447   5.743  67.193  1.00  0.00    -0.397 Ca 
HETATM    4  O   UNL     4      -7.612   9.643  66.068  1.00  0.00    -0.099 OA 
HETATM    5  C   UNL     4      -7.017   8.537  66.214  1.00  0.00    -0.077 C  
HETATM    6  O   UNL     4      -6.549   7.878  65.223  1.00  0.00    -0.044 OA 
HETATM    7  C   UNL     4      -6.806   7.890  67.598  1.00  0.00    -0.070 C  
ENDROOT
BRANCH   7   8
HETATM    8  N   UNL     4      -7.661   8.327  68.737  1.00  0.00    -0.099 NA 
BRANCH   8   9
HETATM    9  C   UNL     4      -8.942   7.655  68.975  1.00  0.00    -0.137 C  
BRANCH   9  10
HETATM   10  C   UNL     4      -9.470   7.633  70.411  1.00  0.00    -0.164 C  
BRANCH  10  11
HETATM   11  N   UNL     4      -9.372   6.306  71.069  1.00  0.00    -0.160 NA 
BRANCH  11  12
HETATM   12  C   UNL     4      -9.440   6.363  72.564  1.00  0.00    -0.145 C  
HETATM   13  O   UNL     4      -8.555   4.602  73.965  1.00  0.00    -0.105 OA 
HETATM   14  O   UNL     4      -7.188   5.636  72.419  1.00  0.00    -0.085 OA 
HETATM   15  C   UNL     4      -8.270   5.462  73.097  1.00  0.00    -0.115 C  
ENDBRANCH  11  12
BRANCH  11  16
HETATM   16  C   UNL     4     -10.461   5.401  70.550  1.00  0.00    -0.265 C  
HETATM   17  C   UNL     4      -9.744   4.299  69.715  1.00  0.00    -0.220 C  
HETATM   18  O   UNL     4     -10.005   4.304  68.479  1.00  0.00    -0.085 OA 
HETATM   19  O   UNL     4      -8.777   3.754  70.371  1.00  0.00    -0.073 OA 
ENDBRANCH  11  16
ENDBRANCH  10  11
ENDBRANCH   9  10
ENDBRANCH   8   9
BRANCH   8  20
HETATM   20  C   UNL     4      -6.834   8.178  70.004  1.00  0.00    -0.040 C  
HETATM   21  C   UNL     4      -6.882   9.404  70.998  1.00  0.00    -0.067 C  
HETATM   22  O   UNL     4      -6.844   9.087  72.224  1.00  0.00    -0.303 OA 
HETATM   23  O   UNL     4      -6.951  10.579  70.498  1.00  0.00    -0.307 OA 
ENDBRANCH   8  20
ENDBRANCH   7   8
TORSDOF 7
ENDMDL
MODEL      429
REMARK 921   NORMALIZED FREE ENERGY PREDICTED BY IDOCK:   -1.87 KCAL/MOL
REMARK 922        TOTAL FREE ENERGY PREDICTED BY IDOCK:   -4.08 KCAL/MOL
REMARK 923 INTER-LIGAND FREE ENERGY PREDICTED BY IDOCK:   -3.76 KCAL/MOL
REMARK 924 INTRA-LIGAND FREE ENERGY PREDICTED BY IDOCK:   -0.32 KCAL/MOL
REMARK 927      BINDING AFFINITY PREDICTED BY RF-SCORE:    0.00 PKD
ROOT
HETATM    1 NA   UNL     1      -9.391  10.841  65.515  1.00  0.00    -0.164 Na 
HETATM    2 NA   UNL     2      -5.484   9.043  63.860  1.00  0.00    -0.054 Na 
HETATM    3 CA   UNL     3     -10.331   6.429  68.649  1.00  0.00    -0.141 Ca 
HETATM    4  O   UNL     4      -7.577  10.765  66.458  1.00  0.00    -0.126 OA 
HETATM    5  C   UNL     4      -6.759   9.809  66.597  1.00  0.00    -0.079 C  
HETATM    6  O   UNL     4      -6.342   9.121  65.604  1.00  0.00    -0.065 OA 
HETATM    7  C   UNL     4      -6.201   9.395  67.972  1.00  0.00    -0.057 C  
ENDROOT
BRANCH   7   8
HETATM    8  N   UNL     4      -6.925   9.819  69.203  1.00  0.00    -0.053 NA 
BRANCH   8   9
HETATM    9  C   UNL     4      -8.225  10.485  69.081  1.00  0.00    -0.150 C  
BRANCH   9  10
HETATM   10  C   UNL     4      -9.477   9.635  69.304  1.00  0.00    -0.179 C  
BRANCH  10  11
HETATM   11  N   UNL     4     -10.750  10.370  69.094  1.00  0.00    -0.218 NA 
BRANCH  11  12
HETATM   12  C   UNL     4     -11.096  10.584  67.652  1.00  0.00    -0.309 C  
HETATM   13  O   UNL     4     -12.381  12.489  66.902  1.00  0.00    -0.431 OA 
HETATM   14  O   UNL     4     -10.443  12.816  68.113  1.00  0.00    -0.222 OA 
HETATM   15  C   UNL     4     -11.325  12.127  67.474  1.00  0.00    -0.326 C  
ENDBRANCH  11  12
BRANCH  11  16
HETATM   16  C   UNL     4     -11.877   9.637  69.777  1.00  0.00     0.195 C  
HETATM   17  C   UNL     4     -12.033  10.300  71.178  1.00  0.00    -0.376 C  
HETATM   18  O   UNL     4     -11.767   9.552  72.161  1.00  0.00    -0.239 OA 
HETATM   19  O   UNL     4     -12.120  11.584  71.094  1.00  0.00    -0.253 OA 
ENDBRANCH  11  16
ENDBRANCH  10  11
ENDBRANCH   9  10
ENDBRANCH   8   9
BRANCH   8  20
HETATM   20  C   UNL     4      -7.137   8.576  70.053  1.00  0.00    -0.046 C  
HETATM   21  C   UNL     4      -7.090   8.801  71.615  1.00  0.00    -0.073 C  
HETATM   22  O   UNL     4      -7.892   8.075  72.274  1.00  0.00    -0.100 OA 
HETATM   23  O   UNL     4      -6.270   9.670  72.072  1.00  0.00    -0.296 OA 
ENDBRANCH   8  20
ENDBRANCH   7   8
TORSDOF 7
ENDMDL
MODEL      430
REMARK 921   NORMALIZED FREE ENERGY PREDICTED BY IDOCK:   -1.84 KCAL/MOL
REMARK 922        TOTAL FREE ENERGY PREDICTED BY IDOCK:   -4.04 KCAL/MOL
REMARK 923 INTER-LIGAND FREE ENERGY PREDICTED BY IDOCK:   -3.66 KCAL/MOL
REMARK 924 INTRA-LIGAND FREE ENERGY PREDICTED BY IDOCK:   -0.38 KCAL/MOL
REMARK 927      BINDING AFFINITY PREDICTED BY RF-SCORE:    0.00 PKD
ROOT
HETATM    1 NA   UNL     1      -9.345  10.841  65.213  1.00  0.00    -0.163 Na 
HETATM    2 NA   UNL     2      -5.662   8.123  64.684  1.00  0.00    -0.039 Na 
HETATM    3 CA   UNL     3     -12.140   6.890  67.810  1.00  0.00    -0.493 Ca 
HETATM    4  O   UNL     4      -7.943  10.381  66.632  1.00  0.00    -0.113 OA 
HETATM    5  C   UNL     4      -7.446   9.267  66.967  1.00  0.00    -0.091 C  
HETATM    6  O   UNL     4      -6.937   8.463  66.113  1.00  0.00    -0.070 OA 
HETATM    7  C   UNL     4      -7.414   8.785  68.431  1.00  0.00    -0.091 C  
ENDROOT
BRANCH   7   8
HETATM    8  N   UNL     4      -8.338   9.412  69.418  1.00  0.00    -0.116 NA 
BRANCH   8   9
HETATM    9  C   UNL     4      -8.685  10.830  69.280  1.00  0.00    -0.030 C  
BRANCH   9  10
HETATM   10  C   UNL     4     -10.102  11.167  68.815  1.00  0.00    -0.201 C  
BRANCH  10  11
HETATM   11  N   UNL     4     -10.457  12.602  68.955  1.00  0.00    -0.142 NA 
BRANCH  11  12
HETATM   12  C   UNL     4      -9.945  13.465  67.842  1.00  0.00    -0.236 C  
HETATM   13  O   UNL     4      -9.469  15.816  68.146  1.00  0.00    -0.197 OA 
HETATM   14  O   UNL     4      -8.455  14.252  69.510  1.00  0.00     0.255 OA 
HETATM   15  C   UNL     4      -9.176  14.654  68.520  1.00  0.00    -0.193 C  
ENDBRANCH  11  12
BRANCH  11  16
HETATM   16  C   UNL     4     -11.955  12.747  69.053  1.00  0.00    -0.242 C  
HETATM   17  C   UNL     4     -12.261  13.029  70.554  1.00  0.00    -0.313 C  
HETATM   18  O   UNL     4     -12.924  12.131  71.148  1.00  0.00    -0.277 OA 
HETATM   19  O   UNL     4     -11.537  13.989  71.020  1.00  0.00    -0.130 OA 
ENDBRANCH  11  16
ENDBRANCH  10  11
ENDBRANCH   9  10
ENDBRANCH   8   9
BRANCH   8  20
HETATM   20  C   UNL     4      -9.640   8.627  69.379  1.00  0.00    -0.166 C  
HETATM   21  C   UNL     4     -10.263   8.269  70.785  1.00  0.00    -0.192 C  
HETATM   22  O   UNL     4     -11.529   8.288  70.818  1.00  0.00    -0.271 OA 
HETATM   23  O   UNL     4      -9.462   7.998  71.745  1.00  0.00    -0.150 OA 
ENDBRANCH   8  20
ENDBRANCH   7   8
TORSDOF 7
ENDMDL
MODEL      431
REMARK 921   NORMALIZED FREE ENERGY PREDICTED BY IDOCK:   -1.82 KCAL/MOL
REMARK 922        TOTAL FREE ENERGY PREDICTED BY IDOCK:   -4.00 KCAL/MOL
REMARK 923 INTER-LIGAND FREE ENERGY PREDICTED BY IDOCK:   -3.43 KCAL/MOL
REMARK 924 INTRA-LIGAND FREE ENERGY PREDICTED BY IDOCK:   -0.58 KCAL/MOL
REMARK 927      BINDING AFFINITY PREDICTED BY RF-SCORE:    0.00 PKD
ROOT
HETATM    1 NA   UNL     1      -9.158   5.486  63.239  1.00  0.00    -0.243 Na 
HETATM    2 NA   UNL     2      -7.136   1.988  65.455  1.00  0.00    -0.040 Na 
HETATM    3 CA   UNL     3     -12.508   6.498  67.472  1.00  0.00    -0.371 Ca 
HETATM    4  O   UNL     4      -7.737   5.618  64.706  1.00  0.00    -0.088 OA 
HETATM    5  C   UNL     4      -7.654   5.037  65.828  1.00  0.00    -0.086 C  
HETATM    6  O   UNL     4      -7.749   3.768  65.946  1.00  0.00    -0.087 OA 
HETATM    7  C   UNL     4      -7.435   5.811  67.143  1.00  0.00    -0.081 C  
ENDROOT
BRANCH   7   8
HETATM    8  N   UNL     4      -7.741   7.268  67.182  1.00  0.00    -0.110 NA 
BRANCH   8   9
HETATM    9  C   UNL     4      -9.019   7.721  67.739  1.00  0.00    -0.128 C  
BRANCH   9  10
HETATM   10  C   UNL     4      -8.970   8.716  68.900  1.00  0.00    -0.142 C  
BRANCH  10  11
HETATM   11  N   UNL     4      -9.262   8.111  70.225  1.00  0.00    -0.151 NA 
BRANCH  11  12
HETATM   12  C   UNL     4     -10.334   7.066  70.191  1.00  0.00    -0.197 C  
HETATM   13  O   UNL     4     -12.110   6.984  71.830  1.00  0.00    -0.303 OA 
HETATM   14  O   UNL     4     -11.763   8.912  70.607  1.00  0.00    -0.264 OA 
HETATM   15  C   UNL     4     -11.576   7.678  70.931  1.00  0.00    -0.280 C  
ENDBRANCH  11  12
BRANCH  11  16
HETATM   16  C   UNL     4      -8.001   7.519  70.801  1.00  0.00    -0.103 C  
HETATM   17  C   UNL     4      -7.489   8.543  71.856  1.00  0.00    -0.095 C  
HETATM   18  O   UNL     4      -6.379   9.087  71.586  1.00  0.00    -0.079 OA 
HETATM   19  O   UNL     4      -8.417   8.888  72.681  1.00  0.00    -0.388 OA 
ENDBRANCH  11  16
ENDBRANCH  10  11
ENDBRANCH   9  10
ENDBRANCH   8   9
BRANCH   8  20
HETATM   20  C   UNL     4      -6.639   7.939  67.988  1.00  0.00    -0.056 C  
HETATM   21  C   UNL     4      -5.878   9.113  67.257  1.00  0.00    -0.046 C  
HETATM   22  O   UNL     4      -5.531  10.066  68.016  1.00  0.00    -0.039 OA 
HETATM   23  O   UNL     4      -5.679   9.008  65.998  1.00  0.00    -0.048 OA 
ENDBRANCH   8  20
ENDBRANCH   7   8
TORSDOF 7
ENDMDL
MODEL      432
REMARK 921   NORMALIZED FREE ENERGY PREDICTED BY IDOCK:   -1.82 KCAL/MOL
REMARK 922        TOTAL FREE ENERGY PREDICTED BY IDOCK:   -4.00 KCAL/MOL
REMARK 923 INTER-LIGAND FREE ENERGY PREDICTED BY IDOCK:   -4.99 KCAL/MOL
REMARK 924 INTRA-LIGAND FREE ENERGY PREDICTED BY IDOCK:    0.99 KCAL/MOL
REMARK 927      BINDING AFFINITY PREDICTED BY RF-SCORE:    0.00 PKD
ROOT
HETATM    1 NA   UNL     1      -9.371   8.540  64.361  1.00  0.00    -0.406 Na 
HETATM    2 NA   UNL     2     -11.358   6.416  67.936  1.00  0.00    -0.242 Na 
HETATM    3 CA   UNL     3     -13.425  12.232  64.041  1.00  0.00    -0.647 Ca 
HETATM    4  O   UNL     4      -9.360   9.151  66.315  1.00  0.00    -0.180 OA 
HETATM    5  C   UNL     4     -10.302   9.241  67.155  1.00  0.00    -0.260 C  
HETATM    6  O   UNL     4     -11.093   8.267  67.399  1.00  0.00     0.014 OA 
HETATM    7  C   UNL     4     -10.575  10.532  67.952  1.00  0.00    -0.232 C  
ENDROOT
BRANCH   7   8
HETATM    8  N   UNL     4     -10.020  11.820  67.452  1.00  0.00    -0.184 NA 
BRANCH   8   9
HETATM    9  C   UNL     4      -8.986  11.804  66.412  1.00  0.00    -0.201 C  
BRANCH   9  10
HETATM   10  C   UNL     4      -7.570  12.214  66.819  1.00  0.00     0.055 C  
BRANCH  10  11
HETATM   11  N   UNL     4      -7.377  12.342  68.286  1.00  0.00    -0.100 NA 
BRANCH  11  12
HETATM   12  C   UNL     4      -6.110  11.721  68.788  1.00  0.00    -0.050 C  
HETATM   13  O   UNL     4      -5.836  11.026  71.088  1.00  0.00    -0.348 OA 
HETATM   14  O   UNL     4      -7.597  10.204  69.841  1.00  0.00    -0.152 OA 
HETATM   15  C   UNL     4      -6.504  10.857  70.039  1.00  0.00    -0.151 C  
ENDBRANCH  11  12
BRANCH  11  16
HETATM   16  C   UNL     4      -7.412  13.798  68.677  1.00  0.00    -0.116 C  
HETATM   17  C   UNL     4      -5.950  14.316  68.533  1.00  0.00    -0.093 C  
HETATM   18  O   UNL     4      -5.395  14.672  69.611  1.00  0.00    -0.092 OA 
HETATM   19  O   UNL     4      -5.446  14.019  67.384  1.00  0.00    -0.342 OA 
ENDBRANCH  11  16
ENDBRANCH  10  11
ENDBRANCH   9  10
ENDBRANCH   8   9
BRANCH   8  20
HETATM   20  C   UNL     4     -11.185  12.635  66.912  1.00  0.00    -0.300 C  
HETATM   21  C   UNL     4     -11.867  13.616  67.943  1.00  0.00    -0.366 C  
HETATM   22  O   UNL     4     -12.275  14.705  67.440  1.00  0.00    -0.289 OA 
HETATM   23  O   UNL     4     -11.951  13.242  69.163  1.00  0.00    -0.309 OA 
ENDBRANCH   8  20
ENDBRANCH   7   8
TORSDOF 7
ENDMDL
MODEL      433
REMARK 921   NORMALIZED FREE ENERGY PREDICTED BY IDOCK:   -1.80 KCAL/MOL
REMARK 922        TOTAL FREE ENERGY PREDICTED BY IDOCK:   -3.98 KCAL/MOL
REMARK 923 INTER-LIGAND FREE ENERGY PREDICTED BY IDOCK:   -3.80 KCAL/MOL
REMARK 924 INTRA-LIGAND FREE ENERGY PREDICTED BY IDOCK:   -0.17 KCAL/MOL
REMARK 927      BINDING AFFINITY PREDICTED BY RF-SCORE:    0.00 PKD
ROOT
HETATM    1 NA   UNL     1     -11.638   5.511  67.689  1.00  0.00    -0.305 Na 
HETATM    2 NA   UNL     2      -9.612   5.422  63.551  1.00  0.00    -0.356 Na 
HETATM    3 CA   UNL     3      -7.178   3.449  70.142  1.00  0.00    -0.037 Ca 
HETATM    4  O   UNL     4     -10.267   6.846  66.963  1.00  0.00    -0.200 OA 
HETATM    5  C   UNL     4      -9.162   6.655  66.376  1.00  0.00    -0.151 C  
HETATM    6  O   UNL     4      -9.056   5.894  65.354  1.00  0.00    -0.075 OA 
HETATM    7  C   UNL     4      -7.853   7.321  66.846  1.00  0.00    -0.111 C  
ENDROOT
BRANCH   7   8
HETATM    8  N   UNL     4      -7.772   7.854  68.234  1.00  0.00    -0.119 NA 
BRANCH   8   9
HETATM    9  C   UNL     4      -7.021   7.109  69.249  1.00  0.00    -0.070 C  
BRANCH   9  10
HETATM   10  C   UNL     4      -7.792   6.091  70.091  1.00  0.00    -0.101 C  
BRANCH  10  11
HETATM   11  N   UNL     4      -9.132   6.560  70.526  1.00  0.00    -0.152 NA 
BRANCH  11  12
HETATM   12  C   UNL     4     -10.221   5.551  70.329  1.00  0.00    -0.255 C  
HETATM   13  O   UNL     4      -9.757   3.212  69.927  1.00  0.00    -0.124 OA 
HETATM   14  O   UNL     4      -8.900   4.247  71.805  1.00  0.00    -0.111 OA 
HETATM   15  C   UNL     4      -9.618   4.160  70.737  1.00  0.00    -0.190 C  
ENDBRANCH  11  12
BRANCH  11  16
HETATM   16  C   UNL     4      -9.081   6.967  71.978  1.00  0.00    -0.136 C  
HETATM   17  C   UNL     4      -8.867   8.509  71.984  1.00  0.00    -0.216 C  
HETATM   18  O   UNL     4      -7.767   8.899  72.471  1.00  0.00    -0.362 OA 
HETATM   19  O   UNL     4      -9.714   9.115  71.224  1.00  0.00    -0.283 OA 
ENDBRANCH  11  16
ENDBRANCH  10  11
ENDBRANCH   9  10
ENDBRANCH   8   9
BRANCH   8  20
HETATM   20  C   UNL     4      -7.155   9.242  68.149  1.00  0.00    -0.077 C  
HETATM   21  C   UNL     4      -8.156  10.447  68.345  1.00  0.00    -0.112 C  
HETATM   22  O   UNL     4      -7.666  11.443  68.955  1.00  0.00    -0.125 OA 
HETATM   23  O   UNL     4      -9.343  10.322  67.885  1.00  0.00    -0.137 OA 
ENDBRANCH   8  20
ENDBRANCH   7   8
TORSDOF 7
ENDMDL
MODEL      434
REMARK 921   NORMALIZED FREE ENERGY PREDICTED BY IDOCK:   -1.79 KCAL/MOL
REMARK 922        TOTAL FREE ENERGY PREDICTED BY IDOCK:   -3.97 KCAL/MOL
REMARK 923 INTER-LIGAND FREE ENERGY PREDICTED BY IDOCK:   -4.28 KCAL/MOL
REMARK 924 INTRA-LIGAND FREE ENERGY PREDICTED BY IDOCK:    0.31 KCAL/MOL
REMARK 927      BINDING AFFINITY PREDICTED BY RF-SCORE:    0.00 PKD
ROOT
HETATM    1 NA   UNL     1      -9.248  10.456  64.883  1.00  0.00    -0.153 Na 
HETATM    2 NA   UNL     2      -6.102   7.360  63.557  1.00  0.00    -0.041 Na 
HETATM    3 CA   UNL     3     -12.225   6.627  67.461  1.00  0.00    -0.610 Ca 
HETATM    4  O   UNL     4      -7.755   9.653  66.029  1.00  0.00    -0.099 OA 
HETATM    5  C   UNL     4      -7.386   8.451  66.177  1.00  0.00    -0.084 C  
HETATM    6  O   UNL     4      -7.115   7.694  65.183  1.00  0.00    -0.057 OA 
HETATM    7  C   UNL     4      -7.233   7.801  67.567  1.00  0.00    -0.091 C  
ENDROOT
BRANCH   7   8
HETATM    8  N   UNL     4      -7.918   8.423  68.734  1.00  0.00    -0.118 NA 
BRANCH   8   9
HETATM    9  C   UNL     4      -9.336   8.139  68.972  1.00  0.00    -0.147 C  
BRANCH   9  10
HETATM   10  C   UNL     4      -9.957   8.681  70.261  1.00  0.00    -0.186 C  
BRANCH  10  11
HETATM   11  N   UNL     4     -10.368   7.626  71.221  1.00  0.00    -0.199 NA 
BRANCH  11  12
HETATM   12  C   UNL     4     -10.354   8.069  72.652  1.00  0.00    -0.329 C  
HETATM   13  O   UNL     4     -10.426   6.500  74.491  1.00  0.00    -0.275 OA 
HETATM   14  O   UNL     4      -8.772   6.319  72.890  1.00  0.00    -0.126 OA 
HETATM   15  C   UNL     4      -9.775   6.869  73.484  1.00  0.00    -0.220 C  
ENDBRANCH  11  12
BRANCH  11  16
HETATM   16  C   UNL     4     -11.745   7.123  70.865  1.00  0.00    -0.328 C  
HETATM   17  C   UNL     4     -12.741   8.210  71.367  1.00  0.00    -0.268 C  
HETATM   18  O   UNL     4     -13.517   7.842  72.296  1.00  0.00    -0.122 OA 
HETATM   19  O   UNL     4     -12.413   9.388  70.961  1.00  0.00    -0.297 OA 
ENDBRANCH  11  16
ENDBRANCH  10  11
ENDBRANCH   9  10
ENDBRANCH   8   9
BRANCH   8  20
HETATM   20  C   UNL     4      -7.160   7.997  69.982  1.00  0.00    -0.049 C  
HETATM   21  C   UNL     4      -6.756   9.163  70.966  1.00  0.00    -0.093 C  
HETATM   22  O   UNL     4      -6.797   8.852  72.194  1.00  0.00    -0.252 OA 
HETATM   23  O   UNL     4      -6.429  10.291  70.459  1.00  0.00    -0.135 OA 
ENDBRANCH   8  20
ENDBRANCH   7   8
TORSDOF 7
ENDMDL
MODEL      435
REMARK 921   NORMALIZED FREE ENERGY PREDICTED BY IDOCK:   -1.77 KCAL/MOL
REMARK 922        TOTAL FREE ENERGY PREDICTED BY IDOCK:   -3.93 KCAL/MOL
REMARK 923 INTER-LIGAND FREE ENERGY PREDICTED BY IDOCK:   -3.57 KCAL/MOL
REMARK 924 INTRA-LIGAND FREE ENERGY PREDICTED BY IDOCK:   -0.37 KCAL/MOL
REMARK 927      BINDING AFFINITY PREDICTED BY RF-SCORE:    0.00 PKD
ROOT
HETATM    1 NA   UNL     1      -8.114   4.571  64.136  1.00  0.00    -0.080 Na 
HETATM    2 NA   UNL     2      -7.140   1.737  67.636  1.00  0.00    -0.035 Na 
HETATM    3 CA   UNL     3     -12.221   6.927  66.920  1.00  0.00    -0.630 Ca 
HETATM    4  O   UNL     4      -7.079   5.033  65.840  1.00  0.00    -0.065 OA 
HETATM    5  C   UNL     4      -7.341   4.791  67.054  1.00  0.00    -0.081 C  
HETATM    6  O   UNL     4      -7.621   3.614  67.468  1.00  0.00    -0.069 OA 
HETATM    7  C   UNL     4      -7.345   5.892  68.132  1.00  0.00    -0.081 C  
ENDROOT
BRANCH   7   8
HETATM    8  N   UNL     4      -7.464   7.315  67.710  1.00  0.00    -0.099 NA 
BRANCH   8   9
HETATM    9  C   UNL     4      -8.756   7.998  67.834  1.00  0.00    -0.128 C  
BRANCH   9  10
HETATM   10  C   UNL     4      -8.740   9.523  67.953  1.00  0.00    -0.119 C  
BRANCH  10  11
HETATM   11  N   UNL     4     -10.020  10.171  67.572  1.00  0.00    -0.183 NA 
BRANCH  11  12
HETATM   12  C   UNL     4     -10.385   9.993  66.131  1.00  0.00    -0.155 C  
HETATM   13  O   UNL     4     -11.348  11.777  64.813  1.00  0.00    -0.308 OA 
HETATM   14  O   UNL     4      -9.333  12.105  65.891  1.00  0.00    -0.217 OA 
HETATM   15  C   UNL     4     -10.348  11.423  65.483  1.00  0.00    -0.266 C  
ENDBRANCH  11  12
BRANCH  11  16
HETATM   16  C   UNL     4     -11.134   9.642  68.441  1.00  0.00    -0.037 C  
HETATM   17  C   UNL     4     -11.107  10.498  69.741  1.00  0.00    -0.295 C  
HETATM   18  O   UNL     4     -10.813   9.867  70.796  1.00  0.00    -0.309 OA 
HETATM   19  O   UNL     4     -11.099  11.762  69.485  1.00  0.00    -0.218 OA 
ENDBRANCH  11  16
ENDBRANCH  10  11
ENDBRANCH   9  10
ENDBRANCH   8   9
BRANCH   8  20
HETATM   20  C   UNL     4      -6.457   8.114  68.523  1.00  0.00    -0.054 C  
HETATM   21  C   UNL     4      -6.436   7.809  70.072  1.00  0.00    -0.034 C  
HETATM   22  O   UNL     4      -5.286   7.865  70.602  1.00  0.00    -0.023 OA 
HETATM   23  O   UNL     4      -7.546   7.540  70.647  1.00  0.00    -0.082 OA 
ENDBRANCH   8  20
ENDBRANCH   7   8
TORSDOF 7
ENDMDL
MODEL      436
REMARK 921   NORMALIZED FREE ENERGY PREDICTED BY IDOCK:   -1.74 KCAL/MOL
REMARK 922        TOTAL FREE ENERGY PREDICTED BY IDOCK:   -3.89 KCAL/MOL
REMARK 923 INTER-LIGAND FREE ENERGY PREDICTED BY IDOCK:   -3.53 KCAL/MOL
REMARK 924 INTRA-LIGAND FREE ENERGY PREDICTED BY IDOCK:   -0.36 KCAL/MOL
REMARK 927      BINDING AFFINITY PREDICTED BY RF-SCORE:    0.00 PKD
ROOT
HETATM    1 NA   UNL     1     -11.407  10.334  67.080  1.00  0.00    -0.272 Na 
HETATM    2 NA   UNL     2      -8.493   9.254  63.678  1.00  0.00    -0.132 Na 
HETATM    3 CA   UNL     3     -11.610   5.132  68.830  1.00  0.00     0.053 Ca 
HETATM    4  O   UNL     4      -9.393  10.006  67.244  1.00  0.00    -0.146 OA 
HETATM    5  C   UNL     4      -8.670   9.076  66.783  1.00  0.00    -0.123 C  
HETATM    6  O   UNL     4      -8.686   8.750  65.547  1.00  0.00    -0.166 OA 
HETATM    7  C   UNL     4      -7.712   8.258  67.671  1.00  0.00    -0.099 C  
ENDROOT
BRANCH   7   8
HETATM    8  N   UNL     4      -7.925   8.249  69.146  1.00  0.00    -0.110 NA 
BRANCH   8   9
HETATM    9  C   UNL     4      -9.291   8.194  69.676  1.00  0.00    -0.159 C  
BRANCH   9  10
HETATM   10  C   UNL     4      -9.508   8.663  71.116  1.00  0.00    -0.215 C  
BRANCH  10  11
HETATM   11  N   UNL     4     -10.685   8.046  71.779  1.00  0.00    -0.230 NA 
BRANCH  11  12
HETATM   12  C   UNL     4     -11.930   8.065  70.947  1.00  0.00    -0.189 C  
HETATM   13  O   UNL     4     -14.135   7.855  71.917  1.00  0.00    -0.379 OA 
HETATM   14  O   UNL     4     -12.712   9.521  72.648  1.00  0.00    -0.223 OA 
HETATM   15  C   UNL     4     -13.088   8.547  71.891  1.00  0.00    -0.362 C  
ENDBRANCH  11  12
BRANCH  11  16
HETATM   16  C   UNL     4     -10.362   6.624  72.166  1.00  0.00    -0.200 C  
HETATM   17  C   UNL     4      -9.734   6.700  73.590  1.00  0.00    -0.203 C  
HETATM   18  O   UNL     4      -8.522   6.347  73.664  1.00  0.00    -0.122 OA 
HETATM   19  O   UNL     4     -10.463   7.387  74.401  1.00  0.00     0.066 OA 
ENDBRANCH  11  16
ENDBRANCH  10  11
ENDBRANCH   9  10
ENDBRANCH   8   9
BRANCH   8  20
HETATM   20  C   UNL     4      -7.180   7.047  69.703  1.00  0.00    -0.080 C  
HETATM   21  C   UNL     4      -7.774   5.636  69.317  1.00  0.00    -0.088 C  
HETATM   22  O   UNL     4      -6.905   4.733  69.135  1.00  0.00    -0.048 OA 
HETATM   23  O   UNL     4      -9.045   5.525  69.224  1.00  0.00    -0.110 OA 
ENDBRANCH   8  20
ENDBRANCH   7   8
TORSDOF 7
ENDMDL
MODEL      437
REMARK 921   NORMALIZED FREE ENERGY PREDICTED BY IDOCK:   -1.71 KCAL/MOL
REMARK 922        TOTAL FREE ENERGY PREDICTED BY IDOCK:   -3.85 KCAL/MOL
REMARK 923 INTER-LIGAND FREE ENERGY PREDICTED BY IDOCK:   -4.41 KCAL/MOL
REMARK 924 INTRA-LIGAND FREE ENERGY PREDICTED BY IDOCK:    0.56 KCAL/MOL
REMARK 927      BINDING AFFINITY PREDICTED BY RF-SCORE:    0.00 PKD
ROOT
HETATM    1 NA   UNL     1      -7.438   6.088  70.967  1.00  0.00    -0.070 Na 
HETATM    2 NA   UNL     2      -6.065   9.534  73.701  1.00  0.00    -0.101 Na 
HETATM    3 CA   UNL     3     -12.092   8.700  69.671  1.00  0.00    -0.450 Ca 
HETATM    4  O   UNL     4      -6.616   7.869  70.381  1.00  0.00    -0.037 OA 
HETATM    5  C   UNL     4      -6.883   9.055  70.733  1.00  0.00    -0.075 C  
HETATM    6  O   UNL     4      -6.927   9.407  71.961  1.00  0.00    -0.296 OA 
HETATM    7  C   UNL     4      -7.179  10.171  69.712  1.00  0.00    -0.141 C  
ENDROOT
BRANCH   7   8
HETATM    8  N   UNL     4      -7.577   9.796  68.327  1.00  0.00    -0.081 NA 
BRANCH   8   9
HETATM    9  C   UNL     4      -8.676  10.513  67.674  1.00  0.00    -0.121 C  
BRANCH   9  10
HETATM   10  C   UNL     4      -8.819  12.006  67.971  1.00  0.00    -0.179 C  
BRANCH  10  11
HETATM   11  N   UNL     4      -9.808  12.701  67.109  1.00  0.00    -0.209 NA 
BRANCH  11  12
HETATM   12  C   UNL     4     -11.102  11.962  66.954  1.00  0.00    -0.305 C  
HETATM   13  O   UNL     4     -12.273  10.998  68.838  1.00  0.00    -0.519 OA 
HETATM   14  O   UNL     4     -11.742  13.245  68.843  1.00  0.00    -0.285 OA 
HETATM   15  C   UNL     4     -11.841  12.064  68.336  1.00  0.00    -0.300 C  
ENDBRANCH  11  12
BRANCH  11  16
HETATM   16  C   UNL     4     -10.080  14.079  67.658  1.00  0.00    -0.241 C  
HETATM   17  C   UNL     4      -9.459  15.077  66.637  1.00  0.00    -0.266 C  
HETATM   18  O   UNL     4      -8.490  15.763  67.074  1.00  0.00    -0.182 OA 
HETATM   19  O   UNL     4      -9.839  14.830  65.430  1.00  0.00    -0.345 OA 
ENDBRANCH  11  16
ENDBRANCH  10  11
ENDBRANCH   9  10
ENDBRANCH   8   9
BRANCH   8  20
HETATM   20  C   UNL     4      -6.349   9.959  67.444  1.00  0.00    -0.067 C  
HETATM   21  C   UNL     4      -5.956   8.698  66.581  1.00  0.00    -0.053 C  
HETATM   22  O   UNL     4      -5.484   8.970  65.437  1.00  0.00    -0.038 OA 
HETATM   23  O   UNL     4      -6.139   7.540  67.093  1.00  0.00    -0.047 OA 
ENDBRANCH   8  20
ENDBRANCH   7   8
TORSDOF 7
ENDMDL
MODEL      438
REMARK 921   NORMALIZED FREE ENERGY PREDICTED BY IDOCK:   -1.59 KCAL/MOL
REMARK 922        TOTAL FREE ENERGY PREDICTED BY IDOCK:   -3.68 KCAL/MOL
REMARK 923 INTER-LIGAND FREE ENERGY PREDICTED BY IDOCK:   -3.10 KCAL/MOL
REMARK 924 INTRA-LIGAND FREE ENERGY PREDICTED BY IDOCK:   -0.59 KCAL/MOL
REMARK 927      BINDING AFFINITY PREDICTED BY RF-SCORE:    0.00 PKD
ROOT
HETATM    1 NA   UNL     1      -9.716   6.075  62.360  1.00  0.00    -0.350 Na 
HETATM    2 NA   UNL     2     -11.903   2.019  62.411  1.00  0.00    -0.192 Na 
HETATM    3 CA   UNL     3     -11.847   7.515  67.213  1.00  0.00    -0.479 Ca 
HETATM    4  O   UNL     4      -9.183   4.405  63.415  1.00  0.00    -0.145 OA 
HETATM    5  C   UNL     4      -9.876   3.633  64.141  1.00  0.00    -0.181 C  
HETATM    6  O   UNL     4     -10.962   3.100  63.725  1.00  0.00    -0.249 OA 
HETATM    7  C   UNL     4      -9.470   3.271  65.583  1.00  0.00    -0.096 C  
ENDROOT
BRANCH   7   8
HETATM    8  N   UNL     4      -8.499   4.145  66.300  1.00  0.00    -0.108 NA 
BRANCH   8   9
HETATM    9  C   UNL     4      -8.507   5.589  66.048  1.00  0.00    -0.126 C  
BRANCH   9  10
HETATM   10  C   UNL     4      -7.448   6.434  66.758  1.00  0.00    -0.087 C  
BRANCH  10  11
HETATM   11  N   UNL     4      -7.293   7.800  66.198  1.00  0.00    -0.077 NA 
BRANCH  11  12
HETATM   12  C   UNL     4      -7.191   8.874  67.237  1.00  0.00    -0.083 C  
HETATM   13  O   UNL     4      -8.033  11.111  66.870  1.00  0.00    -0.137 OA 
HETATM   14  O   UNL     4      -9.441   9.298  66.623  1.00  0.00    -0.166 OA 
HETATM   15  C   UNL     4      -8.343   9.897  66.934  1.00  0.00    -0.124 C  
ENDBRANCH  11  12
BRANCH  11  16
HETATM   16  C   UNL     4      -6.077   7.848  65.306  1.00  0.00    -0.038 C  
HETATM   17  C   UNL     4      -6.615   7.812  63.845  1.00  0.00    -0.061 C  
HETATM   18  O   UNL     4      -6.304   6.782  63.181  1.00  0.00    -0.041 OA 
HETATM   19  O   UNL     4      -7.533   8.696  63.649  1.00  0.00    -0.101 OA 
ENDBRANCH  11  16
ENDBRANCH  10  11
ENDBRANCH   9  10
ENDBRANCH   8   9
BRANCH   8  20
HETATM   20  C   UNL     4      -8.730   3.949  67.790  1.00  0.00    -0.103 C  
HETATM   21  C   UNL     4      -7.888   2.797  68.466  1.00  0.00    -0.054 C  
HETATM   22  O   UNL     4      -7.517   3.045  69.652  1.00  0.00    -0.044 OA 
HETATM   23  O   UNL     4      -7.658   1.741  67.782  1.00  0.00    -0.053 OA 
ENDBRANCH   8  20
ENDBRANCH   7   8
TORSDOF 7
ENDMDL
MODEL      439
REMARK 921   NORMALIZED FREE ENERGY PREDICTED BY IDOCK:   -1.53 KCAL/MOL
REMARK 922        TOTAL FREE ENERGY PREDICTED BY IDOCK:   -3.59 KCAL/MOL
REMARK 923 INTER-LIGAND FREE ENERGY PREDICTED BY IDOCK:   -5.20 KCAL/MOL
REMARK 924 INTRA-LIGAND FREE ENERGY PREDICTED BY IDOCK:    1.61 KCAL/MOL
REMARK 927      BINDING AFFINITY PREDICTED BY RF-SCORE:    0.00 PKD
ROOT
HETATM    1 NA   UNL     1     -10.084   8.883  64.485  1.00  0.00    -0.323 Na 
HETATM    2 NA   UNL     2      -5.677   7.534  64.452  1.00  0.00    -0.032 Na 
HETATM    3 CA   UNL     3     -10.236   8.940  69.975  1.00  0.00    -0.173 Ca 
HETATM    4  O   UNL     4      -8.437  10.055  64.807  1.00  0.00    -0.153 OA 
HETATM    5  C   UNL     4      -7.425   9.870  65.545  1.00  0.00    -0.126 C  
HETATM    6  O   UNL     4      -6.730   8.798  65.490  1.00  0.00    -0.069 OA 
HETATM    7  C   UNL     4      -6.949  10.918  66.570  1.00  0.00    -0.139 C  
ENDROOT
BRANCH   7   8
HETATM    8  N   UNL     4      -7.900  11.973  67.018  1.00  0.00    -0.158 NA 
BRANCH   8   9
HETATM    9  C   UNL     4      -9.285  11.608  67.332  1.00  0.00    -0.168 C  
BRANCH   9  10
HETATM   10  C   UNL     4     -10.372  12.067  66.359  1.00  0.00    -0.216 C  
BRANCH  10  11
HETATM   11  N   UNL     4     -10.152  13.427  65.805  1.00  0.00    -0.294 NA 
BRANCH  11  12
HETATM   12  C   UNL     4     -11.114  13.803  64.721  1.00  0.00    -0.377 C  
HETATM   13  O   UNL     4     -13.159  12.575  64.324  1.00  0.00    -0.759 OA 
HETATM   14  O   UNL     4     -12.734  13.453  66.417  1.00  0.00    -0.232 OA 
HETATM   15  C   UNL     4     -12.518  13.255  65.161  1.00  0.00    -0.470 C  
ENDBRANCH  11  12
BRANCH  11  16
HETATM   16  C   UNL     4     -10.224  14.444  66.916  1.00  0.00    -0.265 C  
HETATM   17  C   UNL     4      -9.212  15.566  66.536  1.00  0.00    -0.293 C  
HETATM   18  O   UNL     4      -8.226  15.689  67.317  1.00  0.00    -0.160 OA 
HETATM   19  O   UNL     4      -9.391  15.986  65.330  1.00  0.00    -0.339 OA 
ENDBRANCH  11  16
ENDBRANCH  10  11
ENDBRANCH   9  10
ENDBRANCH   8   9
BRANCH   8  20
HETATM   20  C   UNL     4      -7.311  12.610  68.267  1.00  0.00    -0.116 C  
HETATM   21  C   UNL     4      -6.771  11.604  69.357  1.00  0.00    -0.110 C  
HETATM   22  O   UNL     4      -5.740  12.003  69.975  1.00  0.00    -0.108 OA 
HETATM   23  O   UNL     4      -7.402  10.504  69.523  1.00  0.00    -0.120 OA 
ENDBRANCH   8  20
ENDBRANCH   7   8
TORSDOF 7
ENDMDL
MODEL      440
REMARK 921   NORMALIZED FREE ENERGY PREDICTED BY IDOCK:   -1.38 KCAL/MOL
REMARK 922        TOTAL FREE ENERGY PREDICTED BY IDOCK:   -3.39 KCAL/MOL
REMARK 923 INTER-LIGAND FREE ENERGY PREDICTED BY IDOCK:   -3.75 KCAL/MOL
REMARK 924 INTRA-LIGAND FREE ENERGY PREDICTED BY IDOCK:    0.36 KCAL/MOL
REMARK 927      BINDING AFFINITY PREDICTED BY RF-SCORE:    0.00 PKD
ROOT
HETATM    1 NA   UNL     1     -10.369  10.607  71.085  1.00  0.00    -0.294 Na 
HETATM    2 NA   UNL     2      -5.813  10.969  71.671  1.00  0.00    -0.064 Na 
HETATM    3 CA   UNL     3     -10.355  14.352  67.068  1.00  0.00    -0.243 Ca 
HETATM    4  O   UNL     4      -8.910   9.772  69.918  1.00  0.00    -0.201 OA 
HETATM    5  C   UNL     4      -7.859  10.277  69.426  1.00  0.00    -0.157 C  
HETATM    6  O   UNL     4      -7.011  10.915  70.140  1.00  0.00    -0.174 OA 
HETATM    7  C   UNL     4      -7.515  10.168  67.928  1.00  0.00    -0.088 C  
ENDROOT
BRANCH   7   8
HETATM    8  N   UNL     4      -8.600   9.845  66.959  1.00  0.00    -0.128 NA 
BRANCH   8   9
HETATM    9  C   UNL     4      -9.536   8.758  67.262  1.00  0.00    -0.165 C  
BRANCH   9  10
HETATM   10  C   UNL     4      -9.442   7.490  66.412  1.00  0.00    -0.147 C  
BRANCH  10  11
HETATM   11  N   UNL     4      -9.137   6.263  67.191  1.00  0.00    -0.118 NA 
BRANCH  11  12
HETATM   12  C   UNL     4      -7.817   5.643  66.853  1.00  0.00    -0.101 C  
HETATM   13  O   UNL     4      -7.457   3.252  66.922  1.00  0.00    -0.073 OA 
HETATM   14  O   UNL     4      -9.159   4.121  65.626  1.00  0.00    -0.124 OA 
HETATM   15  C   UNL     4      -8.122   4.174  66.389  1.00  0.00    -0.098 C  
ENDBRANCH  11  12
BRANCH  11  16
HETATM   16  C   UNL     4      -9.181   6.575  68.666  1.00  0.00    -0.127 C  
HETATM   17  C   UNL     4     -10.462   5.879  69.213  1.00  0.00    -0.274 C  
HETATM   18  O   UNL     4     -11.358   6.660  69.646  1.00  0.00    -0.335 OA 
HETATM   19  O   UNL     4     -10.522   4.639  68.864  1.00  0.00     0.048 OA 
ENDBRANCH  11  16
ENDBRANCH  10  11
ENDBRANCH   9  10
ENDBRANCH   8   9
BRANCH   8  20
HETATM   20  C   UNL     4      -9.427  11.108  66.771  1.00  0.00    -0.184 C  
HETATM   21  C   UNL     4     -10.751  11.191  67.627  1.00  0.00    -0.230 C  
HETATM   22  O   UNL     4     -11.041  12.355  68.033  1.00  0.00    -0.219 OA 
HETATM   23  O   UNL     4     -11.402  10.109  67.832  1.00  0.00    -0.252 OA 
ENDBRANCH   8  20
ENDBRANCH   7   8
TORSDOF 7
ENDMDL
MODEL      441
REMARK 921   NORMALIZED FREE ENERGY PREDICTED BY IDOCK:   -1.37 KCAL/MOL
REMARK 922        TOTAL FREE ENERGY PREDICTED BY IDOCK:   -3.37 KCAL/MOL
REMARK 923 INTER-LIGAND FREE ENERGY PREDICTED BY IDOCK:   -3.63 KCAL/MOL
REMARK 924 INTRA-LIGAND FREE ENERGY PREDICTED BY IDOCK:    0.26 KCAL/MOL
REMARK 927      BINDING AFFINITY PREDICTED BY RF-SCORE:    0.00 PKD
ROOT
HETATM    1 NA   UNL     1     -11.998   6.149  68.969  1.00  0.00    -0.382 Na 
HETATM    2 NA   UNL     2     -12.007   5.029  64.499  1.00  0.00    -0.557 Na 
HETATM    3 CA   UNL     3      -8.618   2.001  70.209  1.00  0.00    -0.046 Ca 
HETATM    4  O   UNL     4     -10.533   6.551  67.598  1.00  0.00    -0.173 OA 
HETATM    5  C   UNL     4      -9.983   5.805  66.737  1.00  0.00    -0.175 C  
HETATM    6  O   UNL     4     -10.662   5.114  65.901  1.00  0.00    -0.217 OA 
HETATM    7  C   UNL     4      -8.452   5.664  66.623  1.00  0.00    -0.113 C  
ENDROOT
BRANCH   7   8
HETATM    8  N   UNL     4      -7.603   6.059  67.781  1.00  0.00    -0.095 NA 
BRANCH   8   9
HETATM    9  C   UNL     4      -8.210   6.185  69.110  1.00  0.00    -0.113 C  
BRANCH   9  10
HETATM   10  C   UNL     4      -7.709   7.315  70.011  1.00  0.00    -0.096 C  
BRANCH  10  11
HETATM   11  N   UNL     4      -8.162   7.208  71.421  1.00  0.00    -0.107 NA 
BRANCH  11  12
HETATM   12  C   UNL     4      -7.126   6.657  72.351  1.00  0.00    -0.073 C  
HETATM   13  O   UNL     4      -7.677   5.838  74.558  1.00  0.00    -0.097 OA 
HETATM   14  O   UNL     4      -8.747   4.963  72.709  1.00  0.00    -0.120 OA 
HETATM   15  C   UNL     4      -7.878   5.686  73.329  1.00  0.00    -0.106 C  
ENDBRANCH  11  12
BRANCH  11  16
HETATM   16  C   UNL     4      -8.610   8.561  71.913  1.00  0.00    -0.188 C  
HETATM   17  C   UNL     4     -10.155   8.599  71.720  1.00  0.00    -0.310 C  
HETATM   18  O   UNL     4     -10.573   9.447  70.881  1.00  0.00    -0.270 OA 
HETATM   19  O   UNL     4     -10.728   7.560  72.226  1.00  0.00    -0.225 OA 
ENDBRANCH  11  16
ENDBRANCH  10  11
ENDBRANCH   9  10
ENDBRANCH   8   9
BRANCH   8  20
HETATM   20  C   UNL     4      -6.487   5.033  67.894  1.00  0.00    -0.045 C  
HETATM   21  C   UNL     4      -6.801   3.781  68.803  1.00  0.00    -0.046 C  
HETATM   22  O   UNL     4      -6.296   2.694  68.393  1.00  0.00    -0.028 OA 
HETATM   23  O   UNL     4      -7.516   3.962  69.848  1.00  0.00    -0.048 OA 
ENDBRANCH   8  20
ENDBRANCH   7   8
TORSDOF 7
ENDMDL
MODEL      442
REMARK 921   NORMALIZED FREE ENERGY PREDICTED BY IDOCK:   -1.32 KCAL/MOL
REMARK 922        TOTAL FREE ENERGY PREDICTED BY IDOCK:   -3.30 KCAL/MOL
REMARK 923 INTER-LIGAND FREE ENERGY PREDICTED BY IDOCK:   -4.21 KCAL/MOL
REMARK 924 INTRA-LIGAND FREE ENERGY PREDICTED BY IDOCK:    0.91 KCAL/MOL
REMARK 927      BINDING AFFINITY PREDICTED BY RF-SCORE:    0.00 PKD
ROOT
HETATM    1 NA   UNL     1     -11.781   6.129  68.906  1.00  0.00    -0.344 Na 
HETATM    2 NA   UNL     2     -13.097   5.333  73.250  1.00  0.00    -0.567 Na 
HETATM    3 CA   UNL     3      -9.327  10.841  70.297  1.00  0.00    -0.377 Ca 
HETATM    4  O   UNL     4     -10.619   5.410  70.429  1.00  0.00    -0.280 OA 
HETATM    5  C   UNL     4     -10.484   5.811  71.622  1.00  0.00    -0.231 C  
HETATM    6  O   UNL     4     -11.485   6.006  72.393  1.00  0.00    -0.288 OA 
HETATM    7  C   UNL     4      -9.103   6.100  72.243  1.00  0.00    -0.137 C  
ENDROOT
BRANCH   7   8
HETATM    8  N   UNL     4      -7.939   6.326  71.341  1.00  0.00    -0.108 NA 
BRANCH   8   9
HETATM    9  C   UNL     4      -7.984   7.422  70.368  1.00  0.00    -0.103 C  
BRANCH   9  10
HETATM   10  C   UNL     4      -7.415   7.152  68.974  1.00  0.00    -0.094 C  
BRANCH  10  11
HETATM   11  N   UNL     4      -8.097   7.900  67.889  1.00  0.00    -0.127 NA 
BRANCH  11  12
HETATM   12  C   UNL     4      -9.254   8.729  68.358  1.00  0.00    -0.137 C  
HETATM   13  O   UNL     4     -10.936   9.575  66.840  1.00  0.00    -0.093 OA 
HETATM   14  O   UNL     4     -10.496   7.309  66.920  1.00  0.00    -0.291 OA 
HETATM   15  C   UNL     4     -10.396   8.538  67.297  1.00  0.00    -0.302 C  
ENDBRANCH  11  12
BRANCH  11  16
HETATM   16  C   UNL     4      -7.102   8.784  67.179  1.00  0.00    -0.075 C  
HETATM   17  C   UNL     4      -7.056  10.114  67.988  1.00  0.00    -0.084 C  
HETATM   18  O   UNL     4      -7.476  11.135  67.372  1.00  0.00    -0.099 OA 
HETATM   19  O   UNL     4      -6.875   9.904  69.247  1.00  0.00    -0.052 OA 
ENDBRANCH  11  16
ENDBRANCH  10  11
ENDBRANCH   9  10
ENDBRANCH   8   9
BRANCH   8  20
HETATM   20  C   UNL     4      -6.723   6.561  72.223  1.00  0.00    -0.067 C  
HETATM   21  C   UNL     4      -6.998   7.327  73.576  1.00  0.00    -0.068 C  
HETATM   22  O   UNL     4      -6.289   6.941  74.552  1.00  0.00    -0.082 OA 
HETATM   23  O   UNL     4      -7.886   8.247  73.574  1.00  0.00    -0.201 OA 
ENDBRANCH   8  20
ENDBRANCH   7   8
TORSDOF 7
ENDMDL
MODEL      443
REMARK 921   NORMALIZED FREE ENERGY PREDICTED BY IDOCK:   -1.14 KCAL/MOL
REMARK 922        TOTAL FREE ENERGY PREDICTED BY IDOCK:   -3.05 KCAL/MOL
REMARK 923 INTER-LIGAND FREE ENERGY PREDICTED BY IDOCK:   -3.03 KCAL/MOL
REMARK 924 INTRA-LIGAND FREE ENERGY PREDICTED BY IDOCK:   -0.02 KCAL/MOL
REMARK 927      BINDING AFFINITY PREDICTED BY RF-SCORE:    0.00 PKD
ROOT
HETATM    1 NA   UNL     1      -8.329   1.968  70.979  1.00  0.00    -0.046 Na 
HETATM    2 NA   UNL     2      -5.224   3.964  73.739  1.00  0.00    -0.002 Na 
HETATM    3 CA   UNL     3     -12.492   4.562  73.450  1.00  0.00    -0.294 Ca 
HETATM    4  O   UNL     4      -7.605   3.877  70.837  1.00  0.00    -0.043 OA 
HETATM    5  C   UNL     4      -7.456   4.770  71.721  1.00  0.00    -0.079 C  
HETATM    6  O   UNL     4      -6.833   4.549  72.815  1.00  0.00    -0.053 OA 
HETATM    7  C   UNL     4      -8.015   6.197  71.554  1.00  0.00    -0.110 C  
ENDROOT
BRANCH   7   8
HETATM    8  N   UNL     4      -9.098   6.437  70.559  1.00  0.00    -0.154 NA 
BRANCH   8   9
HETATM    9  C   UNL     4      -9.666   7.781  70.422  1.00  0.00    -0.179 C  
BRANCH   9  10
HETATM   10  C   UNL     4      -8.730   8.899  69.958  1.00  0.00    -0.147 C  
BRANCH  10  11
HETATM   11  N   UNL     4      -9.143   9.542  68.685  1.00  0.00    -0.131 NA 
BRANCH  11  12
HETATM   12  C   UNL     4      -9.721  10.913  68.858  1.00  0.00    -0.187 C  
HETATM   13  O   UNL     4     -11.844  11.550  67.893  1.00  0.00    -0.565 OA 
HETATM   14  O   UNL     4     -11.721   9.715  69.288  1.00  0.00     0.135 OA 
HETATM   15  C   UNL     4     -11.275  10.765  68.689  1.00  0.00    -0.274 C  
ENDBRANCH  11  12
BRANCH  11  16
HETATM   16  C   UNL     4      -7.966   9.608  67.744  1.00  0.00    -0.105 C  
HETATM   17  C   UNL     4      -8.385   8.806  66.477  1.00  0.00    -0.112 C  
HETATM   18  O   UNL     4      -7.717   7.755  66.258  1.00  0.00    -0.085 OA 
HETATM   19  O   UNL     4      -9.531   9.186  66.025  1.00  0.00    -0.216 OA 
ENDBRANCH  11  16
ENDBRANCH  10  11
ENDBRANCH   9  10
ENDBRANCH   8   9
BRANCH   8  20
HETATM   20  C   UNL     4      -8.553   6.040  69.195  1.00  0.00    -0.117 C  
HETATM   21  C   UNL     4      -9.462   5.060  68.356  1.00  0.00    -0.134 C  
HETATM   22  O   UNL     4      -9.443   5.267  67.106  1.00  0.00    -0.118 OA 
HETATM   23  O   UNL     4     -10.123   4.165  68.987  1.00  0.00    -0.014 OA 
ENDBRANCH   8  20
ENDBRANCH   7   8
TORSDOF 7
ENDMDL
MODEL      444
REMARK 921   NORMALIZED FREE ENERGY PREDICTED BY IDOCK:   -1.03 KCAL/MOL
REMARK 922        TOTAL FREE ENERGY PREDICTED BY IDOCK:   -2.89 KCAL/MOL
REMARK 923 INTER-LIGAND FREE ENERGY PREDICTED BY IDOCK:   -3.00 KCAL/MOL
REMARK 924 INTRA-LIGAND FREE ENERGY PREDICTED BY IDOCK:    0.10 KCAL/MOL
REMARK 927      BINDING AFFINITY PREDICTED BY RF-SCORE:    0.00 PKD
ROOT
HETATM    1 NA   UNL     1      -5.522   9.522  71.919  1.00  0.00    -0.046 Na 
HETATM    2 NA   UNL     2      -5.822   5.734  74.526  1.00  0.00    -0.044 Na 
HETATM    3 CA   UNL     3      -7.214   6.822  67.445  1.00  0.00    -0.067 Ca 
HETATM    4  O   UNL     4      -7.225   8.701  72.703  1.00  0.00    -0.280 OA 
HETATM    5  C   UNL     4      -7.634   7.504  72.713  1.00  0.00    -0.088 C  
HETATM    6  O   UNL     4      -6.904   6.538  73.124  1.00  0.00    -0.072 OA 
HETATM    7  C   UNL     4      -9.043   7.110  72.228  1.00  0.00    -0.132 C  
ENDROOT
BRANCH   7   8
HETATM    8  N   UNL     4      -9.793   8.050  71.348  1.00  0.00    -0.167 NA 
BRANCH   8   9
HETATM    9  C   UNL     4      -9.617   7.971  69.895  1.00  0.00    -0.171 C  
BRANCH   9  10
HETATM   10  C   UNL     4      -8.420   8.706  69.289  1.00  0.00    -0.123 C  
BRANCH  10  11
HETATM   11  N   UNL     4      -8.793   9.824  68.386  1.00  0.00    -0.119 NA 
BRANCH  11  12
HETATM   12  C   UNL     4      -8.296  11.162  68.841  1.00  0.00    -0.099 C  
HETATM   13  O   UNL     4      -6.292  11.413  70.171  1.00  0.00    -0.148 OA 
HETATM   14  O   UNL     4      -6.196  10.312  68.144  1.00  0.00    -0.051 OA 
HETATM   15  C   UNL     4      -6.752  11.007  69.076  1.00  0.00    -0.074 C  
ENDBRANCH  11  12
BRANCH  11  16
HETATM   16  C   UNL     4      -8.281   9.546  66.995  1.00  0.00    -0.113 C  
HETATM   17  C   UNL     4      -9.526   9.135  66.155  1.00  0.00    -0.245 C  
HETATM   18  O   UNL     4      -9.522   7.943  65.733  1.00  0.00    -0.012 OA 
HETATM   19  O   UNL     4     -10.489   9.983  66.277  1.00  0.00    -0.189 OA 
ENDBRANCH  11  16
ENDBRANCH  10  11
ENDBRANCH   9  10
ENDBRANCH   8   9
BRANCH   8  20
HETATM   20  C   UNL     4     -11.274   7.849  71.631  1.00  0.00    -0.251 C  
HETATM   21  C   UNL     4     -12.211   9.061  71.251  1.00  0.00    -0.312 C  
HETATM   22  O   UNL     4     -13.352   8.725  70.814  1.00  0.00     0.148 OA 
HETATM   23  O   UNL     4     -11.756  10.245  71.412  1.00  0.00    -0.341 OA 
ENDBRANCH   8  20
ENDBRANCH   7   8
TORSDOF 7
ENDMDL
MODEL      445
REMARK 921   NORMALIZED FREE ENERGY PREDICTED BY IDOCK:   -1.03 KCAL/MOL
REMARK 922        TOTAL FREE ENERGY PREDICTED BY IDOCK:   -2.89 KCAL/MOL
REMARK 923 INTER-LIGAND FREE ENERGY PREDICTED BY IDOCK:   -2.86 KCAL/MOL
REMARK 924 INTRA-LIGAND FREE ENERGY PREDICTED BY IDOCK:   -0.02 KCAL/MOL
REMARK 927      BINDING AFFINITY PREDICTED BY RF-SCORE:    0.00 PKD
ROOT
HETATM    1 NA   UNL     1      -9.397   5.733  62.829  1.00  0.00    -0.335 Na 
HETATM    2 NA   UNL     2     -10.702   1.561  64.289  1.00  0.00    -0.276 Na 
HETATM    3 CA   UNL     3     -11.549   8.176  67.252  1.00  0.00    -0.494 Ca 
HETATM    4  O   UNL     4      -8.485   4.591  64.262  1.00  0.00    -0.108 OA 
HETATM    5  C   UNL     4      -8.970   3.966  65.250  1.00  0.00    -0.132 C  
HETATM    6  O   UNL     4      -9.942   3.144  65.125  1.00  0.00    -0.021 OA 
HETATM    7  C   UNL     4      -8.432   4.143  66.683  1.00  0.00    -0.104 C  
ENDROOT
BRANCH   7   8
HETATM    8  N   UNL     4      -7.628   5.354  67.008  1.00  0.00    -0.091 NA 
BRANCH   8   9
HETATM    9  C   UNL     4      -6.571   5.785  66.088  1.00  0.00    -0.051 C  
BRANCH   9  10
HETATM   10  C   UNL     4      -5.846   7.094  66.410  1.00  0.00    -0.035 C  
BRANCH  10  11
HETATM   11  N   UNL     4      -6.208   8.219  65.511  1.00  0.00    -0.045 NA 
BRANCH  11  12
HETATM   12  C   UNL     4      -5.365   9.442  65.702  1.00  0.00    -0.040 C  
HETATM   13  O   UNL     4      -6.307  11.571  66.355  1.00  0.00    -0.104 OA 
HETATM   14  O   UNL     4      -6.675   9.702  67.661  1.00  0.00    -0.065 OA 
HETATM   15  C   UNL     4      -6.149  10.373  66.693  1.00  0.00    -0.068 C  
ENDBRANCH  11  12
BRANCH  11  16
HETATM   16  C   UNL     4      -6.122   7.769  64.074  1.00  0.00    -0.057 C  
HETATM   17  C   UNL     4      -7.344   8.408  63.351  1.00  0.00    -0.104 C  
HETATM   18  O   UNL     4      -8.203   7.588  62.915  1.00  0.00    -0.107 OA 
HETATM   19  O   UNL     4      -7.426   9.675  63.575  1.00  0.00    -0.111 OA 
ENDBRANCH  11  16
ENDBRANCH  10  11
ENDBRANCH   9  10
ENDBRANCH   8   9
BRANCH   8  20
HETATM   20  C   UNL     4      -8.599   6.516  67.149  1.00  0.00    -0.111 C  
HETATM   21  C   UNL     4      -9.421   6.559  68.496  1.00  0.00    -0.121 C  
HETATM   22  O   UNL     4      -9.643   7.725  68.938  1.00  0.00    -0.153 OA 
HETATM   23  O   UNL     4      -9.784   5.447  69.013  1.00  0.00    -0.131 OA 
ENDBRANCH   8  20
ENDBRANCH   7   8
TORSDOF 7
ENDMDL
MODEL      446
REMARK 921   NORMALIZED FREE ENERGY PREDICTED BY IDOCK:   -0.95 KCAL/MOL
REMARK 922        TOTAL FREE ENERGY PREDICTED BY IDOCK:   -2.78 KCAL/MOL
REMARK 923 INTER-LIGAND FREE ENERGY PREDICTED BY IDOCK:   -3.76 KCAL/MOL
REMARK 924 INTRA-LIGAND FREE ENERGY PREDICTED BY IDOCK:    0.98 KCAL/MOL
REMARK 927      BINDING AFFINITY PREDICTED BY RF-SCORE:    0.00 PKD
ROOT
HETATM    1 NA   UNL     1      -9.110   9.751  65.845  1.00  0.00    -0.132 Na 
HETATM    2 NA   UNL     2      -5.186   9.447  63.449  1.00  0.00    -0.059 Na 
HETATM    3 CA   UNL     3      -7.042   6.807  69.995  1.00  0.00    -0.053 Ca 
HETATM    4  O   UNL     4      -7.400  10.835  66.144  1.00  0.00    -0.134 OA 
HETATM    5  C   UNL     4      -6.192  10.466  66.215  1.00  0.00    -0.092 C  
HETATM    6  O   UNL     4      -5.648   9.738  65.315  1.00  0.00    -0.052 OA 
HETATM    7  C   UNL     4      -5.278  10.859  67.392  1.00  0.00    -0.038 C  
ENDROOT
BRANCH   7   8
HETATM    8  N   UNL     4      -5.898  11.315  68.667  1.00  0.00    -0.043 NA 
BRANCH   8   9
HETATM    9  C   UNL     4      -7.352  11.229  68.832  1.00  0.00    -0.115 C  
BRANCH   9  10
HETATM   10  C   UNL     4      -7.914   9.958  69.472  1.00  0.00    -0.148 C  
BRANCH  10  11
HETATM   11  N   UNL     4      -9.340  10.064  69.871  1.00  0.00    -0.207 NA 
BRANCH  11  12
HETATM   12  C   UNL     4     -10.303   9.858  68.742  1.00  0.00    -0.203 C  
HETATM   13  O   UNL     4     -12.354  11.124  68.545  1.00  0.00    -0.561 OA 
HETATM   14  O   UNL     4     -10.331  12.228  68.698  1.00  0.00    -0.225 OA 
HETATM   15  C   UNL     4     -11.102  11.201  68.587  1.00  0.00    -0.239 C  
ENDBRANCH  11  12
BRANCH  11  16
HETATM   16  C   UNL     4      -9.635   9.074  70.969  1.00  0.00    -0.279 C  
HETATM   17  C   UNL     4     -10.136   7.782  70.259  1.00  0.00    -0.195 C  
HETATM   18  O   UNL     4     -11.338   7.469  70.493  1.00  0.00    -0.275 OA 
HETATM   19  O   UNL     4      -9.335   7.409  69.320  1.00  0.00    -0.154 OA 
ENDBRANCH  11  16
ENDBRANCH  10  11
ENDBRANCH   9  10
ENDBRANCH   8   9
BRANCH   8  20
HETATM   20  C   UNL     4      -5.271  10.504  69.790  1.00  0.00    -0.038 C  
HETATM   21  C   UNL     4      -5.315  11.170  71.220  1.00  0.00    -0.022 C  
HETATM   22  O   UNL     4      -5.478  10.353  72.175  1.00  0.00    -0.308 OA 
HETATM   23  O   UNL     4      -5.187  12.440  71.295  1.00  0.00    -0.189 OA 
ENDBRANCH   8  20
ENDBRANCH   7   8
TORSDOF 7
ENDMDL
MODEL      447
REMARK 921   NORMALIZED FREE ENERGY PREDICTED BY IDOCK:   -0.95 KCAL/MOL
REMARK 922        TOTAL FREE ENERGY PREDICTED BY IDOCK:   -2.78 KCAL/MOL
REMARK 923 INTER-LIGAND FREE ENERGY PREDICTED BY IDOCK:   -3.45 KCAL/MOL
REMARK 924 INTRA-LIGAND FREE ENERGY PREDICTED BY IDOCK:    0.67 KCAL/MOL
REMARK 927      BINDING AFFINITY PREDICTED BY RF-SCORE:    0.00 PKD
ROOT
HETATM    1 NA   UNL     1     -10.370  11.097  70.338  1.00  0.00    -0.429 Na 
HETATM    2 NA   UNL     2      -5.970  10.746  71.662  1.00  0.00    -0.050 Na 
HETATM    3 CA   UNL     3      -8.933  12.769  65.307  1.00  0.00    -0.423 Ca 
HETATM    4  O   UNL     4      -9.069   9.582  69.891  1.00  0.00    -0.182 OA 
HETATM    5  C   UNL     4      -7.875   9.617  69.471  1.00  0.00    -0.117 C  
HETATM    6  O   UNL     4      -6.970  10.308  70.052  1.00  0.00    -0.123 OA 
HETATM    7  C   UNL     4      -7.415   8.834  68.226  1.00  0.00    -0.092 C  
ENDROOT
BRANCH   7   8
HETATM    8  N   UNL     4      -8.437   8.366  67.249  1.00  0.00    -0.123 NA 
BRANCH   8   9
HETATM    9  C   UNL     4      -9.484   7.439  67.689  1.00  0.00    -0.136 C  
BRANCH   9  10
HETATM   10  C   UNL     4      -9.045   6.053  68.163  1.00  0.00    -0.118 C  
BRANCH  10  11
HETATM   11  N   UNL     4      -9.633   4.935  67.384  1.00  0.00    -0.143 NA 
BRANCH  11  12
HETATM   12  C   UNL     4      -9.069   4.795  66.003  1.00  0.00    -0.133 C  
HETATM   13  O   UNL     4      -9.949   3.212  64.402  1.00  0.00    -0.161 OA 
HETATM   14  O   UNL     4     -11.354   4.767  65.371  1.00  0.00    -0.026 OA 
HETATM   15  C   UNL     4     -10.220   4.213  65.109  1.00  0.00    -0.204 C  
ENDBRANCH  11  12
BRANCH  11  16
HETATM   16  C   UNL     4      -9.448   3.640  68.135  1.00  0.00    -0.156 C  
HETATM   17  C   UNL     4      -7.956   3.241  67.941  1.00  0.00    -0.075 C  
HETATM   18  O   UNL     4      -7.762   2.177  67.286  1.00  0.00    -0.063 OA 
HETATM   19  O   UNL     4      -7.158   4.214  68.224  1.00  0.00    -0.054 OA 
ENDBRANCH  11  16
ENDBRANCH  10  11
ENDBRANCH   9  10
ENDBRANCH   8   9
BRANCH   8  20
HETATM   20  C   UNL     4      -9.134   9.601  66.699  1.00  0.00    -0.148 C  
HETATM   21  C   UNL     4      -8.527  10.191  65.367  1.00  0.00    -0.156 C  
HETATM   22  O   UNL     4      -9.384  10.675  64.568  1.00  0.00    -0.206 OA 
HETATM   23  O   UNL     4      -7.259  10.136  65.209  1.00  0.00    -0.132 OA 
ENDBRANCH   8  20
ENDBRANCH   7   8
TORSDOF 7
ENDMDL
MODEL      448
REMARK 921   NORMALIZED FREE ENERGY PREDICTED BY IDOCK:   -0.95 KCAL/MOL
REMARK 922        TOTAL FREE ENERGY PREDICTED BY IDOCK:   -2.78 KCAL/MOL
REMARK 923 INTER-LIGAND FREE ENERGY PREDICTED BY IDOCK:   -2.48 KCAL/MOL
REMARK 924 INTRA-LIGAND FREE ENERGY PREDICTED BY IDOCK:   -0.30 KCAL/MOL
REMARK 927      BINDING AFFINITY PREDICTED BY RF-SCORE:    0.00 PKD
ROOT
HETATM    1 NA   UNL     1     -10.305   3.643  71.880  1.00  0.00    -0.158 Na 
HETATM    2 NA   UNL     2      -6.351   3.494  74.242  1.00  0.00    -0.017 Na 
HETATM    3 CA   UNL     3     -11.127   8.912  73.193  1.00  0.00    -0.193 Ca 
HETATM    4  O   UNL     4      -8.489   4.375  71.284  1.00  0.00    -0.094 OA 
HETATM    5  C   UNL     4      -7.646   5.090  71.901  1.00  0.00    -0.102 C  
HETATM    6  O   UNL     4      -7.210   4.780  73.062  1.00  0.00    -0.076 OA 
HETATM    7  C   UNL     4      -7.077   6.393  71.305  1.00  0.00    -0.077 C  
ENDROOT
BRANCH   7   8
HETATM    8  N   UNL     4      -7.813   7.061  70.195  1.00  0.00    -0.107 NA 
BRANCH   8   9
HETATM    9  C   UNL     4      -7.412   6.804  68.809  1.00  0.00    -0.096 C  
BRANCH   9  10
HETATM   10  C   UNL     4      -7.414   5.350  68.332  1.00  0.00    -0.073 C  
BRANCH  10  11
HETATM   11  N   UNL     4      -8.114   5.140  67.040  1.00  0.00    -0.104 NA 
BRANCH  11  12
HETATM   12  C   UNL     4      -9.574   4.841  67.181  1.00  0.00    -0.167 C  
HETATM   13  O   UNL     4     -10.956   4.224  65.295  1.00  0.00    -0.202 OA 
HETATM   14  O   UNL     4      -9.053   3.006  65.773  1.00  0.00    -0.144 OA 
HETATM   15  C   UNL     4      -9.955   3.903  65.981  1.00  0.00    -0.062 C  
ENDBRANCH  11  12
BRANCH  11  16
HETATM   16  C   UNL     4      -7.933   6.353  66.162  1.00  0.00    -0.112 C  
HETATM   17  C   UNL     4      -6.636   6.097  65.338  1.00  0.00    -0.043 C  
HETATM   18  O   UNL     4      -5.679   6.888  65.579  1.00  0.00    -0.029 OA 
HETATM   19  O   UNL     4      -6.652   4.943  64.764  1.00  0.00    -0.041 OA 
ENDBRANCH  11  16
ENDBRANCH  10  11
ENDBRANCH   9  10
ENDBRANCH   8   9
BRANCH   8  20
HETATM   20  C   UNL     4      -9.276   6.665  70.320  1.00  0.00    -0.156 C  
HETATM   21  C   UNL     4     -10.313   7.683  69.705  1.00  0.00    -0.213 C  
HETATM   22  O   UNL     4     -11.328   7.142  69.174  1.00  0.00    -0.028 OA 
HETATM   23  O   UNL     4     -10.052   8.932  69.792  1.00  0.00    -0.188 OA 
ENDBRANCH   8  20
ENDBRANCH   7   8
TORSDOF 7
ENDMDL
MODEL      449
REMARK 921   NORMALIZED FREE ENERGY PREDICTED BY IDOCK:   -0.89 KCAL/MOL
REMARK 922        TOTAL FREE ENERGY PREDICTED BY IDOCK:   -2.69 KCAL/MOL
REMARK 923 INTER-LIGAND FREE ENERGY PREDICTED BY IDOCK:   -4.41 KCAL/MOL
REMARK 924 INTRA-LIGAND FREE ENERGY PREDICTED BY IDOCK:    1.72 KCAL/MOL
REMARK 927      BINDING AFFINITY PREDICTED BY RF-SCORE:    0.00 PKD
ROOT
HETATM    1 NA   UNL     1      -8.813  12.209  64.355  1.00  0.00    -0.393 Na 
HETATM    2 NA   UNL     2      -5.142  12.851  67.065  1.00  0.00    -0.091 Na 
HETATM    3 CA   UNL     3      -9.492   7.063  66.150  1.00  0.00    -0.160 Ca 
HETATM    4  O   UNL     4      -8.822  12.603  66.363  1.00  0.00    -0.125 OA 
HETATM    5  C   UNL     4      -8.153  12.089  67.306  1.00  0.00    -0.174 C  
HETATM    6  O   UNL     4      -6.878  11.998  67.266  1.00  0.00    -0.127 OA 
HETATM    7  C   UNL     4      -8.818  11.530  68.580  1.00  0.00    -0.139 C  
ENDROOT
BRANCH   7   8
HETATM    8  N   UNL     4     -10.268  11.192  68.548  1.00  0.00    -0.191 NA 
BRANCH   8   9
HETATM    9  C   UNL     4     -11.233  12.202  68.103  1.00  0.00    -0.267 C  
BRANCH   9  10
HETATM   10  C   UNL     4     -12.494  12.394  68.948  1.00  0.00     0.519 C  
BRANCH  10  11
HETATM   11  N   UNL     4     -12.380  13.470  69.965  1.00  0.00    -0.287 NA 
BRANCH  11  12
HETATM   12  C   UNL     4     -12.448  12.978  71.378  1.00  0.00    -0.148 C  
HETATM   13  O   UNL     4     -12.913  14.454  73.237  1.00  0.00    -0.518 OA 
HETATM   14  O   UNL     4     -14.388  14.339  71.465  1.00  0.00    -0.378 OA 
HETATM   15  C   UNL     4     -13.358  13.993  72.158  1.00  0.00    -0.453 C  
ENDBRANCH  11  12
BRANCH  11  16
HETATM   16  C   UNL     4     -11.093  14.228  69.759  1.00  0.00    -0.128 C  
HETATM   17  C   UNL     4     -11.494  15.727  69.630  1.00  0.00    -0.346 C  
HETATM   18  O   UNL     4     -11.268  16.252  68.502  1.00  0.00    -0.350 OA 
HETATM   19  O   UNL     4     -12.260  16.104  70.596  1.00  0.00    -0.263 OA 
ENDBRANCH  11  16
ENDBRANCH  10  11
ENDBRANCH   9  10
ENDBRANCH   8   9
BRANCH   8  20
HETATM   20  C   UNL     4     -10.431   9.985  67.637  1.00  0.00    -0.246 C  
HETATM   21  C   UNL     4     -10.718  10.310  66.119  1.00  0.00     0.028 C  
HETATM   22  O   UNL     4     -10.186   9.503  65.300  1.00  0.00    -0.044 OA 
HETATM   23  O   UNL     4     -11.444  11.328  65.850  1.00  0.00    -0.127 OA 
ENDBRANCH   8  20
ENDBRANCH   7   8
TORSDOF 7
ENDMDL
MODEL      450
REMARK 921   NORMALIZED FREE ENERGY PREDICTED BY IDOCK:   -0.83 KCAL/MOL
REMARK 922        TOTAL FREE ENERGY PREDICTED BY IDOCK:   -2.61 KCAL/MOL
REMARK 923 INTER-LIGAND FREE ENERGY PREDICTED BY IDOCK:   -3.96 KCAL/MOL
REMARK 924 INTRA-LIGAND FREE ENERGY PREDICTED BY IDOCK:    1.35 KCAL/MOL
REMARK 927      BINDING AFFINITY PREDICTED BY RF-SCORE:    0.00 PKD
ROOT
HETATM    1 NA   UNL     1     -11.967   6.550  68.775  1.00  0.00    -0.523 Na 
HETATM    2 NA   UNL     2     -13.948   6.721  72.933  1.00  0.00    -0.405 Na 
HETATM    3 CA   UNL     3      -8.516  10.635  70.029  1.00  0.00    -0.253 Ca 
HETATM    4  O   UNL     4     -11.228   5.779  70.521  1.00  0.00    -0.270 OA 
HETATM    5  C   UNL     4     -11.131   6.293  71.673  1.00  0.00    -0.274 C  
HETATM    6  O   UNL     4     -12.126   6.839  72.262  1.00  0.00    -0.262 OA 
HETATM    7  C   UNL     4      -9.806   6.307  72.461  1.00  0.00    -0.166 C  
ENDROOT
BRANCH   7   8
HETATM    8  N   UNL     4      -8.526   6.105  71.725  1.00  0.00    -0.129 NA 
BRANCH   8   9
HETATM    9  C   UNL     4      -8.251   6.904  70.527  1.00  0.00    -0.120 C  
BRANCH   9  10
HETATM   10  C   UNL     4      -7.997   6.151  69.220  1.00  0.00    -0.108 C  
BRANCH  10  11
HETATM   11  N   UNL     4      -8.831   6.616  68.084  1.00  0.00    -0.120 NA 
BRANCH  11  12
HETATM   12  C   UNL     4      -8.429   7.954  67.544  1.00  0.00    -0.123 C  
HETATM   13  O   UNL     4      -9.990   9.410  66.407  1.00  0.00    -0.244 OA 
HETATM   14  O   UNL     4     -10.463   8.658  68.539  1.00  0.00    -0.209 OA 
HETATM   15  C   UNL     4      -9.736   8.822  67.487  1.00  0.00    -0.167 C  
ENDBRANCH  11  12
BRANCH  11  16
HETATM   16  C   UNL     4      -8.794   5.595  66.974  1.00  0.00    -0.111 C  
HETATM   17  C   UNL     4      -8.043   6.274  65.791  1.00  0.00    -0.126 C  
HETATM   18  O   UNL     4      -8.738   6.473  64.754  1.00  0.00     0.084 OA 
HETATM   19  O   UNL     4      -6.922   6.789  66.166  1.00  0.00    -0.058 OA 
ENDBRANCH  11  16
ENDBRANCH  10  11
ENDBRANCH   9  10
ENDBRANCH   8   9
BRANCH   8  20
HETATM   20  C   UNL     4      -7.394   6.366  72.707  1.00  0.00    -0.090 C  
HETATM   21  C   UNL     4      -6.920   7.867  72.819  1.00  0.00    -0.083 C  
HETATM   22  O   UNL     4      -6.569   8.221  73.983  1.00  0.00    -0.117 OA 
HETATM   23  O   UNL     4      -6.929   8.580  71.757  1.00  0.00    -0.082 OA 
ENDBRANCH   8  20
ENDBRANCH   7   8
TORSDOF 7
ENDMDL
MODEL      451
REMARK 921   NORMALIZED FREE ENERGY PREDICTED BY IDOCK:    1.85 KCAL/MOL
REMARK 922        TOTAL FREE ENERGY PREDICTED BY IDOCK:    1.17 KCAL/MOL
REMARK 923 INTER-LIGAND FREE ENERGY PREDICTED BY IDOCK:    1.14 KCAL/MOL
REMARK 924 INTRA-LIGAND FREE ENERGY PREDICTED BY IDOCK:    0.03 KCAL/MOL
REMARK 927      BINDING AFFINITY PREDICTED BY RF-SCORE:    0.00 PKD
ROOT
HETATM    1 NA   UNL     1      -7.346   1.493  70.158  1.00  0.00    -0.031 Na 
HETATM    2 NA   UNL     2      -5.139   2.540  74.066  1.00  0.00     0.000 Na 
HETATM    3 CA   UNL     3     -12.130   3.335  72.127  1.00  0.00     0.909 Ca 
HETATM    4  O   UNL     4      -6.717   3.346  70.756  1.00  0.00    -0.031 OA 
HETATM    5  C   UNL     4      -6.843   3.941  71.866  1.00  0.00    -0.026 C  
HETATM    6  O   UNL     4      -6.499   3.399  72.971  1.00  0.00    -0.022 OA 
HETATM    7  C   UNL     4      -7.422   5.365  71.978  1.00  0.00    -0.098 C  
ENDROOT
BRANCH   7   8
HETATM    8  N   UNL     4      -8.235   5.904  70.852  1.00  0.00    -0.123 NA 
BRANCH   8   9
HETATM    9  C   UNL     4      -7.623   6.842  69.906  1.00  0.00    -0.100 C  
BRANCH   9  10
HETATM   10  C   UNL     4      -6.280   6.446  69.289  1.00  0.00    -0.034 C  
BRANCH  10  11
HETATM   11  N   UNL     4      -6.267   6.473  67.805  1.00  0.00    -0.030 NA 
BRANCH  11  12
HETATM   12  C   UNL     4      -5.415   7.560  67.226  1.00  0.00    -0.030 C  
HETATM   13  O   UNL     4      -5.916   8.601  65.102  1.00  0.00    -0.048 OA 
HETATM   14  O   UNL     4      -7.507   8.580  66.775  1.00  0.00    -0.082 OA 
HETATM   15  C   UNL     4      -6.341   8.385  66.263  1.00  0.00    -0.053 C  
ENDBRANCH  11  12
BRANCH  11  16
HETATM   16  C   UNL     4      -5.804   5.138  67.277  1.00  0.00    -0.025 C  
HETATM   17  C   UNL     4      -6.878   4.691  66.241  1.00  0.00    -0.058 C  
HETATM   18  O   UNL     4      -7.528   3.653  66.552  1.00  0.00    -0.075 OA 
HETATM   19  O   UNL     4      -7.130   5.618  65.381  1.00  0.00    -0.063 OA 
ENDBRANCH  11  16
ENDBRANCH  10  11
ENDBRANCH   9  10
ENDBRANCH   8   9
BRANCH   8  20
HETATM   20  C   UNL     4      -8.734   4.716  70.045  1.00  0.00    -0.081 C  
HETATM   21  C   UNL     4     -10.301   4.602  69.895  1.00  0.00     0.064 C  
HETATM   22  O   UNL     4     -10.690   4.150  68.777  1.00  0.00     1.069 OA 
HETATM   23  O   UNL     4     -11.027   4.964  70.884  1.00  0.00     0.107 OA 
ENDBRANCH   8  20
ENDBRANCH   7   8
TORSDOF 7
ENDMDL
MODEL      452
REMARK 921   NORMALIZED FREE ENERGY PREDICTED BY IDOCK:    2.58 KCAL/MOL
REMARK 922        TOTAL FREE ENERGY PREDICTED BY IDOCK:    2.19 KCAL/MOL
REMARK 923 INTER-LIGAND FREE ENERGY PREDICTED BY IDOCK:   -1.87 KCAL/MOL
REMARK 924 INTRA-LIGAND FREE ENERGY PREDICTED BY IDOCK:    4.06 KCAL/MOL
REMARK 927      BINDING AFFINITY PREDICTED BY RF-SCORE:    0.00 PKD
ROOT
HETATM    1 NA   UNL     1      -7.156  11.948  64.881  1.00  0.00     0.245 Na 
HETATM    2 NA   UNL     2      -5.182  15.515  67.030  1.00  0.00    -0.079 Na 
HETATM    3 CA   UNL     3      -6.089   8.569  69.077  1.00  0.00    -0.036 Ca 
HETATM    4  O   UNL     4      -7.967  13.083  66.379  1.00  0.00     0.470 OA 
HETATM    5  C   UNL     4      -7.479  13.460  67.484  1.00  0.00    -0.162 C  
HETATM    6  O   UNL     4      -6.348  14.052  67.562  1.00  0.00    -0.284 OA 
HETATM    7  C   UNL     4      -8.204  13.235  68.825  1.00  0.00     0.084 C  
ENDROOT
BRANCH   7   8
HETATM    8  N   UNL     4      -9.275  12.204  68.903  1.00  0.00     0.124 NA 
BRANCH   8   9
HETATM    9  C   UNL     4     -10.290  12.138  67.846  1.00  0.00    -0.206 C  
BRANCH   9  10
HETATM   10  C   UNL     4     -11.751  12.322  68.259  1.00  0.00    -0.336 C  
BRANCH  10  11
HETATM   11  N   UNL     4     -12.136  13.736  68.500  1.00  0.00    -0.354 NA 
BRANCH  11  12
HETATM   12  C   UNL     4     -12.746  13.977  69.846  1.00  0.00    -0.009 C  
HETATM   13  O   UNL     4     -11.474  14.868  71.699  1.00  0.00    -0.344 OA 
HETATM   14  O   UNL     4     -11.566  16.029  69.706  1.00  0.00    -0.323 OA 
HETATM   15  C   UNL     4     -11.880  15.092  70.533  1.00  0.00    -0.297 C  
ENDBRANCH  11  12
BRANCH  11  16
HETATM   16  C   UNL     4     -10.931  14.626  68.328  1.00  0.00    -0.252 C  
HETATM   17  C   UNL     4     -11.094  15.305  66.935  1.00  0.00    -0.288 C  
HETATM   18  O   UNL     4     -10.221  14.991  66.077  1.00  0.00    -0.268 OA 
HETATM   19  O   UNL     4     -12.258  15.842  66.797  1.00  0.00     0.978 OA 
ENDBRANCH  11  16
ENDBRANCH  10  11
ENDBRANCH   9  10
ENDBRANCH   8   9
BRANCH   8  20
HETATM   20  C   UNL     4      -8.593  10.846  68.953  1.00  0.00    -0.140 C  
HETATM   21  C   UNL     4      -8.777   9.942  67.672  1.00  0.00    -0.121 C  
HETATM   22  O   UNL     4      -7.766   9.236  67.378  1.00  0.00    -0.094 OA 
HETATM   23  O   UNL     4      -9.896   9.994  67.056  1.00  0.00    -0.173 OA 
ENDBRANCH   8  20
ENDBRANCH   7   8
TORSDOF 7
ENDMDL
