MODEL        1
REMARK 921   NORMALIZED FREE ENERGY PREDICTED BY IDOCK:   -9.00 KCAL/MOL
REMARK 922        TOTAL FREE ENERGY PREDICTED BY IDOCK:  -13.07 KCAL/MOL
REMARK 923 INTER-LIGAND FREE ENERGY PREDICTED BY IDOCK:  -12.15 KCAL/MOL
REMARK 924 INTRA-LIGAND FREE ENERGY PREDICTED BY IDOCK:   -0.92 KCAL/MOL
REMARK 927      BINDING AFFINITY PREDICTED BY RF-SCORE:    0.00 PKD
ROOT
HETATM    1  C   UNL     1      -8.249   6.456  64.519  1.00  0.00    -0.038 C  
HETATM    2  N   UNL     1      -7.809   7.834  64.339  1.00  0.00    -0.134 N  
HETATM    3  C   UNL     1      -6.701   8.048  63.424  1.00  0.00    -0.076 C  
HETATM    4  C   UNL     1      -8.604   8.814  64.921  1.00  0.00    -0.150 C  
HETATM    5  O   UNL     1      -9.592   8.476  65.583  1.00  0.00    -0.097 OA 
ENDROOT
BRANCH   4   6
HETATM    6  C   UNL     1      -8.238  10.316  64.826  1.00  0.00    -0.163 C  
HETATM    7  C   UNL     1      -8.556  11.006  63.499  1.00  0.00     0.085 C  
HETATM    8  C   UNL     1     -10.054  11.121  63.239  1.00  0.00    -0.426 C  
HETATM    9  C   UNL     1     -10.817  11.843  64.360  1.00  0.00    -0.332 C  
HETATM   10  C   UNL     1     -10.448  11.286  65.764  1.00  0.00    -0.254 C  
HETATM   11  C   UNL     1      -8.923  11.132  65.963  1.00  0.00    -0.210 C  
BRANCH   9  12
HETATM   12  N   UNL     1     -10.639  13.286  64.265  1.00  0.00    -0.477 N  
HETATM   13  O   UNL     1     -12.789  13.868  64.951  1.00  0.00    -0.687 OA 
HETATM   14  H   UNL     1      -9.756  13.659  63.918  1.00  0.00     0.000 HD 
HETATM   15  C   UNL     1     -11.642  14.159  64.636  1.00  0.00    -0.406 C  
BRANCH  15  16
HETATM   16  C   UNL     1     -11.196  15.623  64.696  1.00  0.00    -0.369 C  
HETATM   17  O   UNL     1     -11.547  16.357  63.786  1.00  0.00    -1.055 OA 
HETATM   18  N   UNL     1     -10.377  15.866  65.774  1.00  0.00    -0.354 N  
HETATM   19  H   UNL     1     -10.226  15.111  66.443  1.00  0.00     0.000 HD 
BRANCH  18  20
HETATM   20  C   UNL     1      -9.742  17.083  66.002  1.00  0.00    -0.218 A  
HETATM   21  C   UNL     1      -9.871  19.365  66.735  1.00  0.00    -0.453 A  
HETATM   22 CL   UNL     1      -7.645  20.845  67.153  1.00  0.00    -0.352 Cl 
HETATM   23  C   UNL     1     -10.517  18.178  66.378  1.00  0.00    -0.364 A  
HETATM   24  C   UNL     1      -7.799  18.315  66.231  1.00  0.00    -0.245 A  
HETATM   25  N   UNL     1      -8.404  17.153  65.901  1.00  0.00    -0.530 NA 
HETATM   26  C   UNL     1      -8.484  19.430  66.672  1.00  0.00    -0.320 A  
ENDBRANCH  18  20
ENDBRANCH  15  16
ENDBRANCH   9  12
BRANCH  10  27
HETATM   27  N   UNL     1     -11.084  12.048  66.849  1.00  0.00    -0.284 N  
HETATM   28  O   UNL     1     -11.125  10.242  68.238  1.00  0.00    -0.261 OA 
HETATM   29  C   UNL     1     -11.341  11.443  68.077  1.00  0.00    -0.303 C  
HETATM   30  H   UNL     1     -11.338  13.025  66.701  1.00  0.00     0.000 HD 
BRANCH  29  31
HETATM   31  C   UNL     1     -11.854  12.320  69.130  1.00  0.00    -0.301 A  
HETATM   32  N   UNL     1     -12.405  11.903  70.262  1.00  0.00    -0.247 NA 
HETATM   33  C   UNL     1     -13.504  12.912  72.308  1.00  0.00    -0.631 C  
HETATM   34  C   UNL     1     -12.118  15.506  73.263  1.00  0.00    -0.487 C  
HETATM   35  C   UNL     1     -12.828  13.014  70.981  1.00  0.00    -0.198 A  
HETATM   36  C   UNL     1     -14.146  14.271  72.688  1.00  0.00    -0.180 C  
HETATM   37  C   UNL     1     -12.565  14.235  70.405  1.00  0.00    -0.343 A  
HETATM   38  N   UNL     1     -13.312  15.469  72.419  1.00  0.00    -0.441 NA 
HETATM   39  C   UNL     1     -12.963  15.563  70.980  1.00  0.00    -0.489 C  
HETATM   40  S   UNL     1     -11.784  14.035  68.916  1.00  0.00    -0.360 SA 
ENDBRANCH  29  31
ENDBRANCH  10  27
ENDBRANCH   4   6
TORSDOF 6
ENDMDL
MODEL        2
REMARK 921   NORMALIZED FREE ENERGY PREDICTED BY IDOCK:   -7.28 KCAL/MOL
REMARK 922        TOTAL FREE ENERGY PREDICTED BY IDOCK:  -10.75 KCAL/MOL
REMARK 923 INTER-LIGAND FREE ENERGY PREDICTED BY IDOCK:  -10.09 KCAL/MOL
REMARK 924 INTRA-LIGAND FREE ENERGY PREDICTED BY IDOCK:   -0.67 KCAL/MOL
REMARK 927      BINDING AFFINITY PREDICTED BY RF-SCORE:    0.00 PKD
ROOT
HETATM    1  C   UNL     1      -6.407  20.886  65.853  1.00  0.00    -0.225 C  
HETATM    2  N   UNL     1      -6.726  20.134  67.060  1.00  0.00    -0.214 N  
HETATM    3  C   UNL     1      -6.152  20.624  68.302  1.00  0.00    -0.333 C  
HETATM    4  C   UNL     1      -7.684  19.136  66.927  1.00  0.00    -0.238 C  
HETATM    5  O   UNL     1      -8.170  18.910  65.813  1.00  0.00    -0.458 OA 
ENDROOT
BRANCH   4   6
HETATM    6  C   UNL     1      -8.098  18.246  68.126  1.00  0.00    -0.297 C  
HETATM    7  C   UNL     1      -9.524  18.432  68.643  1.00  0.00    -0.356 C  
HETATM    8  C   UNL     1     -10.579  17.971  67.644  1.00  0.00    -0.413 C  
HETATM    9  C   UNL     1     -10.407  16.510  67.201  1.00  0.00    -0.298 C  
HETATM   10  C   UNL     1      -8.941  16.201  66.781  1.00  0.00    -0.241 C  
HETATM   11  C   UNL     1      -7.904  16.736  67.794  1.00  0.00    -0.187 C  
BRANCH   9  12
HETATM   12  N   UNL     1     -10.902  15.596  68.222  1.00  0.00    -0.285 N  
HETATM   13  O   UNL     1     -12.125  14.227  66.785  1.00  0.00    -0.430 OA 
HETATM   14  H   UNL     1     -10.676  15.769  69.201  1.00  0.00     0.000 HD 
HETATM   15  C   UNL     1     -11.671  14.498  67.890  1.00  0.00    -0.351 C  
BRANCH  15  16
HETATM   16  C   UNL     1     -11.897  13.527  69.052  1.00  0.00    -0.343 C  
HETATM   17  O   UNL     1     -12.142  14.006  70.148  1.00  0.00    -0.309 OA 
HETATM   18  N   UNL     1     -11.706  12.219  68.672  1.00  0.00    -0.313 N  
HETATM   19  H   UNL     1     -11.531  12.024  67.686  1.00  0.00     0.000 HD 
BRANCH  18  20
HETATM   20  C   UNL     1     -11.739  11.145  69.557  1.00  0.00    -0.335 A  
HETATM   21  C   UNL     1     -10.567   9.417  70.740  1.00  0.00    -0.371 A  
HETATM   22 CL   UNL     1     -11.753   8.000  72.717  1.00  0.00    -0.426 Cl 
HETATM   23  C   UNL     1     -10.573  10.410  69.756  1.00  0.00    -0.302 A  
HETATM   24  C   UNL     1     -12.855   9.905  71.158  1.00  0.00    -0.368 A  
HETATM   25  N   UNL     1     -12.875  10.882  70.226  1.00  0.00    -0.219 NA 
HETATM   26  C   UNL     1     -11.727   9.169  71.463  1.00  0.00    -0.363 A  
ENDBRANCH  18  20
ENDBRANCH  15  16
ENDBRANCH   9  12
BRANCH  10  27
HETATM   27  N   UNL     1      -8.742  14.778  66.469  1.00  0.00    -0.452 N  
HETATM   28  O   UNL     1      -8.152  14.281  68.613  1.00  0.00    -0.142 OA 
HETATM   29  C   UNL     1      -8.390  13.880  67.474  1.00  0.00    -0.196 C  
HETATM   30  H   UNL     1      -8.862  14.446  65.512  1.00  0.00     0.000 HD 
BRANCH  29  31
HETATM   31  C   UNL     1      -8.344  12.470  67.088  1.00  0.00    -0.179 A  
HETATM   32  N   UNL     1      -9.395  11.752  66.713  1.00  0.00    -0.188 NA 
HETATM   33  C   UNL     1      -9.909   9.361  66.057  1.00  0.00    -0.366 C  
HETATM   34  C   UNL     1      -7.691   8.087  64.319  1.00  0.00    -0.128 C  
HETATM   35  C   UNL     1      -8.978  10.446  66.486  1.00  0.00    -0.145 A  
HETATM   36  C   UNL     1      -9.227   7.978  66.215  1.00  0.00    -0.184 C  
HETATM   37  C   UNL     1      -7.634  10.209  66.659  1.00  0.00    -0.107 A  
HETATM   38  N   UNL     1      -7.815   7.905  65.765  1.00  0.00    -0.097 NA 
HETATM   39  C   UNL     1      -6.969   8.872  66.507  1.00  0.00    -0.080 C  
HETATM   40  S   UNL     1      -6.836  11.625  67.134  1.00  0.00    -0.147 SA 
ENDBRANCH  29  31
ENDBRANCH  10  27
ENDBRANCH   4   6
TORSDOF 6
ENDMDL
MODEL        3
REMARK 921   NORMALIZED FREE ENERGY PREDICTED BY IDOCK:   -7.13 KCAL/MOL
REMARK 922        TOTAL FREE ENERGY PREDICTED BY IDOCK:  -10.55 KCAL/MOL
REMARK 923 INTER-LIGAND FREE ENERGY PREDICTED BY IDOCK:   -9.47 KCAL/MOL
REMARK 924 INTRA-LIGAND FREE ENERGY PREDICTED BY IDOCK:   -1.08 KCAL/MOL
REMARK 927      BINDING AFFINITY PREDICTED BY RF-SCORE:    0.00 PKD
ROOT
HETATM    1  C   UNL     1      -8.355  19.388  65.996  1.00  0.00    -0.220 C  
HETATM    2  N   UNL     1      -8.453  18.658  67.253  1.00  0.00    -0.263 N  
HETATM    3  C   UNL     1      -8.292  19.435  68.470  1.00  0.00    -0.363 C  
HETATM    4  C   UNL     1      -8.864  17.333  67.164  1.00  0.00    -0.226 C  
HETATM    5  O   UNL     1      -9.076  16.840  66.050  1.00  0.00    -0.428 OA 
ENDROOT
BRANCH   4   6
HETATM    6  C   UNL     1      -8.987  16.437  68.422  1.00  0.00    -0.214 C  
HETATM    7  C   UNL     1     -10.325  16.488  69.159  1.00  0.00    -0.316 C  
HETATM    8  C   UNL     1     -11.470  15.894  68.345  1.00  0.00    -0.348 C  
HETATM    9  C   UNL     1     -11.215  14.447  67.895  1.00  0.00    -0.286 C  
HETATM   10  C   UNL     1      -9.810  14.281  67.248  1.00  0.00    -0.244 C  
HETATM   11  C   UNL     1      -8.689  14.947  68.078  1.00  0.00    -0.165 C  
BRANCH   9  12
HETATM   12  N   UNL     1     -11.443  13.514  68.990  1.00  0.00    -0.282 N  
HETATM   13  O   UNL     1     -12.281  11.772  67.687  1.00  0.00    -0.534 OA 
HETATM   14  H   UNL     1     -11.260  13.812  69.947  1.00  0.00     0.000 HD 
HETATM   15  C   UNL     1     -11.901  12.232  68.756  1.00  0.00    -0.306 C  
BRANCH  15  16
HETATM   16  C   UNL     1     -11.853  11.325  69.989  1.00  0.00    -0.367 C  
HETATM   17  O   UNL     1     -12.300  11.769  71.035  1.00  0.00    -0.358 OA 
HETATM   18  N   UNL     1     -11.219  10.133  69.724  1.00  0.00    -0.259 N  
HETATM   19  H   UNL     1     -10.938   9.941  68.763  1.00  0.00     0.000 HD 
BRANCH  18  20
HETATM   20  C   UNL     1     -10.940   9.175  70.694  1.00  0.00    -0.263 A  
HETATM   21  C   UNL     1      -9.425   8.279  72.326  1.00  0.00    -0.341 A  
HETATM   22 CL   UNL     1     -10.210   6.393  74.100  1.00  0.00    -0.342 Cl 
HETATM   23  C   UNL     1      -9.668   9.152  71.261  1.00  0.00    -0.351 A  
HETATM   24  C   UNL     1     -11.655   7.487  72.103  1.00  0.00    -0.298 A  
HETATM   25  N   UNL     1     -11.915   8.337  71.086  1.00  0.00    -0.283 NA 
HETATM   26  C   UNL     1     -10.443   7.439  72.763  1.00  0.00    -0.275 A  
ENDBRANCH  18  20
ENDBRANCH  15  16
ENDBRANCH   9  12
BRANCH  10  27
HETATM   27  N   UNL     1      -9.512  12.878  66.922  1.00  0.00    -0.231 N  
HETATM   28  O   UNL     1     -10.133  13.142  64.746  1.00  0.00    -0.296 OA 
HETATM   29  C   UNL     1      -9.663  12.412  65.618  1.00  0.00    -0.172 C  
HETATM   30  H   UNL     1      -9.193  12.243  67.654  1.00  0.00     0.000 HD 
BRANCH  29  31
HETATM   31  C   UNL     1      -9.217  11.041  65.371  1.00  0.00    -0.210 A  
HETATM   32  N   UNL     1      -8.676  10.612  64.237  1.00  0.00    -0.164 NA 
HETATM   33  C   UNL     1      -7.844   8.435  63.250  1.00  0.00    -0.151 C  
HETATM   34  C   UNL     1      -6.340   6.679  65.304  1.00  0.00    -0.042 C  
HETATM   35  C   UNL     1      -8.440   9.248  64.350  1.00  0.00    -0.188 A  
HETATM   36  C   UNL     1      -8.019   6.923  63.546  1.00  0.00    -0.066 C  
HETATM   37  C   UNL     1      -8.771   8.683  65.559  1.00  0.00    -0.186 A  
HETATM   38  N   UNL     1      -7.748   6.510  64.946  1.00  0.00    -0.098 NA 
HETATM   39  C   UNL     1      -8.639   7.225  65.893  1.00  0.00    -0.149 C  
HETATM   40  S   UNL     1      -9.412   9.848  66.607  1.00  0.00    -0.182 SA 
ENDBRANCH  29  31
ENDBRANCH  10  27
ENDBRANCH   4   6
TORSDOF 6
ENDMDL
MODEL        4
REMARK 921   NORMALIZED FREE ENERGY PREDICTED BY IDOCK:   -6.97 KCAL/MOL
REMARK 922        TOTAL FREE ENERGY PREDICTED BY IDOCK:  -10.33 KCAL/MOL
REMARK 923 INTER-LIGAND FREE ENERGY PREDICTED BY IDOCK:   -9.45 KCAL/MOL
REMARK 924 INTRA-LIGAND FREE ENERGY PREDICTED BY IDOCK:   -0.89 KCAL/MOL
REMARK 927      BINDING AFFINITY PREDICTED BY RF-SCORE:    0.00 PKD
ROOT
HETATM    1  C   UNL     1      -9.334  19.507  66.123  1.00  0.00    -0.329 C  
HETATM    2  N   UNL     1      -9.456  18.802  67.393  1.00  0.00    -0.294 N  
HETATM    3  C   UNL     1      -9.858  19.597  68.541  1.00  0.00    -0.424 C  
HETATM    4  C   UNL     1      -9.350  17.418  67.341  1.00  0.00    -0.237 C  
HETATM    5  O   UNL     1      -9.117  16.870  66.258  1.00  0.00    -0.270 OA 
ENDROOT
BRANCH   4   6
HETATM    6  C   UNL     1      -9.438  16.550  68.621  1.00  0.00    -0.243 C  
HETATM    7  C   UNL     1     -10.803  16.498  69.309  1.00  0.00    -0.326 C  
HETATM    8  C   UNL     1     -11.857  15.779  68.475  1.00  0.00    -0.233 C  
HETATM    9  C   UNL     1     -11.455  14.350  68.080  1.00  0.00    -0.310 C  
HETATM   10  C   UNL     1     -10.017  14.295  67.488  1.00  0.00    -0.235 C  
HETATM   11  C   UNL     1      -8.993  15.085  68.335  1.00  0.00    -0.179 C  
BRANCH   9  12
HETATM   12  N   UNL     1     -11.638  13.430  69.195  1.00  0.00    -0.294 N  
HETATM   13  O   UNL     1     -12.169  11.557  67.913  1.00  0.00    -0.586 OA 
HETATM   14  H   UNL     1     -11.556  13.779  70.150  1.00  0.00     0.000 HD 
HETATM   15  C   UNL     1     -11.919  12.095  68.985  1.00  0.00    -0.247 C  
BRANCH  15  16
HETATM   16  C   UNL     1     -11.841  11.240  70.253  1.00  0.00    -0.357 C  
HETATM   17  O   UNL     1     -12.237  11.739  71.295  1.00  0.00    -0.212 OA 
HETATM   18  N   UNL     1     -11.244  10.024  70.016  1.00  0.00    -0.271 N  
HETATM   19  H   UNL     1     -11.006   9.784  69.054  1.00  0.00     0.000 HD 
BRANCH  18  20
HETATM   20  C   UNL     1     -10.947   9.102  71.015  1.00  0.00    -0.305 A  
HETATM   21  C   UNL     1      -9.340   8.141  72.517  1.00  0.00    -0.329 A  
HETATM   22 CL   UNL     1     -10.089   6.471  74.510  1.00  0.00    -0.373 Cl 
HETATM   23  C   UNL     1      -9.624   8.968  71.426  1.00  0.00    -0.356 A  
HETATM   24  C   UNL     1     -11.652   7.598  72.623  1.00  0.00    -0.317 A  
HETATM   25  N   UNL     1     -11.948   8.408  71.584  1.00  0.00    -0.290 NA 
HETATM   26  C   UNL     1     -10.378   7.452  73.135  1.00  0.00    -0.334 A  
ENDBRANCH  18  20
ENDBRANCH  15  16
ENDBRANCH   9  12
BRANCH  10  27
HETATM   27  N   UNL     1      -9.581  12.917  67.217  1.00  0.00    -0.214 N  
HETATM   28  O   UNL     1     -10.212  13.036  65.030  1.00  0.00    -0.294 OA 
HETATM   29  C   UNL     1      -9.677  12.389  65.931  1.00  0.00    -0.228 C  
HETATM   30  H   UNL     1      -9.206  12.345  67.974  1.00  0.00     0.000 HD 
BRANCH  29  31
HETATM   31  C   UNL     1      -9.097  11.060  65.738  1.00  0.00    -0.202 A  
HETATM   32  N   UNL     1      -8.474  10.361  66.677  1.00  0.00    -0.125 NA 
HETATM   33  C   UNL     1      -7.244   8.158  66.885  1.00  0.00    -0.083 C  
HETATM   34  C   UNL     1      -8.565   5.885  65.257  1.00  0.00    -0.117 C  
HETATM   35  C   UNL     1      -8.004   9.183  66.111  1.00  0.00    -0.103 A  
HETATM   36  C   UNL     1      -6.579   7.143  65.920  1.00  0.00    -0.052 C  
HETATM   37  C   UNL     1      -8.305   8.998  64.782  1.00  0.00    -0.173 A  
HETATM   38  N   UNL     1      -7.428   6.680  64.794  1.00  0.00    -0.088 NA 
HETATM   39  C   UNL     1      -7.870   7.822  63.956  1.00  0.00    -0.127 C  
HETATM   40  S   UNL     1      -9.181  10.316  64.179  1.00  0.00    -0.289 SA 
ENDBRANCH  29  31
ENDBRANCH  10  27
ENDBRANCH   4   6
TORSDOF 6
ENDMDL
MODEL        5
REMARK 921   NORMALIZED FREE ENERGY PREDICTED BY IDOCK:   -6.95 KCAL/MOL
REMARK 922        TOTAL FREE ENERGY PREDICTED BY IDOCK:  -10.30 KCAL/MOL
REMARK 923 INTER-LIGAND FREE ENERGY PREDICTED BY IDOCK:   -9.74 KCAL/MOL
REMARK 924 INTRA-LIGAND FREE ENERGY PREDICTED BY IDOCK:   -0.56 KCAL/MOL
REMARK 927      BINDING AFFINITY PREDICTED BY RF-SCORE:    0.00 PKD
ROOT
HETATM    1  C   UNL     1     -10.246  19.914  68.252  1.00  0.00    -0.434 C  
HETATM    2  N   UNL     1     -10.511  18.859  67.282  1.00  0.00    -0.416 N  
HETATM    3  C   UNL     1     -10.490  19.244  65.881  1.00  0.00    -0.451 C  
HETATM    4  C   UNL     1     -10.581  17.565  67.784  1.00  0.00    -0.375 C  
HETATM    5  O   UNL     1     -10.465  17.383  69.001  1.00  0.00    -0.346 OA 
ENDROOT
BRANCH   4   6
HETATM    6  C   UNL     1     -10.881  16.355  66.865  1.00  0.00    -0.118 C  
HETATM    7  C   UNL     1      -9.796  15.993  65.851  1.00  0.00    -0.380 C  
HETATM    8  C   UNL     1      -8.525  15.469  66.508  1.00  0.00    -0.283 C  
HETATM    9  C   UNL     1      -8.762  14.257  67.422  1.00  0.00    -0.209 C  
HETATM   10  C   UNL     1      -9.945  14.495  68.404  1.00  0.00    -0.241 C  
HETATM   11  C   UNL     1     -11.193  15.080  67.704  1.00  0.00    -0.331 C  
BRANCH   9  12
HETATM   12  N   UNL     1      -8.920  13.038  66.639  1.00  0.00    -0.385 N  
HETATM   13  O   UNL     1      -7.095  11.902  67.542  1.00  0.00    -0.102 OA 
HETATM   14  H   UNL     1      -9.656  12.987  65.936  1.00  0.00     0.000 HD 
HETATM   15  C   UNL     1      -8.092  11.950  66.832  1.00  0.00    -0.146 C  
BRANCH  15  16
HETATM   16  C   UNL     1      -8.552  10.686  66.098  1.00  0.00    -0.159 C  
HETATM   17  O   UNL     1      -9.049  10.826  64.992  1.00  0.00    -0.194 OA 
HETATM   18  N   UNL     1      -8.391   9.558  66.869  1.00  0.00    -0.116 N  
HETATM   19  H   UNL     1      -7.923   9.655  67.771  1.00  0.00     0.000 HD 
BRANCH  18  20
HETATM   20  C   UNL     1      -8.830   8.294  66.489  1.00  0.00    -0.150 A  
HETATM   21  C   UNL     1      -8.327   6.122  65.601  1.00  0.00    -0.146 A  
HETATM   22 CL   UNL     1     -10.132   4.107  65.682  1.00  0.00    -0.208 Cl 
HETATM   23  C   UNL     1      -7.929   7.435  65.866  1.00  0.00    -0.118 A  
HETATM   24  C   UNL     1     -10.463   6.658  66.495  1.00  0.00    -0.047 A  
HETATM   25  N   UNL     1     -10.090   7.925  66.777  1.00  0.00    -0.276 NA 
HETATM   26  C   UNL     1      -9.616   5.722  65.935  1.00  0.00     0.008 A  
ENDBRANCH  18  20
ENDBRANCH  15  16
ENDBRANCH   9  12
BRANCH  10  27
HETATM   27  N   UNL     1     -10.255  13.298  69.200  1.00  0.00    -0.421 N  
HETATM   28  O   UNL     1     -11.809  12.572  67.700  1.00  0.00    -0.362 OA 
HETATM   29  C   UNL     1     -11.177  12.363  68.735  1.00  0.00    -0.273 C  
HETATM   30  H   UNL     1      -9.793  13.152  70.098  1.00  0.00     0.000 HD 
BRANCH  29  31
HETATM   31  C   UNL     1     -11.316  11.146  69.536  1.00  0.00    -0.290 A  
HETATM   32  N   UNL     1     -10.694  10.001  69.290  1.00  0.00    -0.213 NA 
HETATM   33  C   UNL     1     -10.627   7.651  70.229  1.00  0.00    -0.233 C  
HETATM   34  C   UNL     1     -10.750   7.585  73.318  1.00  0.00    -0.382 C  
HETATM   35  C   UNL     1     -11.120   9.059  70.217  1.00  0.00    -0.235 A  
HETATM   36  C   UNL     1     -11.521   6.777  71.145  1.00  0.00    -0.314 C  
HETATM   37  C   UNL     1     -12.019   9.510  71.156  1.00  0.00    -0.348 A  
HETATM   38  N   UNL     1     -11.904   7.393  72.440  1.00  0.00    -0.265 NA 
HETATM   39  C   UNL     1     -12.642   8.663  72.228  1.00  0.00    -0.395 C  
HETATM   40  S   UNL     1     -12.381  11.144  70.898  1.00  0.00    -0.384 SA 
ENDBRANCH  29  31
ENDBRANCH  10  27
ENDBRANCH   4   6
TORSDOF 6
ENDMDL
MODEL        6
REMARK 921   NORMALIZED FREE ENERGY PREDICTED BY IDOCK:   -6.90 KCAL/MOL
REMARK 922        TOTAL FREE ENERGY PREDICTED BY IDOCK:  -10.24 KCAL/MOL
REMARK 923 INTER-LIGAND FREE ENERGY PREDICTED BY IDOCK:   -9.33 KCAL/MOL
REMARK 924 INTRA-LIGAND FREE ENERGY PREDICTED BY IDOCK:   -0.91 KCAL/MOL
REMARK 927      BINDING AFFINITY PREDICTED BY RF-SCORE:    0.00 PKD
ROOT
HETATM    1  C   UNL     1     -10.118   5.811  67.900  1.00  0.00    -0.162 C  
HETATM    2  N   UNL     1      -9.122   6.806  68.276  1.00  0.00    -0.126 N  
HETATM    3  C   UNL     1      -8.502   6.644  69.580  1.00  0.00    -0.132 C  
HETATM    4  C   UNL     1      -8.742   7.702  67.284  1.00  0.00    -0.124 C  
HETATM    5  O   UNL     1      -9.286   7.641  66.175  1.00  0.00    -0.171 OA 
ENDROOT
BRANCH   4   6
HETATM    6  C   UNL     1      -7.710   8.825  67.558  1.00  0.00    -0.101 C  
HETATM    7  C   UNL     1      -7.145   9.537  66.329  1.00  0.00    -0.092 C  
HETATM    8  C   UNL     1      -8.192  10.366  65.594  1.00  0.00    -0.158 C  
HETATM    9  C   UNL     1      -8.886  11.407  66.485  1.00  0.00    -0.187 C  
HETATM   10  C   UNL     1      -9.377  10.787  67.825  1.00  0.00    -0.152 C  
HETATM   11  C   UNL     1      -8.303   9.909  68.506  1.00  0.00    -0.108 C  
BRANCH   9  12
HETATM   12  N   UNL     1      -8.032  12.571  66.686  1.00  0.00    -0.400 N  
HETATM   13  O   UNL     1      -9.725  14.169  66.560  1.00  0.00    -0.275 OA 
HETATM   14  H   UNL     1      -7.024  12.444  66.771  1.00  0.00     0.000 HD 
HETATM   15  C   UNL     1      -8.562  13.844  66.765  1.00  0.00    -0.041 C  
BRANCH  15  16
HETATM   16  C   UNL     1      -7.553  14.906  67.214  1.00  0.00    -0.181 C  
HETATM   17  O   UNL     1      -6.369  14.615  67.164  1.00  0.00    -0.233 OA 
HETATM   18  N   UNL     1      -8.176  16.036  67.689  1.00  0.00    -0.145 N  
HETATM   19  H   UNL     1      -9.192  16.092  67.617  1.00  0.00     0.000 HD 
BRANCH  18  20
HETATM   20  C   UNL     1      -7.499  17.108  68.262  1.00  0.00    -0.217 A  
HETATM   21  C   UNL     1      -7.299  19.477  68.592  1.00  0.00    -0.381 A  
HETATM   22 CL   UNL     1      -5.614  20.511  70.440  1.00  0.00    -0.350 Cl 
HETATM   23  C   UNL     1      -7.887  18.401  67.921  1.00  0.00    -0.267 A  
HETATM   24  C   UNL     1      -5.957  17.918  69.783  1.00  0.00    -0.230 A  
HETATM   25  N   UNL     1      -6.528  16.865  69.159  1.00  0.00    -0.202 NA 
HETATM   26  C   UNL     1      -6.324  19.229  69.551  1.00  0.00    -0.304 A  
ENDBRANCH  18  20
ENDBRANCH  15  16
ENDBRANCH   9  12
BRANCH  10  27
HETATM   27  N   UNL     1      -9.936  11.800  68.733  1.00  0.00    -0.367 N  
HETATM   28  O   UNL     1     -12.037  11.555  67.885  1.00  0.00    -0.630 OA 
HETATM   29  C   UNL     1     -11.300  12.082  68.718  1.00  0.00    -0.278 C  
HETATM   30  H   UNL     1      -9.322  12.299  69.377  1.00  0.00     0.000 HD 
BRANCH  29  31
HETATM   31  C   UNL     1     -11.776  13.007  69.747  1.00  0.00    -0.276 A  
HETATM   32  N   UNL     1     -12.858  12.822  70.492  1.00  0.00     0.035 NA 
HETATM   33  C   UNL     1     -14.158  14.066  72.273  1.00  0.00    -0.633 C  
HETATM   34  C   UNL     1     -12.332  15.557  74.274  1.00  0.00    -0.671 C  
HETATM   35  C   UNL     1     -13.028  13.934  71.307  1.00  0.00    -0.341 A  
HETATM   36  C   UNL     1     -14.262  15.528  72.777  1.00  0.00    -0.167 C  
HETATM   37  C   UNL     1     -12.066  14.911  71.192  1.00  0.00    -0.327 A  
HETATM   38  N   UNL     1     -12.973  16.181  73.117  1.00  0.00    -0.483 NA 
HETATM   39  C   UNL     1     -12.065  16.211  71.943  1.00  0.00    -0.476 C  
HETATM   40  S   UNL     1     -10.912  14.478  70.032  1.00  0.00     0.022 SA 
ENDBRANCH  29  31
ENDBRANCH  10  27
ENDBRANCH   4   6
TORSDOF 6
ENDMDL
MODEL        7
REMARK 921   NORMALIZED FREE ENERGY PREDICTED BY IDOCK:   -6.75 KCAL/MOL
REMARK 922        TOTAL FREE ENERGY PREDICTED BY IDOCK:  -10.03 KCAL/MOL
REMARK 923 INTER-LIGAND FREE ENERGY PREDICTED BY IDOCK:   -9.41 KCAL/MOL
REMARK 924 INTRA-LIGAND FREE ENERGY PREDICTED BY IDOCK:   -0.62 KCAL/MOL
REMARK 927      BINDING AFFINITY PREDICTED BY RF-SCORE:    0.00 PKD
ROOT
HETATM    1  C   UNL     1      -7.707   6.027  62.468  1.00  0.00    -0.081 C  
HETATM    2  N   UNL     1      -7.324   7.081  63.399  1.00  0.00    -0.074 N  
HETATM    3  C   UNL     1      -6.192   6.802  64.265  1.00  0.00    -0.035 C  
HETATM    4  C   UNL     1      -7.966   8.304  63.242  1.00  0.00    -0.156 C  
HETATM    5  O   UNL     1      -8.838   8.421  62.374  1.00  0.00    -0.099 OA 
ENDROOT
BRANCH   4   6
HETATM    6  C   UNL     1      -7.669   9.500  64.180  1.00  0.00    -0.124 C  
HETATM    7  C   UNL     1      -8.443  10.788  63.897  1.00  0.00     0.016 C  
HETATM    8  C   UNL     1      -9.937  10.651  64.170  1.00  0.00    -0.406 C  
HETATM    9  C   UNL     1     -10.259  10.193  65.600  1.00  0.00    -0.218 C  
HETATM   10  C   UNL     1      -9.411   8.957  66.017  1.00  0.00    -0.242 C  
HETATM   11  C   UNL     1      -7.913   9.116  65.670  1.00  0.00    -0.107 C  
BRANCH   9  12
HETATM   12  N   UNL     1     -10.137  11.299  66.541  1.00  0.00    -0.211 N  
HETATM   13  O   UNL     1     -12.174  12.311  66.028  1.00  0.00    -0.646 OA 
HETATM   14  H   UNL     1      -9.286  11.395  67.093  1.00  0.00     0.000 HD 
HETATM   15  C   UNL     1     -11.153  12.220  66.699  1.00  0.00    -0.297 C  
BRANCH  15  16
HETATM   16  C   UNL     1     -10.953  13.162  67.890  1.00  0.00    -0.249 C  
HETATM   17  O   UNL     1      -9.811  13.512  68.146  1.00  0.00    -0.224 OA 
HETATM   18  N   UNL     1     -12.133  13.413  68.551  1.00  0.00    -0.318 N  
HETATM   19  H   UNL     1     -12.995  13.041  68.153  1.00  0.00     0.000 HD 
BRANCH  18  20
HETATM   20  C   UNL     1     -12.216  14.146  69.730  1.00  0.00    -0.344 A  
HETATM   21  C   UNL     1     -12.671  14.208  72.087  1.00  0.00    -0.379 A  
HETATM   22 CL   UNL     1     -12.061  16.375  73.589  1.00  0.00    -0.550 Cl 
HETATM   23  C   UNL     1     -12.708  13.518  70.872  1.00  0.00    -0.366 A  
HETATM   24  C   UNL     1     -11.767  16.074  70.924  1.00  0.00    -0.402 A  
HETATM   25  N   UNL     1     -11.777  15.416  69.745  1.00  0.00    -0.310 NA 
HETATM   26  C   UNL     1     -12.179  15.508  72.115  1.00  0.00    -0.404 A  
ENDBRANCH  18  20
ENDBRANCH  15  16
ENDBRANCH   9  12
BRANCH  10  27
HETATM   27  N   UNL     1      -9.627   8.585  67.424  1.00  0.00    -0.153 N  
HETATM   28  O   UNL     1     -11.016   6.866  66.865  1.00  0.00    -0.377 OA 
HETATM   29  C   UNL     1     -10.417   7.483  67.746  1.00  0.00    -0.223 C  
HETATM   30  H   UNL     1      -9.197   9.136  68.167  1.00  0.00     0.000 HD 
BRANCH  29  31
HETATM   31  C   UNL     1     -10.463   7.119  69.162  1.00  0.00    -0.211 A  
HETATM   32  N   UNL     1     -10.341   5.884  69.631  1.00  0.00    -0.222 NA 
HETATM   33  C   UNL     1     -10.432   4.698  71.867  1.00  0.00    -0.172 C  
HETATM   34  C   UNL     1      -9.095   6.313  74.140  1.00  0.00    -0.147 C  
HETATM   35  C   UNL     1     -10.500   5.919  71.011  1.00  0.00    -0.237 A  
HETATM   36  C   UNL     1     -10.974   5.008  73.285  1.00  0.00    -0.318 C  
HETATM   37  C   UNL     1     -10.703   7.165  71.557  1.00  0.00    -0.223 A  
HETATM   38  N   UNL     1     -10.532   6.297  73.872  1.00  0.00    -0.292 NA 
HETATM   39  C   UNL     1     -10.937   7.439  73.015  1.00  0.00    -0.374 C  
HETATM   40  S   UNL     1     -10.720   8.351  70.348  1.00  0.00    -0.233 SA 
ENDBRANCH  29  31
ENDBRANCH  10  27
ENDBRANCH   4   6
TORSDOF 6
ENDMDL
MODEL        8
REMARK 921   NORMALIZED FREE ENERGY PREDICTED BY IDOCK:   -6.41 KCAL/MOL
REMARK 922        TOTAL FREE ENERGY PREDICTED BY IDOCK:   -9.58 KCAL/MOL
REMARK 923 INTER-LIGAND FREE ENERGY PREDICTED BY IDOCK:   -8.61 KCAL/MOL
REMARK 924 INTRA-LIGAND FREE ENERGY PREDICTED BY IDOCK:   -0.96 KCAL/MOL
REMARK 927      BINDING AFFINITY PREDICTED BY RF-SCORE:    0.00 PKD
ROOT
HETATM    1  C   UNL     1     -10.033   3.035  71.754  1.00  0.00    -0.122 C  
HETATM    2  N   UNL     1      -8.986   3.974  71.375  1.00  0.00    -0.106 N  
HETATM    3  C   UNL     1      -7.621   3.478  71.420  1.00  0.00    -0.051 C  
HETATM    4  C   UNL     1      -9.409   5.186  70.841  1.00  0.00    -0.150 C  
HETATM    5  O   UNL     1     -10.620   5.419  70.760  1.00  0.00    -0.256 OA 
ENDROOT
BRANCH   4   6
HETATM    6  C   UNL     1      -8.399   6.282  70.419  1.00  0.00    -0.126 C  
HETATM    7  C   UNL     1      -7.850   6.182  68.996  1.00  0.00    -0.100 C  
HETATM    8  C   UNL     1      -8.915   6.433  67.934  1.00  0.00    -0.114 C  
HETATM    9  C   UNL     1      -9.627   7.786  68.088  1.00  0.00    -0.151 C  
HETATM   10  C   UNL     1     -10.104   8.025  69.549  1.00  0.00    -0.196 C  
HETATM   11  C   UNL     1      -9.012   7.704  70.594  1.00  0.00    -0.153 C  
BRANCH   9  12
HETATM   12  N   UNL     1      -8.796   8.872  67.584  1.00  0.00    -0.134 N  
HETATM   13  O   UNL     1     -10.518  10.084  66.584  1.00  0.00    -0.223 OA 
HETATM   14  H   UNL     1      -7.786   8.833  67.719  1.00  0.00     0.000 HD 
HETATM   15  C   UNL     1      -9.350   9.953  66.929  1.00  0.00    -0.152 C  
BRANCH  15  16
HETATM   16  C   UNL     1      -8.363  11.099  66.686  1.00  0.00    -0.160 C  
HETATM   17  O   UNL     1      -7.359  10.851  66.038  1.00  0.00    -0.142 OA 
HETATM   18  N   UNL     1      -8.750  12.254  67.326  1.00  0.00    -0.180 N  
HETATM   19  H   UNL     1      -9.653  12.261  67.800  1.00  0.00     0.000 HD 
BRANCH  18  20
HETATM   20  C   UNL     1      -7.980  13.412  67.363  1.00  0.00    -0.163 A  
HETATM   21  C   UNL     1      -7.841  15.799  67.152  1.00  0.00    -0.247 A  
HETATM   22 CL   UNL     1      -5.627  17.159  67.909  1.00  0.00    -0.118 Cl 
HETATM   23  C   UNL     1      -8.570  14.617  66.991  1.00  0.00    -0.249 A  
HETATM   24  C   UNL     1      -6.015  14.490  67.929  1.00  0.00    -0.138 A  
HETATM   25  N   UNL     1      -6.711  13.340  67.799  1.00  0.00    -0.138 NA 
HETATM   26  C   UNL     1      -6.542  15.734  67.642  1.00  0.00    -0.171 A  
ENDBRANCH  18  20
ENDBRANCH  15  16
ENDBRANCH   9  12
BRANCH  10  27
HETATM   27  N   UNL     1     -10.682   9.366  69.731  1.00  0.00    -0.228 N  
HETATM   28  O   UNL     1     -12.249   8.606  71.201  1.00  0.00    -0.293 OA 
HETATM   29  C   UNL     1     -11.733   9.563  70.624  1.00  0.00    -0.262 C  
HETATM   30  H   UNL     1     -10.311  10.155  69.200  1.00  0.00     0.000 HD 
BRANCH  29  31
HETATM   31  C   UNL     1     -12.147  10.951  70.830  1.00  0.00    -0.368 A  
HETATM   32  N   UNL     1     -12.936  11.369  71.811  1.00  0.00    -0.456 NA 
HETATM   33  C   UNL     1     -14.017  13.528  72.573  1.00  0.00    -0.557 C  
HETATM   34  C   UNL     1     -12.166  15.983  72.238  1.00  0.00    -0.519 C  
HETATM   35  C   UNL     1     -13.161  12.730  71.647  1.00  0.00    -0.331 A  
HETATM   36  C   UNL     1     -14.340  14.909  71.947  1.00  0.00    -0.576 C  
HETATM   37  C   UNL     1     -12.520  13.316  70.580  1.00  0.00    -0.298 A  
HETATM   38  N   UNL     1     -13.202  15.593  71.283  1.00  0.00    -0.499 NA 
HETATM   39  C   UNL     1     -12.646  14.760  70.188  1.00  0.00    -0.271 C  
HETATM   40  S   UNL     1     -11.618  12.169  69.722  1.00  0.00    -0.216 SA 
ENDBRANCH  29  31
ENDBRANCH  10  27
ENDBRANCH   4   6
TORSDOF 6
ENDMDL
MODEL        9
REMARK 921   NORMALIZED FREE ENERGY PREDICTED BY IDOCK:   -6.39 KCAL/MOL
REMARK 922        TOTAL FREE ENERGY PREDICTED BY IDOCK:   -9.55 KCAL/MOL
REMARK 923 INTER-LIGAND FREE ENERGY PREDICTED BY IDOCK:   -9.45 KCAL/MOL
REMARK 924 INTRA-LIGAND FREE ENERGY PREDICTED BY IDOCK:   -0.10 KCAL/MOL
REMARK 927      BINDING AFFINITY PREDICTED BY RF-SCORE:    0.00 PKD
ROOT
HETATM    1  C   UNL     1      -6.701   7.928  62.381  1.00  0.00    -0.085 C  
HETATM    2  N   UNL     1      -6.649   8.914  63.453  1.00  0.00    -0.090 N  
HETATM    3  C   UNL     1      -5.888  10.123  63.186  1.00  0.00    -0.134 C  
HETATM    4  C   UNL     1      -7.473   8.678  64.547  1.00  0.00    -0.107 C  
HETATM    5  O   UNL     1      -8.157   7.649  64.577  1.00  0.00    -0.141 OA 
ENDROOT
BRANCH   4   6
HETATM    6  C   UNL     1      -7.496   9.636  65.765  1.00  0.00    -0.100 C  
HETATM    7  C   UNL     1      -8.533  10.758  65.721  1.00  0.00    -0.174 C  
HETATM    8  C   UNL     1      -9.965  10.243  65.811  1.00  0.00    -0.337 C  
HETATM    9  C   UNL     1     -10.229   9.383  67.056  1.00  0.00    -0.255 C  
HETATM   10  C   UNL     1      -9.137   8.291  67.248  1.00  0.00    -0.137 C  
HETATM   11  C   UNL     1      -7.704   8.846  67.092  1.00  0.00    -0.095 C  
BRANCH   9  12
HETATM   12  N   UNL     1     -10.402  10.216  68.238  1.00  0.00    -0.176 N  
HETATM   13  O   UNL     1     -12.156  11.505  67.403  1.00  0.00    -0.593 OA 
HETATM   14  H   UNL     1      -9.770  10.099  69.030  1.00  0.00     0.000 HD 
HETATM   15  C   UNL     1     -11.404  11.163  68.308  1.00  0.00    -0.297 C  
BRANCH  15  16
HETATM   16  C   UNL     1     -11.584  11.772  69.702  1.00  0.00    -0.323 C  
HETATM   17  O   UNL     1     -11.636  11.004  70.650  1.00  0.00    -0.312 OA 
HETATM   18  N   UNL     1     -11.737  13.138  69.649  1.00  0.00    -0.369 N  
HETATM   19  H   UNL     1     -11.632  13.599  68.746  1.00  0.00     0.000 HD 
BRANCH  18  20
HETATM   20  C   UNL     1     -12.027  13.925  70.759  1.00  0.00    -0.272 A  
HETATM   21  C   UNL     1     -13.262  14.239  72.793  1.00  0.00    -0.614 A  
HETATM   22 CL   UNL     1     -12.643  16.216  74.534  1.00  0.00    -0.597 Cl 
HETATM   23  C   UNL     1     -13.055  13.525  71.610  1.00  0.00    -0.459 A  
HETATM   24  C   UNL     1     -11.508  15.704  72.142  1.00  0.00    -0.385 A  
HETATM   25  N   UNL     1     -11.279  15.014  71.003  1.00  0.00    -0.267 NA 
HETATM   26  C   UNL     1     -12.464  15.342  73.070  1.00  0.00    -0.431 A  
ENDBRANCH  18  20
ENDBRANCH  15  16
ENDBRANCH   9  12
BRANCH  10  27
HETATM   27  N   UNL     1      -9.318   7.540  68.499  1.00  0.00    -0.143 N  
HETATM   28  O   UNL     1     -10.939   6.218  67.596  1.00  0.00    -0.314 OA 
HETATM   29  C   UNL     1     -10.219   6.479  68.559  1.00  0.00    -0.172 C  
HETATM   30  H   UNL     1      -8.781   7.797  69.328  1.00  0.00     0.000 HD 
BRANCH  29  31
HETATM   31  C   UNL     1     -10.229   5.715  69.807  1.00  0.00    -0.251 A  
HETATM   32  N   UNL     1     -10.893   6.061  70.902  1.00  0.00    -0.272 NA 
HETATM   33  C   UNL     1     -11.188   5.222  73.273  1.00  0.00    -0.359 C  
HETATM   34  C   UNL     1     -11.364   2.139  73.444  1.00  0.00    -0.183 C  
HETATM   35  C   UNL     1     -10.614   5.134  71.898  1.00  0.00    -0.188 A  
HETATM   36  C   UNL     1     -10.439   4.259  74.229  1.00  0.00    -0.253 C  
HETATM   37  C   UNL     1      -9.783   4.099  71.535  1.00  0.00    -0.173 A  
HETATM   38  N   UNL     1     -10.146   2.912  73.680  1.00  0.00    -0.104 NA 
HETATM   39  C   UNL     1      -9.316   3.006  72.452  1.00  0.00    -0.104 C  
HETATM   40  S   UNL     1      -9.301   4.260  69.919  1.00  0.00    -0.181 SA 
ENDBRANCH  29  31
ENDBRANCH  10  27
ENDBRANCH   4   6
TORSDOF 6
ENDMDL
MODEL       10
REMARK 921   NORMALIZED FREE ENERGY PREDICTED BY IDOCK:   -6.33 KCAL/MOL
REMARK 922        TOTAL FREE ENERGY PREDICTED BY IDOCK:   -9.47 KCAL/MOL
REMARK 923 INTER-LIGAND FREE ENERGY PREDICTED BY IDOCK:   -9.15 KCAL/MOL
REMARK 924 INTRA-LIGAND FREE ENERGY PREDICTED BY IDOCK:   -0.32 KCAL/MOL
REMARK 927      BINDING AFFINITY PREDICTED BY RF-SCORE:    0.00 PKD
ROOT
HETATM    1  C   UNL     1      -7.684   5.063  66.052  1.00  0.00    -0.091 C  
HETATM    2  N   UNL     1      -7.253   6.451  65.957  1.00  0.00    -0.073 N  
HETATM    3  C   UNL     1      -5.851   6.677  65.649  1.00  0.00    -0.030 C  
HETATM    4  C   UNL     1      -8.257   7.411  65.996  1.00  0.00    -0.130 C  
HETATM    5  O   UNL     1      -9.429   7.052  66.152  1.00  0.00    -0.117 OA 
ENDROOT
BRANCH   4   6
HETATM    6  C   UNL     1      -7.933   8.925  65.929  1.00  0.00    -0.107 C  
HETATM    7  C   UNL     1      -8.251   9.625  64.608  1.00  0.00    -0.149 C  
HETATM    8  C   UNL     1      -9.748   9.700  64.325  1.00  0.00     0.185 C  
HETATM    9  C   UNL     1     -10.549  10.382  65.444  1.00  0.00    -0.009 C  
HETATM   10  C   UNL     1     -10.185   9.815  66.846  1.00  0.00    -0.245 C  
HETATM   11  C   UNL     1      -8.660   9.702  67.067  1.00  0.00    -0.131 C  
BRANCH   9  12
HETATM   12  N   UNL     1     -10.412  11.831  65.373  1.00  0.00    -0.262 N  
HETATM   13  O   UNL     1     -12.491  12.250  64.405  1.00  0.00    -0.439 OA 
HETATM   14  H   UNL     1      -9.540  12.266  65.672  1.00  0.00     0.000 HD 
HETATM   15  C   UNL     1     -11.441  12.627  64.910  1.00  0.00    -0.322 C  
BRANCH  15  16
HETATM   16  C   UNL     1     -11.210  14.125  65.130  1.00  0.00    -0.337 C  
HETATM   17  O   UNL     1     -11.933  14.902  64.528  1.00  0.00    -0.447 OA 
HETATM   18  N   UNL     1     -10.130  14.363  65.950  1.00  0.00    -0.310 N  
HETATM   19  H   UNL     1      -9.668  13.563  66.381  1.00  0.00     0.000 HD 
BRANCH  18  20
HETATM   20  C   UNL     1      -9.634  15.634  66.223  1.00  0.00    -0.308 A  
HETATM   21  C   UNL     1      -7.751  17.109  66.421  1.00  0.00    -0.345 A  
HETATM   22 CL   UNL     1      -8.069  19.785  66.661  1.00  0.00    -0.320 Cl 
HETATM   23  C   UNL     1      -8.254  15.813  66.277  1.00  0.00    -0.062 A  
HETATM   24  C   UNL     1      -9.990  17.897  66.535  1.00  0.00    -0.357 A  
HETATM   25  N   UNL     1     -10.495  16.654  66.377  1.00  0.00    -0.294 NA 
HETATM   26  C   UNL     1      -8.637  18.173  66.539  1.00  0.00    -0.263 A  
ENDBRANCH  18  20
ENDBRANCH  15  16
ENDBRANCH   9  12
BRANCH  10  27
HETATM   27  N   UNL     1     -10.860  10.542  67.932  1.00  0.00    -0.260 N  
HETATM   28  O   UNL     1      -9.301  12.203  67.931  1.00  0.00    -0.179 OA 
HETATM   29  C   UNL     1     -10.361  11.764  68.376  1.00  0.00    -0.214 C  
HETATM   30  H   UNL     1     -11.698  10.149  68.361  1.00  0.00     0.000 HD 
BRANCH  29  31
HETATM   31  C   UNL     1     -11.176  12.468  69.366  1.00  0.00    -0.149 A  
HETATM   32  N   UNL     1     -11.855  11.883  70.344  1.00  0.00    -0.304 NA 
HETATM   33  C   UNL     1     -13.438  12.551  72.203  1.00  0.00    -0.523 C  
HETATM   34  C   UNL     1     -12.636  15.207  73.570  1.00  0.00    -0.554 C  
HETATM   35  C   UNL     1     -12.557  12.860  71.039  1.00  0.00    -0.287 A  
HETATM   36  C   UNL     1     -14.327  13.776  72.541  1.00  0.00    -0.132 C  
HETATM   37  C   UNL     1     -12.373  14.151  70.603  1.00  0.00    -0.365 A  
HETATM   38  N   UNL     1     -13.641  15.091  72.513  1.00  0.00    -0.428 NA 
HETATM   39  C   UNL     1     -13.056  15.359  71.176  1.00  0.00    -0.498 C  
HETATM   40  S   UNL     1     -11.317  14.190  69.280  1.00  0.00    -0.291 SA 
ENDBRANCH  29  31
ENDBRANCH  10  27
ENDBRANCH   4   6
TORSDOF 6
ENDMDL
MODEL       11
REMARK 921   NORMALIZED FREE ENERGY PREDICTED BY IDOCK:   -6.28 KCAL/MOL
REMARK 922        TOTAL FREE ENERGY PREDICTED BY IDOCK:   -9.40 KCAL/MOL
REMARK 923 INTER-LIGAND FREE ENERGY PREDICTED BY IDOCK:   -8.84 KCAL/MOL
REMARK 924 INTRA-LIGAND FREE ENERGY PREDICTED BY IDOCK:   -0.56 KCAL/MOL
REMARK 927      BINDING AFFINITY PREDICTED BY RF-SCORE:    0.00 PKD
ROOT
HETATM    1  C   UNL     1      -8.969  11.445  62.696  1.00  0.00    -0.158 C  
HETATM    2  N   UNL     1      -9.486  10.628  63.787  1.00  0.00    -0.263 N  
HETATM    3  C   UNL     1     -10.842  10.910  64.223  1.00  0.00    -0.051 C  
HETATM    4  C   UNL     1      -8.696   9.553  64.176  1.00  0.00    -0.215 C  
HETATM    5  O   UNL     1      -7.604   9.375  63.626  1.00  0.00    -0.109 OA 
ENDROOT
BRANCH   4   6
HETATM    6  C   UNL     1      -9.117   8.619  65.339  1.00  0.00    -0.150 C  
HETATM    7  C   UNL     1      -7.992   7.833  66.014  1.00  0.00    -0.108 C  
HETATM    8  C   UNL     1      -7.025   8.728  66.780  1.00  0.00    -0.080 C  
HETATM    9  C   UNL     1      -7.709   9.606  67.839  1.00  0.00    -0.087 C  
HETATM   10  C   UNL     1      -8.952  10.344  67.263  1.00  0.00    -0.135 C  
HETATM   11  C   UNL     1      -9.875   9.411  66.446  1.00  0.00    -0.337 C  
BRANCH   9  12
HETATM   12  N   UNL     1      -8.020   8.833  69.034  1.00  0.00    -0.109 N  
HETATM   13  O   UNL     1      -7.286  10.418  70.577  1.00  0.00    -0.276 OA 
HETATM   14  H   UNL     1      -8.387   7.886  68.936  1.00  0.00     0.000 HD 
HETATM   15  C   UNL     1      -7.829   9.356  70.297  1.00  0.00    -0.156 C  
BRANCH  15  16
HETATM   16  C   UNL     1      -8.429   8.502  71.417  1.00  0.00    -0.172 C  
HETATM   17  O   UNL     1      -8.315   8.912  72.562  1.00  0.00    -0.388 OA 
HETATM   18  N   UNL     1      -8.957   7.325  70.939  1.00  0.00    -0.150 N  
HETATM   19  H   UNL     1      -8.978   7.183  69.929  1.00  0.00     0.000 HD 
BRANCH  18  20
HETATM   20  C   UNL     1      -9.464   6.319  71.755  1.00  0.00    -0.150 A  
HETATM   21  C   UNL     1     -11.359   5.252  72.770  1.00  0.00    -0.342 A  
HETATM   22 CL   UNL     1     -11.141   2.851  73.999  1.00  0.00    -0.235 Cl 
HETATM   23  C   UNL     1     -10.822   6.330  72.061  1.00  0.00    -0.286 A  
HETATM   24  C   UNL     1      -9.175   4.321  72.881  1.00  0.00    -0.112 A  
HETATM   25  N   UNL     1      -8.642   5.345  72.180  1.00  0.00    -0.126 NA 
HETATM   26  C   UNL     1     -10.521   4.221  73.176  1.00  0.00    -0.181 A  
ENDBRANCH  18  20
ENDBRANCH  15  16
ENDBRANCH   9  12
BRANCH  10  27
HETATM   27  N   UNL     1      -9.681  11.093  68.298  1.00  0.00    -0.181 N  
HETATM   28  O   UNL     1      -9.905  12.926  66.962  1.00  0.00    -0.224 OA 
HETATM   29  C   UNL     1     -10.163  12.372  68.031  1.00  0.00    -0.219 C  
HETATM   30  H   UNL     1      -9.835  10.673  69.215  1.00  0.00     0.000 HD 
BRANCH  29  31
HETATM   31  C   UNL     1     -10.986  12.979  69.078  1.00  0.00    -0.196 A  
HETATM   32  N   UNL     1     -11.669  12.303  69.992  1.00  0.00    -0.285 NA 
HETATM   33  C   UNL     1     -13.266  12.790  71.896  1.00  0.00    -0.511 C  
HETATM   34  C   UNL     1     -12.479  15.307  73.511  1.00  0.00    -0.548 C  
HETATM   35  C   UNL     1     -12.378  13.208  70.771  1.00  0.00    -0.321 A  
HETATM   36  C   UNL     1     -14.160  13.975  72.341  1.00  0.00    -0.476 C  
HETATM   37  C   UNL     1     -12.195  14.536  70.460  1.00  0.00    -0.332 A  
HETATM   38  N   UNL     1     -13.477  15.289  72.442  1.00  0.00    -0.417 NA 
HETATM   39  C   UNL     1     -12.885  15.683  71.139  1.00  0.00    -0.480 C  
HETATM   40  S   UNL     1     -11.131  14.700  69.153  1.00  0.00    -0.278 SA 
ENDBRANCH  29  31
ENDBRANCH  10  27
ENDBRANCH   4   6
TORSDOF 6
ENDMDL
MODEL       12
REMARK 921   NORMALIZED FREE ENERGY PREDICTED BY IDOCK:   -6.28 KCAL/MOL
REMARK 922        TOTAL FREE ENERGY PREDICTED BY IDOCK:   -9.40 KCAL/MOL
REMARK 923 INTER-LIGAND FREE ENERGY PREDICTED BY IDOCK:   -8.45 KCAL/MOL
REMARK 924 INTRA-LIGAND FREE ENERGY PREDICTED BY IDOCK:   -0.94 KCAL/MOL
REMARK 927      BINDING AFFINITY PREDICTED BY RF-SCORE:    0.00 PKD
ROOT
HETATM    1  C   UNL     1      -9.671   3.925  70.416  1.00  0.00    -0.175 C  
HETATM    2  N   UNL     1      -8.680   4.976  70.611  1.00  0.00    -0.119 N  
HETATM    3  C   UNL     1      -7.876   4.895  71.818  1.00  0.00    -0.107 C  
HETATM    4  C   UNL     1      -8.485   5.843  69.543  1.00  0.00    -0.114 C  
HETATM    5  O   UNL     1      -9.175   5.713  68.525  1.00  0.00    -0.119 OA 
ENDROOT
BRANCH   4   6
HETATM    6  C   UNL     1      -7.479   7.018  69.626  1.00  0.00    -0.098 C  
HETATM    7  C   UNL     1      -6.772   7.395  68.324  1.00  0.00    -0.054 C  
HETATM    8  C   UNL     1      -7.721   7.983  67.286  1.00  0.00    -0.101 C  
HETATM    9  C   UNL     1      -8.499   9.208  67.791  1.00  0.00    -0.117 C  
HETATM   10  C   UNL     1      -9.144   8.950  69.183  1.00  0.00    -0.141 C  
HETATM   11  C   UNL     1      -8.163   8.301  70.185  1.00  0.00    -0.118 C  
BRANCH   9  12
HETATM   12  N   UNL     1      -7.661  10.400  67.774  1.00  0.00    -0.089 N  
HETATM   13  O   UNL     1      -8.810  11.511  66.077  1.00  0.00    -0.200 OA 
HETATM   14  H   UNL     1      -6.846  10.447  68.385  1.00  0.00     0.000 HD 
HETATM   15  C   UNL     1      -7.949  11.467  66.947  1.00  0.00    -0.164 C  
BRANCH  15  16
HETATM   16  C   UNL     1      -7.110  12.715  67.235  1.00  0.00    -0.098 C  
HETATM   17  O   UNL     1      -5.895  12.599  67.197  1.00  0.00    -0.300 OA 
HETATM   18  N   UNL     1      -7.893  13.794  67.575  1.00  0.00    -0.172 N  
HETATM   19  H   UNL     1      -8.906  13.689  67.518  1.00  0.00     0.000 HD 
BRANCH  18  20
HETATM   20  C   UNL     1      -7.382  15.019  67.991  1.00  0.00    -0.127 A  
HETATM   21  C   UNL     1      -7.012  17.350  67.555  1.00  0.00    -0.177 A  
HETATM   22 CL   UNL     1      -6.148  19.032  69.490  1.00  0.00    -0.277 Cl 
HETATM   23  C   UNL     1      -7.403  16.088  67.099  1.00  0.00    -0.257 A  
HETATM   24  C   UNL     1      -6.537  16.369  69.667  1.00  0.00    -0.180 A  
HETATM   25  N   UNL     1      -6.929  15.146  69.250  1.00  0.00    -0.146 NA 
HETATM   26  C   UNL     1      -6.583  17.495  68.869  1.00  0.00    -0.226 A  
ENDBRANCH  18  20
ENDBRANCH  15  16
ENDBRANCH   9  12
BRANCH  10  27
HETATM   27  N   UNL     1      -9.791  10.154  69.727  1.00  0.00    -0.323 N  
HETATM   28  O   UNL     1     -11.359  10.187  68.073  1.00  0.00    -0.250 OA 
HETATM   29  C   UNL     1     -10.932  10.674  69.121  1.00  0.00    -0.247 C  
HETATM   30  H   UNL     1      -9.401  10.612  70.551  1.00  0.00     0.000 HD 
BRANCH  29  31
HETATM   31  C   UNL     1     -11.574  11.792  69.812  1.00  0.00    -0.299 A  
HETATM   32  N   UNL     1     -12.375  11.675  70.863  1.00  0.00    -0.371 NA 
HETATM   33  C   UNL     1     -13.779  13.177  72.341  1.00  0.00    -0.640 C  
HETATM   34  C   UNL     1     -12.405  15.877  72.963  1.00  0.00    -0.498 C  
HETATM   35  C   UNL     1     -12.842  12.938  71.204  1.00  0.00    -0.238 A  
HETATM   36  C   UNL     1     -14.369  14.607  72.257  1.00  0.00    -0.415 C  
HETATM   37  C   UNL     1     -12.367  13.977  70.438  1.00  0.00    -0.359 A  
HETATM   38  N   UNL     1     -13.402  15.679  71.912  1.00  0.00    -0.468 NA 
HETATM   39  C   UNL     1     -12.762  15.417  70.599  1.00  0.00    -0.437 C  
HETATM   40  S   UNL     1     -11.320  13.403  69.237  1.00  0.00    -0.233 SA 
ENDBRANCH  29  31
ENDBRANCH  10  27
ENDBRANCH   4   6
TORSDOF 6
ENDMDL
MODEL       13
REMARK 921   NORMALIZED FREE ENERGY PREDICTED BY IDOCK:   -6.04 KCAL/MOL
REMARK 922        TOTAL FREE ENERGY PREDICTED BY IDOCK:   -9.07 KCAL/MOL
REMARK 923 INTER-LIGAND FREE ENERGY PREDICTED BY IDOCK:   -8.88 KCAL/MOL
REMARK 924 INTRA-LIGAND FREE ENERGY PREDICTED BY IDOCK:   -0.19 KCAL/MOL
REMARK 927      BINDING AFFINITY PREDICTED BY RF-SCORE:    0.00 PKD
ROOT
HETATM    1  C   UNL     1      -7.654  18.646  66.084  1.00  0.00    -0.246 C  
HETATM    2  N   UNL     1      -7.838  17.983  67.368  1.00  0.00    -0.214 N  
HETATM    3  C   UNL     1      -7.821  18.832  68.546  1.00  0.00    -0.336 C  
HETATM    4  C   UNL     1      -8.186  16.638  67.322  1.00  0.00    -0.174 C  
HETATM    5  O   UNL     1      -8.275  16.074  66.225  1.00  0.00    -0.294 OA 
ENDROOT
BRANCH   4   6
HETATM    6  C   UNL     1      -8.388  15.809  68.615  1.00  0.00    -0.183 C  
HETATM    7  C   UNL     1      -9.706  16.026  69.357  1.00  0.00    -0.248 C  
HETATM    8  C   UNL     1     -10.914  15.523  68.575  1.00  0.00    -0.288 C  
HETATM    9  C   UNL     1     -10.815  14.042  68.180  1.00  0.00    -0.248 C  
HETATM   10  C   UNL     1      -9.441  13.706  67.532  1.00  0.00    -0.222 C  
HETATM   11  C   UNL     1      -8.249  14.284  68.328  1.00  0.00    -0.148 C  
BRANCH   9  12
HETATM   12  N   UNL     1     -11.127  13.180  69.313  1.00  0.00    -0.420 N  
HETATM   13  O   UNL     1     -12.239  11.531  68.096  1.00  0.00    -0.576 OA 
HETATM   14  H   UNL     1     -10.871  13.478  70.253  1.00  0.00     0.000 HD 
HETATM   15  C   UNL     1     -11.762  11.967  69.137  1.00  0.00    -0.319 C  
BRANCH  15  16
HETATM   16  C   UNL     1     -11.792  11.097  70.397  1.00  0.00    -0.369 C  
HETATM   17  O   UNL     1     -12.558  11.423  71.290  1.00  0.00    -0.394 OA 
HETATM   18  N   UNL     1     -10.858  10.088  70.346  1.00  0.00    -0.303 N  
HETATM   19  H   UNL     1     -10.327   9.968  69.484  1.00  0.00     0.000 HD 
BRANCH  18  20
HETATM   20  C   UNL     1     -10.598   9.224  71.405  1.00  0.00    -0.347 A  
HETATM   21  C   UNL     1     -11.380   7.540  72.927  1.00  0.00    -0.355 A  
HETATM   22 CL   UNL     1      -9.671   6.142  74.490  1.00  0.00    -0.249 Cl 
HETATM   23  C   UNL     1     -11.657   8.505  71.954  1.00  0.00    -0.410 A  
HETATM   24  C   UNL     1      -9.087   8.149  72.786  1.00  0.00    -0.259 A  
HETATM   25  N   UNL     1      -9.333   9.072  71.831  1.00  0.00    -0.363 NA 
HETATM   26  C   UNL     1     -10.067   7.350  73.341  1.00  0.00    -0.338 A  
ENDBRANCH  18  20
ENDBRANCH  15  16
ENDBRANCH   9  12
BRANCH  10  27
HETATM   27  N   UNL     1      -9.294  12.268  67.259  1.00  0.00    -0.180 N  
HETATM   28  O   UNL     1      -8.270  11.886  69.259  1.00  0.00     0.245 OA 
HETATM   29  C   UNL     1      -8.731  11.425  68.215  1.00  0.00    -0.160 C  
HETATM   30  H   UNL     1      -9.604  11.887  66.366  1.00  0.00     0.000 HD 
BRANCH  29  31
HETATM   31  C   UNL     1      -8.749   9.997  67.901  1.00  0.00    -0.125 A  
HETATM   32  N   UNL     1      -9.811   9.328  67.471  1.00  0.00    -0.165 NA 
HETATM   33  C   UNL     1     -10.430   6.944  66.886  1.00  0.00    -0.349 C  
HETATM   34  C   UNL     1      -8.167   5.442  65.407  1.00  0.00    -0.130 C  
HETATM   35  C   UNL     1      -9.467   7.988  67.343  1.00  0.00    -0.151 A  
HETATM   36  C   UNL     1      -9.859   5.530  67.167  1.00  0.00    -0.154 C  
HETATM   37  C   UNL     1      -8.161   7.677  67.642  1.00  0.00    -0.121 A  
HETATM   38  N   UNL     1      -8.422   5.345  66.844  1.00  0.00    -0.108 NA 
HETATM   39  C   UNL     1      -7.577   6.294  67.611  1.00  0.00    -0.097 C  
HETATM   40  S   UNL     1      -7.311   9.061  68.117  1.00  0.00    -0.084 SA 
ENDBRANCH  29  31
ENDBRANCH  10  27
ENDBRANCH   4   6
TORSDOF 6
ENDMDL
MODEL       14
REMARK 921   NORMALIZED FREE ENERGY PREDICTED BY IDOCK:   -5.97 KCAL/MOL
REMARK 922        TOTAL FREE ENERGY PREDICTED BY IDOCK:   -8.98 KCAL/MOL
REMARK 923 INTER-LIGAND FREE ENERGY PREDICTED BY IDOCK:   -8.94 KCAL/MOL
REMARK 924 INTRA-LIGAND FREE ENERGY PREDICTED BY IDOCK:   -0.04 KCAL/MOL
REMARK 927      BINDING AFFINITY PREDICTED BY RF-SCORE:    0.00 PKD
ROOT
HETATM    1  C   UNL     1     -10.138  19.932  68.439  1.00  0.00    -0.437 C  
HETATM    2  N   UNL     1     -10.417  18.918  67.430  1.00  0.00    -0.425 N  
HETATM    3  C   UNL     1     -10.309  19.336  66.043  1.00  0.00    -0.475 C  
HETATM    4  C   UNL     1     -10.583  17.618  67.893  1.00  0.00    -0.387 C  
HETATM    5  O   UNL     1     -10.534  17.400  69.109  1.00  0.00    -0.341 OA 
ENDROOT
BRANCH   4   6
HETATM    6  C   UNL     1     -10.908  16.450  66.929  1.00  0.00    -0.118 C  
HETATM    7  C   UNL     1      -9.861  16.149  65.856  1.00  0.00    -0.384 C  
HETATM    8  C   UNL     1      -8.560  15.608  66.438  1.00  0.00    -0.319 C  
HETATM    9  C   UNL     1      -8.750  14.351  67.301  1.00  0.00    -0.215 C  
HETATM   10  C   UNL     1      -9.896  14.529  68.338  1.00  0.00    -0.227 C  
HETATM   11  C   UNL     1     -11.175  15.133  67.717  1.00  0.00    -0.327 C  
BRANCH   9  12
HETATM   12  N   UNL     1      -8.928  13.169  66.467  1.00  0.00    -0.436 N  
HETATM   13  O   UNL     1      -7.252  11.887  67.458  1.00  0.00    -0.105 OA 
HETATM   14  H   UNL     1      -9.611  13.189  65.711  1.00  0.00     0.000 HD 
HETATM   15  C   UNL     1      -8.188  12.023  66.680  1.00  0.00    -0.056 C  
BRANCH  15  16
HETATM   16  C   UNL     1      -8.673  10.816  65.872  1.00  0.00    -0.181 C  
HETATM   17  O   UNL     1      -9.855  10.777  65.570  1.00  0.00    -0.225 OA 
HETATM   18  N   UNL     1      -7.669   9.896  65.672  1.00  0.00    -0.116 N  
HETATM   19  H   UNL     1      -6.729  10.135  65.985  1.00  0.00     0.000 HD 
BRANCH  18  20
HETATM   20  C   UNL     1      -7.866   8.659  65.066  1.00  0.00    -0.116 A  
HETATM   21  C   UNL     1      -7.824   7.310  63.081  1.00  0.00    -0.116 A  
HETATM   22 CL   UNL     1      -8.062   4.617  63.195  1.00  0.00    -0.082 Cl 
HETATM   23  C   UNL     1      -7.758   8.571  63.680  1.00  0.00    -0.142 A  
HETATM   24  C   UNL     1      -8.185   6.376  65.237  1.00  0.00    -0.137 A  
HETATM   25  N   UNL     1      -8.104   7.584  65.836  1.00  0.00    -0.119 NA 
HETATM   26  C   UNL     1      -8.029   6.189  63.877  1.00  0.00    -0.103 A  
ENDBRANCH  18  20
ENDBRANCH  15  16
ENDBRANCH   9  12
BRANCH  10  27
HETATM   27  N   UNL     1     -10.163  13.291  69.087  1.00  0.00    -0.421 N  
HETATM   28  O   UNL     1     -11.764  12.618  67.611  1.00  0.00    -0.335 OA 
HETATM   29  C   UNL     1     -11.092  12.368  68.612  1.00  0.00    -0.257 C  
HETATM   30  H   UNL     1      -9.666  13.108  69.959  1.00  0.00     0.000 HD 
BRANCH  29  31
HETATM   31  C   UNL     1     -11.189  11.113  69.358  1.00  0.00    -0.270 A  
HETATM   32  N   UNL     1     -11.687  10.996  70.582  1.00  0.00    -0.321 NA 
HETATM   33  C   UNL     1     -12.006   9.185  72.322  1.00  0.00    -0.277 C  
HETATM   34  C   UNL     1     -12.846   6.473  71.096  1.00  0.00     0.180 C  
HETATM   35  C   UNL     1     -11.555   9.673  70.986  1.00  0.00    -0.359 A  
HETATM   36  C   UNL     1     -11.427   7.774  72.599  1.00  0.00    -0.375 C  
HETATM   37  C   UNL     1     -10.999   8.819  70.062  1.00  0.00    -0.209 A  
HETATM   38  N   UNL     1     -11.474   6.827  71.457  1.00  0.00    -0.272 NA 
HETATM   39  C   UNL     1     -10.726   7.361  70.292  1.00  0.00    -0.237 C  
HETATM   40  S   UNL     1     -10.600   9.653  68.643  1.00  0.00    -0.203 SA 
ENDBRANCH  29  31
ENDBRANCH  10  27
ENDBRANCH   4   6
TORSDOF 6
ENDMDL
MODEL       15
REMARK 921   NORMALIZED FREE ENERGY PREDICTED BY IDOCK:   -5.87 KCAL/MOL
REMARK 922        TOTAL FREE ENERGY PREDICTED BY IDOCK:   -8.84 KCAL/MOL
REMARK 923 INTER-LIGAND FREE ENERGY PREDICTED BY IDOCK:   -8.35 KCAL/MOL
REMARK 924 INTRA-LIGAND FREE ENERGY PREDICTED BY IDOCK:   -0.49 KCAL/MOL
REMARK 927      BINDING AFFINITY PREDICTED BY RF-SCORE:    0.00 PKD
ROOT
HETATM    1  C   UNL     1      -7.936   2.498  63.140  1.00  0.00    -0.069 C  
HETATM    2  N   UNL     1      -8.907   2.972  64.118  1.00  0.00    -0.097 N  
HETATM    3  C   UNL     1     -10.298   2.634  63.870  1.00  0.00    -0.100 C  
HETATM    4  C   UNL     1      -8.387   3.544  65.273  1.00  0.00    -0.098 C  
HETATM    5  O   UNL     1      -7.162   3.661  65.390  1.00  0.00    -0.065 OA 
ENDROOT
BRANCH   4   6
HETATM    6  C   UNL     1      -9.308   4.110  66.382  1.00  0.00    -0.178 C  
HETATM    7  C   UNL     1      -8.751   4.075  67.805  1.00  0.00    -0.119 C  
HETATM    8  C   UNL     1      -7.564   5.011  67.998  1.00  0.00    -0.083 C  
HETATM    9  C   UNL     1      -7.868   6.471  67.629  1.00  0.00    -0.110 C  
HETATM   10  C   UNL     1      -8.562   6.585  66.241  1.00  0.00    -0.141 C  
HETATM   11  C   UNL     1      -9.722   5.579  66.069  1.00  0.00    -0.107 C  
BRANCH   9  12
HETATM   12  N   UNL     1      -8.623   7.128  68.688  1.00  0.00    -0.125 N  
HETATM   13  O   UNL     1      -6.784   8.002  69.824  1.00  0.00    -0.039 OA 
HETATM   14  H   UNL     1      -9.637   7.026  68.718  1.00  0.00     0.000 HD 
HETATM   15  C   UNL     1      -7.991   7.888  69.653  1.00  0.00    -0.118 C  
BRANCH  15  16
HETATM   16  C   UNL     1      -8.953   8.691  70.534  1.00  0.00    -0.164 C  
HETATM   17  O   UNL     1      -8.787   8.639  71.743  1.00  0.00    -0.188 OA 
HETATM   18  N   UNL     1      -9.935   9.307  69.793  1.00  0.00    -0.188 N  
HETATM   19  H   UNL     1      -9.879   9.248  68.777  1.00  0.00     0.000 HD 
BRANCH  18  20
HETATM   20  C   UNL     1     -10.999  10.006  70.353  1.00  0.00    -0.320 A  
HETATM   21  C   UNL     1     -12.785  10.101  71.955  1.00  0.00    -0.493 A  
HETATM   22 CL   UNL     1     -14.121  12.401  72.449  1.00  0.00    -0.032 Cl 
HETATM   23  C   UNL     1     -11.798   9.363  71.295  1.00  0.00    -0.435 A  
HETATM   24  C   UNL     1     -12.166  11.982  70.640  1.00  0.00    -0.316 A  
HETATM   25  N   UNL     1     -11.194  11.290  70.006  1.00  0.00    -0.197 NA 
HETATM   26  C   UNL     1     -12.963  11.441  71.629  1.00  0.00    -0.418 A  
ENDBRANCH  18  20
ENDBRANCH  15  16
ENDBRANCH   9  12
BRANCH  10  27
HETATM   27  N   UNL     1      -8.963   7.966  65.933  1.00  0.00    -0.289 N  
HETATM   28  O   UNL     1     -10.908   7.774  67.104  1.00  0.00    -0.313 OA 
HETATM   29  C   UNL     1     -10.144   8.489  66.456  1.00  0.00    -0.258 C  
HETATM   30  H   UNL     1      -8.374   8.544  65.334  1.00  0.00     0.000 HD 
BRANCH  29  31
HETATM   31  C   UNL     1     -10.386   9.908  66.200  1.00  0.00    -0.153 A  
HETATM   32  N   UNL     1     -11.095  10.710  66.984  1.00  0.00    -0.240 NA 
HETATM   33  C   UNL     1     -11.892  13.113  66.996  1.00  0.00    -0.435 C  
HETATM   34  C   UNL     1      -9.774  15.090  65.916  1.00  0.00    -0.342 C  
HETATM   35  C   UNL     1     -11.161  11.964  66.388  1.00  0.00    -0.331 A  
HETATM   36  C   UNL     1     -12.067  14.248  65.955  1.00  0.00    -0.408 C  
HETATM   37  C   UNL     1     -10.484  12.095  65.198  1.00  0.00    -0.281 A  
HETATM   38  N   UNL     1     -10.874  14.542  65.123  1.00  0.00    -0.368 NA 
HETATM   39  C   UNL     1     -10.448  13.341  64.361  1.00  0.00    -0.404 C  
HETATM   40  S   UNL     1      -9.745  10.634  64.767  1.00  0.00    -0.320 SA 
ENDBRANCH  29  31
ENDBRANCH  10  27
ENDBRANCH   4   6
TORSDOF 6
ENDMDL
MODEL       16
REMARK 921   NORMALIZED FREE ENERGY PREDICTED BY IDOCK:   -5.85 KCAL/MOL
REMARK 922        TOTAL FREE ENERGY PREDICTED BY IDOCK:   -8.81 KCAL/MOL
REMARK 923 INTER-LIGAND FREE ENERGY PREDICTED BY IDOCK:   -8.62 KCAL/MOL
REMARK 924 INTRA-LIGAND FREE ENERGY PREDICTED BY IDOCK:   -0.20 KCAL/MOL
REMARK 927      BINDING AFFINITY PREDICTED BY RF-SCORE:    0.00 PKD
ROOT
HETATM    1  C   UNL     1     -10.896  17.215  65.506  1.00  0.00    -0.055 C  
HETATM    2  N   UNL     1     -10.133  16.544  66.550  1.00  0.00    -0.286 N  
HETATM    3  C   UNL     1      -9.354  17.394  67.434  1.00  0.00    -0.237 C  
HETATM    4  C   UNL     1     -10.366  15.182  66.703  1.00  0.00    -0.274 C  
HETATM    5  O   UNL     1     -11.153  14.614  65.938  1.00  0.00    -0.325 OA 
ENDROOT
BRANCH   4   6
HETATM    6  C   UNL     1      -9.604  14.344  67.760  1.00  0.00    -0.216 C  
HETATM    7  C   UNL     1     -10.209  14.316  69.164  1.00  0.00    -0.100 C  
HETATM    8  C   UNL     1     -11.546  13.585  69.216  1.00  0.00    -0.369 C  
HETATM    9  C   UNL     1     -11.478  12.145  68.686  1.00  0.00    -0.296 C  
HETATM   10  C   UNL     1     -10.754  12.068  67.311  1.00  0.00    -0.232 C  
HETATM   11  C   UNL     1      -9.433  12.870  67.286  1.00  0.00    -0.216 C  
BRANCH   9  12
HETATM   12  N   UNL     1     -10.894  11.252  69.678  1.00  0.00    -0.445 N  
HETATM   13  O   UNL     1     -12.907  10.530  70.606  1.00  0.00    -0.358 OA 
HETATM   14  H   UNL     1      -9.879  11.195  69.764  1.00  0.00     0.000 HD 
HETATM   15  C   UNL     1     -11.687  10.481  70.504  1.00  0.00    -0.350 C  
BRANCH  15  16
HETATM   16  C   UNL     1     -10.908   9.437  71.309  1.00  0.00    -0.361 C  
HETATM   17  O   UNL     1      -9.689   9.510  71.298  1.00  0.00    -0.207 OA 
HETATM   18  N   UNL     1     -11.741   8.502  71.879  1.00  0.00    -0.316 N  
HETATM   19  H   UNL     1     -12.748   8.639  71.791  1.00  0.00     0.000 HD 
BRANCH  18  20
HETATM   20  C   UNL     1     -11.288   7.382  72.569  1.00  0.00    -0.313 A  
HETATM   21  C   UNL     1     -11.017   5.000  72.673  1.00  0.00    -0.280 A  
HETATM   22 CL   UNL     1      -9.454   3.834  74.549  1.00  0.00    -0.125 Cl 
HETATM   23  C   UNL     1     -11.581   6.121  72.057  1.00  0.00    -0.364 A  
HETATM   24  C   UNL     1     -10.024   6.455  74.268  1.00  0.00    -0.328 A  
HETATM   25  N   UNL     1     -10.544   7.552  73.675  1.00  0.00    -0.300 NA 
HETATM   26  C   UNL     1     -10.213   5.172  73.793  1.00  0.00    -0.215 A  
ENDBRANCH  18  20
ENDBRANCH  15  16
ENDBRANCH   9  12
BRANCH  10  27
HETATM   27  N   UNL     1     -10.580  10.682  66.852  1.00  0.00    -0.257 N  
HETATM   28  O   UNL     1      -8.546  10.491  67.860  1.00  0.00    -0.121 OA 
HETATM   29  C   UNL     1      -9.452   9.954  67.223  1.00  0.00    -0.153 C  
HETATM   30  H   UNL     1     -11.290  10.250  66.259  1.00  0.00     0.000 HD 
BRANCH  29  31
HETATM   31  C   UNL     1      -9.437   8.546  66.826  1.00  0.00    -0.194 A  
HETATM   32  N   UNL     1      -8.708   8.045  65.837  1.00  0.00    -0.154 NA 
HETATM   33  C   UNL     1      -8.365   5.815  64.688  1.00  0.00    -0.102 C  
HETATM   34  C   UNL     1      -8.372   3.433  66.661  1.00  0.00    -0.101 C  
HETATM   35  C   UNL     1      -9.002   6.693  65.714  1.00  0.00    -0.026 A  
HETATM   36  C   UNL     1      -9.132   4.472  64.584  1.00  0.00    -0.151 C  
HETATM   37  C   UNL     1      -9.908   6.195  66.620  1.00  0.00    -0.159 A  
HETATM   38  N   UNL     1      -9.531   3.861  65.877  1.00  0.00    -0.171 NA 
HETATM   39  C   UNL     1     -10.403   4.777  66.652  1.00  0.00    -0.214 C  
HETATM   40  S   UNL     1     -10.447   7.417  67.660  1.00  0.00    -0.242 SA 
ENDBRANCH  29  31
ENDBRANCH  10  27
ENDBRANCH   4   6
TORSDOF 6
ENDMDL
MODEL       17
REMARK 921   NORMALIZED FREE ENERGY PREDICTED BY IDOCK:   -5.78 KCAL/MOL
REMARK 922        TOTAL FREE ENERGY PREDICTED BY IDOCK:   -8.72 KCAL/MOL
REMARK 923 INTER-LIGAND FREE ENERGY PREDICTED BY IDOCK:   -8.08 KCAL/MOL
REMARK 924 INTRA-LIGAND FREE ENERGY PREDICTED BY IDOCK:   -0.64 KCAL/MOL
REMARK 927      BINDING AFFINITY PREDICTED BY RF-SCORE:    0.00 PKD
ROOT
HETATM    1  C   UNL     1     -11.003  16.431  64.887  1.00  0.00    -0.263 C  
HETATM    2  N   UNL     1     -10.167  15.773  65.883  1.00  0.00    -0.330 N  
HETATM    3  C   UNL     1      -8.821  16.296  66.050  1.00  0.00    -0.273 C  
HETATM    4  C   UNL     1     -10.796  14.834  66.691  1.00  0.00    -0.319 C  
HETATM    5  O   UNL     1     -11.990  14.576  66.499  1.00  0.00    -0.397 OA 
ENDROOT
BRANCH   4   6
HETATM    6  C   UNL     1     -10.018  14.045  67.774  1.00  0.00    -0.236 C  
HETATM    7  C   UNL     1     -10.666  13.978  69.157  1.00  0.00    -0.198 C  
HETATM    8  C   UNL     1     -11.955  13.164  69.165  1.00  0.00    -0.329 C  
HETATM    9  C   UNL     1     -11.778  11.731  68.640  1.00  0.00    -0.330 C  
HETATM   10  C   UNL     1     -11.005  11.701  67.290  1.00  0.00    -0.267 C  
HETATM   11  C   UNL     1      -9.737  12.585  67.308  1.00  0.00    -0.202 C  
BRANCH   9  12
HETATM   12  N   UNL     1     -11.171  10.877  69.652  1.00  0.00    -0.262 N  
HETATM   13  O   UNL     1     -13.154  10.291  70.730  1.00  0.00    -0.381 OA 
HETATM   14  H   UNL     1     -10.156  10.785  69.686  1.00  0.00     0.000 HD 
HETATM   15  C   UNL     1     -11.944  10.188  70.565  1.00  0.00    -0.311 C  
BRANCH  15  16
HETATM   16  C   UNL     1     -11.159   9.163  71.390  1.00  0.00    -0.345 C  
HETATM   17  O   UNL     1     -11.704   8.699  72.379  1.00  0.00    -0.368 OA 
HETATM   18  N   UNL     1      -9.886   8.980  70.903  1.00  0.00    -0.240 N  
HETATM   19  H   UNL     1      -9.631   9.449  70.034  1.00  0.00     0.000 HD 
BRANCH  18  20
HETATM   20  C   UNL     1      -8.927   8.189  71.529  1.00  0.00    -0.158 A  
HETATM   21  C   UNL     1      -7.806   6.075  71.715  1.00  0.00    -0.102 A  
HETATM   22 CL   UNL     1      -5.571   5.786  73.213  1.00  0.00    -0.034 Cl 
HETATM   23  C   UNL     1      -8.850   6.841  71.189  1.00  0.00    -0.137 A  
HETATM   24  C   UNL     1      -7.087   7.997  72.915  1.00  0.00    -0.095 A  
HETATM   25  N   UNL     1      -8.077   8.758  72.401  1.00  0.00    -0.383 NA 
HETATM   26  C   UNL     1      -6.899   6.669  72.586  1.00  0.00    -0.064 A  
ENDBRANCH  18  20
ENDBRANCH  15  16
ENDBRANCH   9  12
BRANCH  10  27
HETATM   27  N   UNL     1     -10.728  10.329  66.839  1.00  0.00    -0.218 N  
HETATM   28  O   UNL     1      -8.849  10.175  68.118  1.00  0.00    -0.124 OA 
HETATM   29  C   UNL     1      -9.641   9.625  67.352  1.00  0.00    -0.148 C  
HETATM   30  H   UNL     1     -11.336   9.890  66.147  1.00  0.00     0.000 HD 
BRANCH  29  31
HETATM   31  C   UNL     1      -9.529   8.226  66.940  1.00  0.00    -0.186 A  
HETATM   32  N   UNL     1     -10.145   7.211  67.531  1.00  0.00    -0.171 NA 
HETATM   33  C   UNL     1     -10.246   4.689  67.325  1.00  0.00    -0.119 C  
HETATM   34  C   UNL     1     -10.223   3.719  64.389  1.00  0.00    -0.222 C  
HETATM   35  C   UNL     1      -9.751   6.033  66.907  1.00  0.00    -0.148 A  
HETATM   36  C   UNL     1      -9.383   3.576  66.678  1.00  0.00    -0.175 C  
HETATM   37  C   UNL     1      -8.882   6.179  65.851  1.00  0.00    -0.143 A  
HETATM   38  N   UNL     1      -9.041   3.781  65.249  1.00  0.00    -0.136 NA 
HETATM   39  C   UNL     1      -8.295   5.049  65.056  1.00  0.00    -0.140 C  
HETATM   40  S   UNL     1      -8.509   7.813  65.607  1.00  0.00    -0.123 SA 
ENDBRANCH  29  31
ENDBRANCH  10  27
ENDBRANCH   4   6
TORSDOF 6
ENDMDL
MODEL       18
REMARK 921   NORMALIZED FREE ENERGY PREDICTED BY IDOCK:   -5.77 KCAL/MOL
REMARK 922        TOTAL FREE ENERGY PREDICTED BY IDOCK:   -8.71 KCAL/MOL
REMARK 923 INTER-LIGAND FREE ENERGY PREDICTED BY IDOCK:   -8.07 KCAL/MOL
REMARK 924 INTRA-LIGAND FREE ENERGY PREDICTED BY IDOCK:   -0.63 KCAL/MOL
REMARK 927      BINDING AFFINITY PREDICTED BY RF-SCORE:    0.00 PKD
ROOT
HETATM    1  C   UNL     1      -5.962   4.424  63.520  1.00  0.00    -0.018 C  
HETATM    2  N   UNL     1      -5.780   5.654  64.279  1.00  0.00    -0.020 N  
HETATM    3  C   UNL     1      -5.282   5.512  65.636  1.00  0.00    -0.009 C  
HETATM    4  C   UNL     1      -5.932   6.841  63.572  1.00  0.00    -0.035 C  
HETATM    5  O   UNL     1      -6.250   6.796  62.378  1.00  0.00    -0.038 OA 
ENDROOT
BRANCH   4   6
HETATM    6  C   UNL     1      -5.789   8.220  64.264  1.00  0.00    -0.064 C  
HETATM    7  C   UNL     1      -6.050   9.445  63.388  1.00  0.00    -0.092 C  
HETATM    8  C   UNL     1      -7.506   9.560  62.952  1.00  0.00    -0.106 C  
HETATM    9  C   UNL     1      -8.497   9.580  64.126  1.00  0.00    -0.186 C  
HETATM   10  C   UNL     1      -8.215   8.435  65.141  1.00  0.00    -0.157 C  
HETATM   11  C   UNL     1      -6.719   8.319  65.510  1.00  0.00    -0.055 C  
BRANCH   9  12
HETATM   12  N   UNL     1      -8.530  10.893  64.757  1.00  0.00    -0.369 N  
HETATM   13  O   UNL     1     -10.849  11.041  64.947  1.00  0.00    -0.250 OA 
HETATM   14  H   UNL     1      -7.657  11.400  64.903  1.00  0.00     0.000 HD 
HETATM   15  C   UNL     1      -9.719  11.464  65.162  1.00  0.00    -0.244 C  
BRANCH  15  16
HETATM   16  C   UNL     1      -9.541  12.725  66.013  1.00  0.00    -0.178 C  
HETATM   17  O   UNL     1      -8.887  12.625  67.040  1.00  0.00    -0.202 OA 
HETATM   18  N   UNL     1     -10.237  13.794  65.499  1.00  0.00    -0.318 N  
HETATM   19  H   UNL     1     -10.706  13.676  64.601  1.00  0.00     0.000 HD 
BRANCH  18  20
HETATM   20  C   UNL     1     -10.337  15.028  66.134  1.00  0.00    -0.299 A  
HETATM   21  C   UNL     1     -11.101  16.323  68.005  1.00  0.00    -0.299 A  
HETATM   22 CL   UNL     1     -10.283  18.874  68.389  1.00  0.00    -0.437 Cl 
HETATM   23  C   UNL     1     -11.105  15.120  67.293  1.00  0.00    -0.332 A  
HETATM   24  C   UNL     1      -9.679  17.235  66.333  1.00  0.00    -0.290 A  
HETATM   25  N   UNL     1      -9.655  16.075  65.642  1.00  0.00    -0.427 NA 
HETATM   26  C   UNL     1     -10.364  17.397  67.522  1.00  0.00    -0.351 A  
ENDBRANCH  18  20
ENDBRANCH  15  16
ENDBRANCH   9  12
BRANCH  10  27
HETATM   27  N   UNL     1      -9.083   8.517  66.326  1.00  0.00    -0.173 N  
HETATM   28  O   UNL     1      -9.385   6.260  66.393  1.00  0.00    -0.157 OA 
HETATM   29  C   UNL     1      -9.585   7.358  66.912  1.00  0.00    -0.187 C  
HETATM   30  H   UNL     1      -9.319   9.428  66.720  1.00  0.00     0.000 HD 
BRANCH  29  31
HETATM   31  C   UNL     1     -10.328   7.539  68.159  1.00  0.00    -0.200 A  
HETATM   32  N   UNL     1     -10.606   8.712  68.712  1.00  0.00    -0.184 NA 
HETATM   33  C   UNL     1     -11.719   9.592  70.809  1.00  0.00    -0.390 C  
HETATM   34  C   UNL     1     -14.226   7.970  71.612  1.00  0.00    -0.452 C  
HETATM   35  C   UNL     1     -11.264   8.488  69.915  1.00  0.00    -0.032 A  
HETATM   36  C   UNL     1     -12.105   9.030  72.201  1.00  0.00    -0.342 C  
HETATM   37  C   UNL     1     -11.500   7.169  70.230  1.00  0.00    -0.247 A  
HETATM   38  N   UNL     1     -12.895   7.774  72.186  1.00  0.00    -0.217 NA 
HETATM   39  C   UNL     1     -12.159   6.689  71.490  1.00  0.00    -0.355 C  
HETATM   40  S   UNL     1     -10.883   6.150  69.027  1.00  0.00    -0.365 SA 
ENDBRANCH  29  31
ENDBRANCH  10  27
ENDBRANCH   4   6
TORSDOF 6
ENDMDL
MODEL       19
REMARK 921   NORMALIZED FREE ENERGY PREDICTED BY IDOCK:   -5.66 KCAL/MOL
REMARK 922        TOTAL FREE ENERGY PREDICTED BY IDOCK:   -8.57 KCAL/MOL
REMARK 923 INTER-LIGAND FREE ENERGY PREDICTED BY IDOCK:   -8.11 KCAL/MOL
REMARK 924 INTRA-LIGAND FREE ENERGY PREDICTED BY IDOCK:   -0.45 KCAL/MOL
REMARK 927      BINDING AFFINITY PREDICTED BY RF-SCORE:    0.00 PKD
ROOT
HETATM    1  C   UNL     1     -11.888   4.391  72.989  1.00  0.00     0.160 C  
HETATM    2  N   UNL     1     -11.077   5.524  73.416  1.00  0.00    -0.272 N  
HETATM    3  C   UNL     1     -10.196   5.301  74.550  1.00  0.00    -0.272 C  
HETATM    4  C   UNL     1     -11.098   6.641  72.590  1.00  0.00    -0.257 C  
HETATM    5  O   UNL     1     -11.820   6.636  71.586  1.00  0.00    -0.304 OA 
ENDROOT
BRANCH   4   6
HETATM    6  C   UNL     1     -10.300   7.922  72.940  1.00  0.00    -0.413 C  
HETATM    7  C   UNL     1      -8.787   7.755  73.087  1.00  0.00    -0.260 C  
HETATM    8  C   UNL     1      -8.100   7.413  71.770  1.00  0.00    -0.105 C  
HETATM    9  C   UNL     1      -8.372   8.432  70.654  1.00  0.00    -0.125 C  
HETATM   10  C   UNL     1      -9.888   8.760  70.525  1.00  0.00    -0.188 C  
HETATM   11  C   UNL     1     -10.555   9.044  71.890  1.00  0.00    -0.388 C  
BRANCH   9  12
HETATM   12  N   UNL     1      -7.554   9.626  70.828  1.00  0.00    -0.082 N  
HETATM   13  O   UNL     1      -6.928   9.849  68.593  1.00  0.00    -0.061 OA 
HETATM   14  H   UNL     1      -7.418  10.006  71.764  1.00  0.00     0.000 HD 
HETATM   15  C   UNL     1      -6.961  10.251  69.750  1.00  0.00    -0.129 C  
BRANCH  15  16
HETATM   16  C   UNL     1      -6.344  11.612  70.089  1.00  0.00    -0.060 C  
HETATM   17  O   UNL     1      -5.642  11.681  71.085  1.00  0.00    -0.336 OA 
HETATM   18  N   UNL     1      -6.760  12.594  69.219  1.00  0.00    -0.216 N  
HETATM   19  H   UNL     1      -7.335  12.320  68.423  1.00  0.00     0.000 HD 
BRANCH  18  20
HETATM   20  C   UNL     1      -6.440  13.940  69.366  1.00  0.00    -0.119 A  
HETATM   21  C   UNL     1      -6.675  16.206  68.607  1.00  0.00    -0.128 A  
HETATM   22 CL   UNL     1      -5.783  18.291  70.082  1.00  0.00    -0.241 Cl 
HETATM   23  C   UNL     1      -6.880  14.839  68.397  1.00  0.00    -0.104 A  
HETATM   24  C   UNL     1      -5.554  15.660  70.631  1.00  0.00    -0.081 A  
HETATM   25  N   UNL     1      -5.761  14.337  70.455  1.00  0.00    -0.142 NA 
HETATM   26  C   UNL     1      -6.009  16.625  69.753  1.00  0.00    -0.222 A  
ENDBRANCH  18  20
ENDBRANCH  15  16
ENDBRANCH   9  12
BRANCH  10  27
HETATM   27  N   UNL     1     -10.145   9.821  69.540  1.00  0.00    -0.202 N  
HETATM   28  O   UNL     1     -10.386   8.327  67.836  1.00  0.00    -0.209 OA 
HETATM   29  C   UNL     1     -10.433   9.497  68.216  1.00  0.00    -0.223 C  
HETATM   30  H   UNL     1     -10.112  10.799  69.827  1.00  0.00     0.000 HD 
BRANCH  29  31
HETATM   31  C   UNL     1     -10.802  10.614  67.347  1.00  0.00    -0.296 A  
HETATM   32  N   UNL     1     -11.702  11.542  67.646  1.00  0.00    -0.594 NA 
HETATM   33  C   UNL     1     -12.769  13.558  66.547  1.00  0.00     0.020 C  
HETATM   34  C   UNL     1     -10.766  15.217  64.874  1.00  0.00    -0.400 C  
HETATM   35  C   UNL     1     -11.830  12.398  66.559  1.00  0.00    -0.339 A  
HETATM   36  C   UNL     1     -12.928  14.103  65.105  1.00  0.00    -0.177 C  
HETATM   37  C   UNL     1     -11.013  12.127  65.486  1.00  0.00    -0.301 A  
HETATM   38  N   UNL     1     -11.673  14.212  64.320  1.00  0.00    -0.374 NA 
HETATM   39  C   UNL     1     -11.007  12.892  64.194  1.00  0.00    -0.408 C  
HETATM   40  S   UNL     1     -10.056  10.765  65.794  1.00  0.00    -0.265 SA 
ENDBRANCH  29  31
ENDBRANCH  10  27
ENDBRANCH   4   6
TORSDOF 6
ENDMDL
MODEL       20
REMARK 921   NORMALIZED FREE ENERGY PREDICTED BY IDOCK:   -5.65 KCAL/MOL
REMARK 922        TOTAL FREE ENERGY PREDICTED BY IDOCK:   -8.54 KCAL/MOL
REMARK 923 INTER-LIGAND FREE ENERGY PREDICTED BY IDOCK:   -8.11 KCAL/MOL
REMARK 924 INTRA-LIGAND FREE ENERGY PREDICTED BY IDOCK:   -0.43 KCAL/MOL
REMARK 927      BINDING AFFINITY PREDICTED BY RF-SCORE:    0.00 PKD
ROOT
HETATM    1  C   UNL     1      -9.046  19.414  66.332  1.00  0.00    -0.360 C  
HETATM    2  N   UNL     1      -8.696  18.428  67.347  1.00  0.00    -0.258 N  
HETATM    3  C   UNL     1      -7.327  18.454  67.833  1.00  0.00    -0.235 C  
HETATM    4  C   UNL     1      -9.746  17.684  67.870  1.00  0.00    -0.295 C  
HETATM    5  O   UNL     1     -10.888  17.858  67.428  1.00  0.00    -0.339 OA 
ENDROOT
BRANCH   4   6
HETATM    6  C   UNL     1      -9.509  16.586  68.936  1.00  0.00    -0.260 C  
HETATM    7  C   UNL     1     -10.702  16.242  69.828  1.00  0.00    -0.345 C  
HETATM    8  C   UNL     1     -11.838  15.572  69.062  1.00  0.00    -0.373 C  
HETATM    9  C   UNL     1     -11.406  14.302  68.314  1.00  0.00    -0.289 C  
HETATM   10  C   UNL     1     -10.113  14.532  67.480  1.00  0.00    -0.228 C  
HETATM   11  C   UNL     1      -9.011  15.265  68.278  1.00  0.00    -0.176 C  
BRANCH   9  12
HETATM   12  N   UNL     1     -11.289  13.173  69.228  1.00  0.00    -0.354 N  
HETATM   13  O   UNL     1     -12.143  11.563  67.775  1.00  0.00    -0.626 OA 
HETATM   14  H   UNL     1     -10.958  13.332  70.179  1.00  0.00     0.000 HD 
HETATM   15  C   UNL     1     -11.619  11.893  68.832  1.00  0.00    -0.311 C  
BRANCH  15  16
HETATM   16  C   UNL     1     -11.210  10.811  69.836  1.00  0.00    -0.300 C  
HETATM   17  O   UNL     1     -11.890  10.690  70.843  1.00  0.00    -0.332 OA 
HETATM   18  N   UNL     1     -10.051  10.173  69.459  1.00  0.00    -0.224 N  
HETATM   19  H   UNL     1      -9.646  10.406  68.552  1.00  0.00     0.000 HD 
BRANCH  18  20
HETATM   20  C   UNL     1      -9.400   9.228  70.246  1.00  0.00    -0.239 A  
HETATM   21  C   UNL     1      -9.244   6.968  71.042  1.00  0.00    -0.155 A  
HETATM   22 CL   UNL     1      -7.074   6.095  72.403  1.00  0.00    -0.082 Cl 
HETATM   23  C   UNL     1      -9.960   7.958  70.362  1.00  0.00    -0.192 A  
HETATM   24  C   UNL     1      -7.563   8.587  71.495  1.00  0.00    -0.108 A  
HETATM   25  N   UNL     1      -8.232   9.551  70.826  1.00  0.00    -0.288 NA 
HETATM   26  C   UNL     1      -8.015   7.287  71.608  1.00  0.00    -0.096 A  
ENDBRANCH  18  20
ENDBRANCH  15  16
ENDBRANCH   9  12
BRANCH  10  27
HETATM   27  N   UNL     1      -9.627  13.293  66.855  1.00  0.00    -0.242 N  
HETATM   28  O   UNL     1      -8.136  12.906  68.534  1.00  0.00    -0.142 OA 
HETATM   29  C   UNL     1      -8.660  12.517  67.490  1.00  0.00    -0.183 C  
HETATM   30  H   UNL     1     -10.000  13.000  65.952  1.00  0.00     0.000 HD 
BRANCH  29  31
HETATM   31  C   UNL     1      -8.341  11.240  66.852  1.00  0.00    -0.155 A  
HETATM   32  N   UNL     1      -7.431  10.380  67.291  1.00  0.00    -0.094 NA 
HETATM   33  C   UNL     1      -6.430   8.166  66.578  1.00  0.00    -0.055 C  
HETATM   34  C   UNL     1      -8.522   6.230  65.380  1.00  0.00    -0.129 C  
HETATM   35  C   UNL     1      -7.361   9.318  66.398  1.00  0.00    -0.092 A  
HETATM   36  C   UNL     1      -6.346   7.336  65.272  1.00  0.00    -0.038 C  
HETATM   37  C   UNL     1      -8.230   9.376  65.333  1.00  0.00    -0.125 A  
HETATM   38  N   UNL     1      -7.640   7.087  64.589  1.00  0.00    -0.099 NA 
HETATM   39  C   UNL     1      -8.306   8.363  64.227  1.00  0.00    -0.083 C  
HETATM   40  S   UNL     1      -9.165  10.786  65.401  1.00  0.00    -0.213 SA 
ENDBRANCH  29  31
ENDBRANCH  10  27
ENDBRANCH   4   6
TORSDOF 6
ENDMDL
MODEL       21
REMARK 921   NORMALIZED FREE ENERGY PREDICTED BY IDOCK:   -5.51 KCAL/MOL
REMARK 922        TOTAL FREE ENERGY PREDICTED BY IDOCK:   -8.36 KCAL/MOL
REMARK 923 INTER-LIGAND FREE ENERGY PREDICTED BY IDOCK:   -8.16 KCAL/MOL
REMARK 924 INTRA-LIGAND FREE ENERGY PREDICTED BY IDOCK:   -0.21 KCAL/MOL
REMARK 927      BINDING AFFINITY PREDICTED BY RF-SCORE:    0.00 PKD
ROOT
HETATM    1  C   UNL     1     -11.990  15.994  71.455  1.00  0.00    -0.449 C  
HETATM    2  N   UNL     1     -12.374  14.910  70.560  1.00  0.00    -0.319 N  
HETATM    3  C   UNL     1     -13.534  14.127  70.949  1.00  0.00    -0.090 C  
HETATM    4  C   UNL     1     -11.703  14.849  69.344  1.00  0.00    -0.319 C  
HETATM    5  O   UNL     1     -10.806  15.666  69.108  1.00  0.00    -0.218 OA 
ENDROOT
BRANCH   4   6
HETATM    6  C   UNL     1     -11.998  13.732  68.312  1.00  0.00    -0.392 C  
HETATM    7  C   UNL     1     -11.189  13.781  67.015  1.00  0.00    -0.326 C  
HETATM    8  C   UNL     1      -9.706  13.501  67.234  1.00  0.00    -0.236 C  
HETATM    9  C   UNL     1      -9.432  12.160  67.930  1.00  0.00    -0.195 C  
HETATM   10  C   UNL     1     -10.317  11.972  69.196  1.00  0.00     0.089 C  
HETATM   11  C   UNL     1     -11.802  12.322  68.943  1.00  0.00    -0.355 C  
BRANCH   9  12
HETATM   12  N   UNL     1      -9.554  11.052  66.992  1.00  0.00    -0.176 N  
HETATM   13  O   UNL     1      -7.269  10.719  66.672  1.00  0.00    -0.119 OA 
HETATM   14  H   UNL     1     -10.480  10.751  66.690  1.00  0.00     0.000 HD 
HETATM   15  C   UNL     1      -8.439  10.400  66.503  1.00  0.00    -0.132 C  
BRANCH  15  16
HETATM   16  C   UNL     1      -8.763   9.121  65.725  1.00  0.00    -0.165 C  
HETATM   17  O   UNL     1      -9.202   9.246  64.593  1.00  0.00    -0.190 OA 
HETATM   18  N   UNL     1      -8.568   7.993  66.488  1.00  0.00    -0.134 N  
HETATM   19  H   UNL     1      -8.163   8.105  67.417  1.00  0.00     0.000 HD 
BRANCH  18  20
HETATM   20  C   UNL     1      -8.893   6.708  66.063  1.00  0.00    -0.139 A  
HETATM   21  C   UNL     1     -10.426   4.862  66.078  1.00  0.00    -0.327 A  
HETATM   22 CL   UNL     1     -10.155   2.784  64.366  1.00  0.00    -0.047 Cl 
HETATM   23  C   UNL     1     -10.023   6.095  66.598  1.00  0.00    -0.207 A  
HETATM   24  C   UNL     1      -8.531   4.919  64.645  1.00  0.00    -0.143 A  
HETATM   25  N   UNL     1      -8.138   6.121  65.120  1.00  0.00    -0.128 NA 
HETATM   26  C   UNL     1      -9.672   4.268  65.073  1.00  0.00    -0.189 A  
ENDBRANCH  18  20
ENDBRANCH  15  16
ENDBRANCH   9  12
BRANCH  10  27
HETATM   27  N   UNL     1     -10.146  10.642  69.801  1.00  0.00    -0.442 N  
HETATM   28  O   UNL     1     -12.023  10.864  71.074  1.00  0.00    -0.326 OA 
HETATM   29  C   UNL     1     -11.088  10.154  70.703  1.00  0.00    -0.322 C  
HETATM   30  H   UNL     1      -9.334  10.075  69.559  1.00  0.00     0.000 HD 
BRANCH  29  31
HETATM   31  C   UNL     1     -10.897   8.773  71.146  1.00  0.00    -0.268 A  
HETATM   32  N   UNL     1      -9.981   7.943  70.666  1.00  0.00    -0.186 NA 
HETATM   33  C   UNL     1      -9.280   5.528  70.966  1.00  0.00    -0.174 C  
HETATM   34  C   UNL     1      -9.415   4.594  73.910  1.00  0.00    -0.120 C  
HETATM   35  C   UNL     1     -10.141   6.706  71.278  1.00  0.00    -0.188 A  
HETATM   36  C   UNL     1      -9.910   4.236  71.545  1.00  0.00    -0.189 C  
HETATM   37  C   UNL     1     -11.140   6.633  72.221  1.00  0.00    -0.258 A  
HETATM   38  N   UNL     1     -10.462   4.353  72.918  1.00  0.00    -0.180 NA 
HETATM   39  C   UNL     1     -11.518   5.394  72.980  1.00  0.00    -0.259 C  
HETATM   40  S   UNL     1     -11.935   8.121  72.366  1.00  0.00    -0.341 SA 
ENDBRANCH  29  31
ENDBRANCH  10  27
ENDBRANCH   4   6
TORSDOF 6
ENDMDL
MODEL       22
REMARK 921   NORMALIZED FREE ENERGY PREDICTED BY IDOCK:   -5.40 KCAL/MOL
REMARK 922        TOTAL FREE ENERGY PREDICTED BY IDOCK:   -8.21 KCAL/MOL
REMARK 923 INTER-LIGAND FREE ENERGY PREDICTED BY IDOCK:   -7.20 KCAL/MOL
REMARK 924 INTRA-LIGAND FREE ENERGY PREDICTED BY IDOCK:   -1.01 KCAL/MOL
REMARK 927      BINDING AFFINITY PREDICTED BY RF-SCORE:    0.00 PKD
ROOT
HETATM    1  C   UNL     1     -10.526   3.962  74.546  1.00  0.00    -0.204 C  
HETATM    2  N   UNL     1      -9.502   4.103  73.519  1.00  0.00    -0.103 N  
HETATM    3  C   UNL     1      -8.516   3.039  73.434  1.00  0.00    -0.073 C  
HETATM    4  C   UNL     1      -9.676   5.145  72.616  1.00  0.00    -0.152 C  
HETATM    5  O   UNL     1     -10.639   5.908  72.752  1.00  0.00    -0.203 OA 
ENDROOT
BRANCH   4   6
HETATM    6  C   UNL     1      -8.648   5.420  71.490  1.00  0.00    -0.131 C  
HETATM    7  C   UNL     1      -8.606   4.402  70.350  1.00  0.00    -0.106 C  
HETATM    8  C   UNL     1      -9.875   4.408  69.506  1.00  0.00    -0.258 C  
HETATM    9  C   UNL     1     -10.212   5.786  68.916  1.00  0.00    -0.204 C  
HETATM   10  C   UNL     1     -10.147   6.908  69.992  1.00  0.00    -0.182 C  
HETATM   11  C   UNL     1      -8.872   6.828  70.862  1.00  0.00    -0.146 C  
BRANCH   9  12
HETATM   12  N   UNL     1      -9.378   6.073  67.756  1.00  0.00    -0.107 N  
HETATM   13  O   UNL     1     -10.765   5.070  66.174  1.00  0.00    -0.315 OA 
HETATM   14  H   UNL     1      -8.479   6.536  67.888  1.00  0.00     0.000 HD 
HETATM   15  C   UNL     1      -9.782   5.732  66.481  1.00  0.00    -0.159 C  
BRANCH  15  16
HETATM   16  C   UNL     1      -8.899   6.320  65.375  1.00  0.00     0.016 C  
HETATM   17  O   UNL     1      -8.361   5.538  64.607  1.00  0.00    -0.134 OA 
HETATM   18  N   UNL     1      -8.793   7.688  65.477  1.00  0.00    -0.360 N  
HETATM   19  H   UNL     1      -9.353   8.163  66.184  1.00  0.00     0.000 HD 
BRANCH  18  20
HETATM   20  C   UNL     1      -7.964   8.460  64.668  1.00  0.00    -0.147 A  
HETATM   21  C   UNL     1      -7.720  10.231  63.067  1.00  0.00    -0.145 A  
HETATM   22 CL   UNL     1      -5.289  11.225  62.415  1.00  0.00    -0.165 Cl 
HETATM   23  C   UNL     1      -8.549   9.363  63.784  1.00  0.00    -0.224 A  
HETATM   24  C   UNL     1      -5.846   9.179  64.083  1.00  0.00    -0.071 A  
HETATM   25  N   UNL     1      -6.631   8.346  64.799  1.00  0.00    -0.067 NA 
HETATM   26  C   UNL     1      -6.343  10.146  63.230  1.00  0.00    -0.140 A  
ENDBRANCH  18  20
ENDBRANCH  15  16
ENDBRANCH   9  12
BRANCH  10  27
HETATM   27  N   UNL     1     -10.352   8.245  69.413  1.00  0.00    -0.219 N  
HETATM   28  O   UNL     1     -11.841   8.834  71.034  1.00  0.00    -0.286 OA 
HETATM   29  C   UNL     1     -11.191   9.162  70.041  1.00  0.00    -0.150 C  
HETATM   30  H   UNL     1      -9.877   8.501  68.547  1.00  0.00     0.000 HD 
BRANCH  29  31
HETATM   31  C   UNL     1     -11.225  10.504  69.459  1.00  0.00    -0.271 A  
HETATM   32  N   UNL     1     -11.560  11.607  70.116  1.00  0.00    -0.263 NA 
HETATM   33  C   UNL     1     -11.876  14.071  69.628  1.00  0.00    -0.386 C  
HETATM   34  C   UNL     1      -9.763  15.189  67.666  1.00  0.00    -0.211 C  
HETATM   35  C   UNL     1     -11.540  12.673  69.226  1.00  0.00    -0.318 A  
HETATM   36  C   UNL     1     -12.090  14.952  68.371  1.00  0.00    -0.131 C  
HETATM   37  C   UNL     1     -11.164  12.369  67.939  1.00  0.00    -0.266 A  
HETATM   38  N   UNL     1     -11.105  14.757  67.277  1.00  0.00    -0.322 NA 
HETATM   39  C   UNL     1     -11.107  13.350  66.804  1.00  0.00    -0.292 C  
HETATM   40  S   UNL     1     -10.835  10.715  67.788  1.00  0.00    -0.306 SA 
ENDBRANCH  29  31
ENDBRANCH  10  27
ENDBRANCH   4   6
TORSDOF 6
ENDMDL
MODEL       23
REMARK 921   NORMALIZED FREE ENERGY PREDICTED BY IDOCK:   -5.35 KCAL/MOL
REMARK 922        TOTAL FREE ENERGY PREDICTED BY IDOCK:   -8.15 KCAL/MOL
REMARK 923 INTER-LIGAND FREE ENERGY PREDICTED BY IDOCK:   -8.76 KCAL/MOL
REMARK 924 INTRA-LIGAND FREE ENERGY PREDICTED BY IDOCK:    0.61 KCAL/MOL
REMARK 927      BINDING AFFINITY PREDICTED BY RF-SCORE:    0.00 PKD
ROOT
HETATM    1  C   UNL     1     -10.964   2.528  73.191  1.00  0.00    -0.121 C  
HETATM    2  N   UNL     1     -10.133   3.341  72.313  1.00  0.00    -0.162 N  
HETATM    3  C   UNL     1      -9.313   2.627  71.350  1.00  0.00    -0.133 C  
HETATM    4  C   UNL     1     -10.340   4.714  72.367  1.00  0.00    -0.199 C  
HETATM    5  O   UNL     1     -11.165   5.169  73.169  1.00  0.00    -0.298 OA 
ENDROOT
BRANCH   4   6
HETATM    6  C   UNL     1      -9.507   5.694  71.504  1.00  0.00    -0.177 C  
HETATM    7  C   UNL     1      -9.456   5.397  70.005  1.00  0.00    -0.212 C  
HETATM    8  C   UNL     1     -10.806   5.583  69.321  1.00  0.00    -0.202 C  
HETATM    9  C   UNL     1     -11.407   6.983  69.521  1.00  0.00    -0.092 C  
HETATM   10  C   UNL     1     -11.375   7.419  71.014  1.00  0.00    -0.275 C  
HETATM   11  C   UNL     1     -10.006   7.159  71.683  1.00  0.00    -0.186 C  
BRANCH   9  12
HETATM   12  N   UNL     1     -10.769   7.953  68.640  1.00  0.00    -0.397 N  
HETATM   13  O   UNL     1     -10.988   6.717  66.676  1.00  0.00    -0.274 OA 
HETATM   14  H   UNL     1     -10.380   8.808  69.036  1.00  0.00     0.000 HD 
HETATM   15  C   UNL     1     -10.683   7.738  67.279  1.00  0.00    -0.255 C  
BRANCH  15  16
HETATM   16  C   UNL     1     -10.202   8.959  66.490  1.00  0.00    -0.249 C  
HETATM   17  O   UNL     1      -9.263   8.803  65.726  1.00  0.00    -0.214 OA 
HETATM   18  N   UNL     1     -10.888  10.099  66.840  1.00  0.00    -0.161 N  
HETATM   19  H   UNL     1     -11.669  10.010  67.490  1.00  0.00     0.000 HD 
BRANCH  18  20
HETATM   20  C   UNL     1     -10.576  11.367  66.357  1.00  0.00    -0.263 A  
HETATM   21  C   UNL     1     -11.173  13.258  65.005  1.00  0.00    -0.325 A  
HETATM   22 CL   UNL     1      -9.811  15.591  65.155  1.00  0.00    -0.203 Cl 
HETATM   23  C   UNL     1     -11.407  11.936  65.395  1.00  0.00    -0.334 A  
HETATM   24  C   UNL     1      -9.296  13.289  66.463  1.00  0.00    -0.213 A  
HETATM   25  N   UNL     1      -9.518  12.019  66.867  1.00  0.00    -0.198 NA 
HETATM   26  C   UNL     1     -10.104  13.951  65.560  1.00  0.00    -0.298 A  
ENDBRANCH  18  20
ENDBRANCH  15  16
ENDBRANCH   9  12
BRANCH  10  27
HETATM   27  N   UNL     1     -11.839   8.802  71.198  1.00  0.00    -0.292 N  
HETATM   28  O   UNL     1      -9.874   9.674  70.443  1.00  0.00    -0.248 OA 
HETATM   29  C   UNL     1     -11.024   9.872  70.835  1.00  0.00    -0.322 C  
HETATM   30  H   UNL     1     -12.763   8.979  71.594  1.00  0.00     0.000 HD 
BRANCH  29  31
HETATM   31  C   UNL     1     -11.626  11.201  70.935  1.00  0.00     0.186 A  
HETATM   32  N   UNL     1     -12.460  11.585  71.893  1.00  0.00     0.015 NA 
HETATM   33  C   UNL     1     -13.826  13.630  72.495  1.00  0.00    -0.620 C  
HETATM   34  C   UNL     1     -12.337  16.281  71.931  1.00  0.00    -0.237 C  
HETATM   35  C   UNL     1     -12.873  12.884  71.623  1.00  0.00    -0.268 A  
HETATM   36  C   UNL     1     -14.343  14.896  71.765  1.00  0.00    -0.578 C  
HETATM   37  C   UNL     1     -12.327  13.463  70.501  1.00  0.00    -0.329 A  
HETATM   38  N   UNL     1     -13.315  15.673  71.029  1.00  0.00    -0.568 NA 
HETATM   39  C   UNL     1     -12.654  14.838  69.995  1.00  0.00    -0.224 C  
HETATM   40  S   UNL     1     -11.278  12.385  69.724  1.00  0.00     0.165 SA 
ENDBRANCH  29  31
ENDBRANCH  10  27
ENDBRANCH   4   6
TORSDOF 6
ENDMDL
MODEL       24
REMARK 921   NORMALIZED FREE ENERGY PREDICTED BY IDOCK:   -5.35 KCAL/MOL
REMARK 922        TOTAL FREE ENERGY PREDICTED BY IDOCK:   -8.14 KCAL/MOL
REMARK 923 INTER-LIGAND FREE ENERGY PREDICTED BY IDOCK:   -7.22 KCAL/MOL
REMARK 924 INTRA-LIGAND FREE ENERGY PREDICTED BY IDOCK:   -0.92 KCAL/MOL
REMARK 927      BINDING AFFINITY PREDICTED BY RF-SCORE:    0.00 PKD
ROOT
HETATM    1  C   UNL     1      -8.862   2.599  74.442  1.00  0.00    -0.074 C  
HETATM    2  N   UNL     1      -9.920   3.379  73.813  1.00  0.00    -0.112 N  
HETATM    3  C   UNL     1     -11.116   2.654  73.419  1.00  0.00    -0.183 C  
HETATM    4  C   UNL     1      -9.750   4.758  73.814  1.00  0.00    -0.134 C  
HETATM    5  O   UNL     1      -8.717   5.239  74.294  1.00  0.00    -0.116 OA 
ENDROOT
BRANCH   4   6
HETATM    6  C   UNL     1     -10.787   5.703  73.157  1.00  0.00    -0.321 C  
HETATM    7  C   UNL     1     -10.677   7.184  73.519  1.00  0.00    -0.375 C  
HETATM    8  C   UNL     1      -9.407   7.831  72.978  1.00  0.00    -0.298 C  
HETATM    9  C   UNL     1      -9.247   7.688  71.457  1.00  0.00    -0.135 C  
HETATM   10  C   UNL     1      -9.476   6.223  70.986  1.00  0.00    -0.175 C  
HETATM   11  C   UNL     1     -10.742   5.588  71.604  1.00  0.00    -0.296 C  
BRANCH   9  12
HETATM   12  N   UNL     1     -10.093   8.642  70.753  1.00  0.00    -0.190 N  
HETATM   13  O   UNL     1      -8.378  10.063  70.063  1.00  0.00    -0.188 OA 
HETATM   14  H   UNL     1     -11.105   8.517  70.765  1.00  0.00     0.000 HD 
HETATM   15  C   UNL     1      -9.552   9.711  70.068  1.00  0.00    -0.243 C  
BRANCH  15  16
HETATM   16  C   UNL     1     -10.563  10.463  69.197  1.00  0.00    -0.228 C  
HETATM   17  O   UNL     1     -11.737  10.140  69.290  1.00  0.00    -0.134 OA 
HETATM   18  N   UNL     1      -9.949  11.369  68.363  1.00  0.00    -0.198 N  
HETATM   19  H   UNL     1      -8.944  11.510  68.463  1.00  0.00     0.000 HD 
BRANCH  18  20
HETATM   20  C   UNL     1     -10.622  12.103  67.392  1.00  0.00    -0.226 A  
HETATM   21  C   UNL     1     -11.917  14.037  66.803  1.00  0.00    -0.473 A  
HETATM   22 CL   UNL     1     -12.400  14.683  64.221  1.00  0.00    -0.476 Cl 
HETATM   23  C   UNL     1     -11.349  13.223  67.788  1.00  0.00    -0.327 A  
HETATM   24  C   UNL     1     -11.084  12.528  65.167  1.00  0.00    -0.299 A  
HETATM   25  N   UNL     1     -10.512  11.740  66.103  1.00  0.00    -0.237 NA 
HETATM   26  C   UNL     1     -11.770  13.688  65.466  1.00  0.00    -0.337 A  
ENDBRANCH  18  20
ENDBRANCH  15  16
ENDBRANCH   9  12
BRANCH  10  27
HETATM   27  N   UNL     1      -9.441   6.099  69.521  1.00  0.00    -0.139 N  
HETATM   28  O   UNL     1      -7.378   5.130  69.546  1.00  0.00    -0.055 OA 
HETATM   29  C   UNL     1      -8.358   5.489  68.892  1.00  0.00    -0.102 C  
HETATM   30  H   UNL     1     -10.213   6.462  68.962  1.00  0.00     0.000 HD 
BRANCH  29  31
HETATM   31  C   UNL     1      -8.478   5.298  67.447  1.00  0.00    -0.106 A  
HETATM   32  N   UNL     1      -7.767   5.947  66.534  1.00  0.00    -0.098 NA 
HETATM   33  C   UNL     1      -7.620   6.093  64.011  1.00  0.00    -0.093 C  
HETATM   34  C   UNL     1      -7.970   3.351  62.625  1.00  0.00    -0.071 C  
HETATM   35  C   UNL     1      -8.200   5.552  65.275  1.00  0.00    -0.136 A  
HETATM   36  C   UNL     1      -8.522   5.724  62.806  1.00  0.00    -0.009 C  
HETATM   37  C   UNL     1      -9.194   4.601  65.256  1.00  0.00    -0.156 A  
HETATM   38  N   UNL     1      -9.040   4.333  62.798  1.00  0.00    -0.118 NA 
HETATM   39  C   UNL     1      -9.840   4.055  64.016  1.00  0.00    -0.160 C  
HETATM   40  S   UNL     1      -9.640   4.174  66.833  1.00  0.00    -0.202 SA 
ENDBRANCH  29  31
ENDBRANCH  10  27
ENDBRANCH   4   6
TORSDOF 6
ENDMDL
MODEL       25
REMARK 921   NORMALIZED FREE ENERGY PREDICTED BY IDOCK:   -5.33 KCAL/MOL
REMARK 922        TOTAL FREE ENERGY PREDICTED BY IDOCK:   -8.11 KCAL/MOL
REMARK 923 INTER-LIGAND FREE ENERGY PREDICTED BY IDOCK:   -7.59 KCAL/MOL
REMARK 924 INTRA-LIGAND FREE ENERGY PREDICTED BY IDOCK:   -0.52 KCAL/MOL
REMARK 927      BINDING AFFINITY PREDICTED BY RF-SCORE:    0.00 PKD
ROOT
HETATM    1  C   UNL     1     -10.491  16.834  67.840  1.00  0.00    -0.335 C  
HETATM    2  N   UNL     1     -11.143  15.595  68.244  1.00  0.00    -0.320 N  
HETATM    3  C   UNL     1     -11.888  15.628  69.490  1.00  0.00    -0.372 C  
HETATM    4  C   UNL     1     -11.132  14.563  67.312  1.00  0.00    -0.312 C  
HETATM    5  O   UNL     1     -10.547  14.727  66.236  1.00  0.00    -0.291 OA 
ENDROOT
BRANCH   4   6
HETATM    6  C   UNL     1     -11.769  13.185  67.623  1.00  0.00    -0.414 C  
HETATM    7  C   UNL     1     -12.025  12.274  66.422  1.00  0.00    -0.286 C  
HETATM    8  C   UNL     1     -10.738  11.787  65.766  1.00  0.00    -0.328 C  
HETATM    9  C   UNL     1      -9.793  11.062  66.735  1.00  0.00    -0.197 C  
HETATM   10  C   UNL     1      -9.581  11.867  68.050  1.00  0.00    -0.193 C  
HETATM   11  C   UNL     1     -10.907  12.390  68.649  1.00  0.00    -0.273 C  
BRANCH   9  12
HETATM   12  N   UNL     1     -10.244   9.698  66.980  1.00  0.00    -0.230 N  
HETATM   13  O   UNL     1      -8.677   8.648  65.610  1.00  0.00    -0.163 OA 
HETATM   14  H   UNL     1     -11.060   9.539  67.570  1.00  0.00     0.000 HD 
HETATM   15  C   UNL     1      -9.587   8.616  66.430  1.00  0.00    -0.247 C  
BRANCH  15  16
HETATM   16  C   UNL     1     -10.050   7.265  66.984  1.00  0.00    -0.246 C  
HETATM   17  O   UNL     1     -11.131   6.842  66.607  1.00  0.00    -0.243 OA 
HETATM   18  N   UNL     1      -9.168   6.761  67.912  1.00  0.00    -0.114 N  
HETATM   19  H   UNL     1      -8.294   7.263  68.067  1.00  0.00     0.000 HD 
BRANCH  18  20
HETATM   20  C   UNL     1      -9.401   5.605  68.650  1.00  0.00    -0.123 A  
HETATM   21  C   UNL     1      -9.100   3.239  68.918  1.00  0.00    -0.207 A  
HETATM   22 CL   UNL     1      -9.761   1.980  71.221  1.00  0.00    -0.214 Cl 
HETATM   23  C   UNL     1      -8.987   4.384  68.124  1.00  0.00    -0.146 A  
HETATM   24  C   UNL     1     -10.092   4.586  70.607  1.00  0.00    -0.162 A  
HETATM   25  N   UNL     1      -9.973   5.706  69.862  1.00  0.00    -0.187 NA 
HETATM   26  C   UNL     1      -9.652   3.345  70.190  1.00  0.00    -0.140 A  
ENDBRANCH  18  20
ENDBRANCH  15  16
ENDBRANCH   9  12
BRANCH  10  27
HETATM   27  N   UNL     1      -8.773  11.127  69.030  1.00  0.00    -0.359 N  
HETATM   28  O   UNL     1     -10.555   9.888  69.723  1.00  0.00    -0.227 OA 
HETATM   29  C   UNL     1      -9.347  10.113  69.794  1.00  0.00    -0.150 C  
HETATM   30  H   UNL     1      -7.786  11.357  69.152  1.00  0.00     0.000 HD 
BRANCH  29  31
HETATM   31  C   UNL     1      -8.431   9.352  70.643  1.00  0.00    -0.193 A  
HETATM   32  N   UNL     1      -8.711   8.923  71.866  1.00  0.00    -0.370 NA 
HETATM   33  C   UNL     1      -7.541   7.703  73.751  1.00  0.00    -0.159 C  
HETATM   34  C   UNL     1      -5.701   5.427  72.752  1.00  0.00    -0.023 C  
HETATM   35  C   UNL     1      -7.583   8.298  72.384  1.00  0.00    -0.120 A  
HETATM   36  C   UNL     1      -6.078   7.391  74.155  1.00  0.00    -0.076 C  
HETATM   37  C   UNL     1      -6.497   8.236  71.542  1.00  0.00    -0.049 A  
HETATM   38  N   UNL     1      -5.241   6.771  73.097  1.00  0.00    -0.037 NA 
HETATM   39  C   UNL     1      -5.164   7.644  71.899  1.00  0.00    -0.035 C  
HETATM   40  S   UNL     1      -6.844   8.982  70.063  1.00  0.00    -0.050 SA 
ENDBRANCH  29  31
ENDBRANCH  10  27
ENDBRANCH   4   6
TORSDOF 6
ENDMDL
MODEL       26
REMARK 921   NORMALIZED FREE ENERGY PREDICTED BY IDOCK:   -5.26 KCAL/MOL
REMARK 922        TOTAL FREE ENERGY PREDICTED BY IDOCK:   -8.02 KCAL/MOL
REMARK 923 INTER-LIGAND FREE ENERGY PREDICTED BY IDOCK:   -7.65 KCAL/MOL
REMARK 924 INTRA-LIGAND FREE ENERGY PREDICTED BY IDOCK:   -0.37 KCAL/MOL
REMARK 927      BINDING AFFINITY PREDICTED BY RF-SCORE:    0.00 PKD
ROOT
HETATM    1  C   UNL     1      -8.960   1.885  74.072  1.00  0.00    -0.065 C  
HETATM    2  N   UNL     1     -10.033   2.691  73.505  1.00  0.00    -0.100 N  
HETATM    3  C   UNL     1     -11.344   2.069  73.433  1.00  0.00    -0.189 C  
HETATM    4  C   UNL     1      -9.735   4.025  73.257  1.00  0.00    -0.116 C  
HETATM    5  O   UNL     1      -8.592   4.440  73.480  1.00  0.00    -0.097 OA 
ENDROOT
BRANCH   4   6
HETATM    6  C   UNL     1     -10.778   4.986  72.634  1.00  0.00    -0.279 C  
HETATM    7  C   UNL     1     -11.058   6.274  73.409  1.00  0.00    -0.071 C  
HETATM    8  C   UNL     1      -9.863   7.221  73.431  1.00  0.00    -0.324 C  
HETATM    9  C   UNL     1      -9.351   7.595  72.031  1.00  0.00    -0.142 C  
HETATM   10  C   UNL     1      -9.165   6.341  71.128  1.00  0.00    -0.153 C  
HETATM   11  C   UNL     1     -10.376   5.382  71.182  1.00  0.00    -0.304 C  
BRANCH   9  12
HETATM   12  N   UNL     1     -10.204   8.605  71.418  1.00  0.00    -0.230 N  
HETATM   13  O   UNL     1      -8.500   9.777  70.343  1.00  0.00    -0.188 OA 
HETATM   14  H   UNL     1     -11.205   8.601  71.615  1.00  0.00     0.000 HD 
HETATM   15  C   UNL     1      -9.684   9.567  70.576  1.00  0.00    -0.263 C  
BRANCH  15  16
HETATM   16  C   UNL     1     -10.750  10.387  69.843  1.00  0.00    -0.279 C  
HETATM   17  O   UNL     1     -11.920  10.114  70.059  1.00  0.00    -0.220 OA 
HETATM   18  N   UNL     1     -10.191  11.289  68.967  1.00  0.00    -0.337 N  
HETATM   19  H   UNL     1      -9.175  11.382  68.956  1.00  0.00     0.000 HD 
BRANCH  18  20
HETATM   20  C   UNL     1     -10.933  12.080  68.095  1.00  0.00    -0.230 A  
HETATM   21  C   UNL     1     -11.792  14.241  67.504  1.00  0.00    -0.429 A  
HETATM   22 CL   UNL     1     -12.927  14.701  65.091  1.00  0.00    -0.018 Cl 
HETATM   23  C   UNL     1     -11.162  13.411  68.435  1.00  0.00    -0.311 A  
HETATM   24  C   UNL     1     -11.986  12.365  66.057  1.00  0.00    -0.350 A  
HETATM   25  N   UNL     1     -11.361  11.552  66.936  1.00  0.00    -0.420 NA 
HETATM   26  C   UNL     1     -12.201  13.710  66.286  1.00  0.00    -0.436 A  
ENDBRANCH  18  20
ENDBRANCH  15  16
ENDBRANCH   9  12
BRANCH  10  27
HETATM   27  N   UNL     1      -8.789   6.699  69.752  1.00  0.00    -0.143 N  
HETATM   28  O   UNL     1     -10.953   6.653  69.037  1.00  0.00    -0.265 OA 
HETATM   29  C   UNL     1      -9.770   6.879  68.780  1.00  0.00    -0.137 C  
HETATM   30  H   UNL     1      -7.806   6.815  69.509  1.00  0.00     0.000 HD 
BRANCH  29  31
HETATM   31  C   UNL     1      -9.304   7.361  67.480  1.00  0.00    -0.130 A  
HETATM   32  N   UNL     1      -9.635   8.527  66.940  1.00  0.00    -0.179 NA 
HETATM   33  C   UNL     1      -9.230   9.789  64.783  1.00  0.00    -0.319 C  
HETATM   34  C   UNL     1      -6.345   9.461  63.720  1.00  0.00    -0.094 C  
HETATM   35  C   UNL     1      -9.057   8.609  65.679  1.00  0.00    -0.164 A  
HETATM   36  C   UNL     1      -8.759   9.445  63.347  1.00  0.00    -0.204 C  
HETATM   37  C   UNL     1      -8.283   7.535  65.306  1.00  0.00    -0.129 A  
HETATM   38  N   UNL     1      -7.491   8.680  63.256  1.00  0.00    -0.102 NA 
HETATM   39  C   UNL     1      -7.595   7.388  63.980  1.00  0.00    -0.110 C  
HETATM   40  S   UNL     1      -8.265   6.361  66.526  1.00  0.00    -0.116 SA 
ENDBRANCH  29  31
ENDBRANCH  10  27
ENDBRANCH   4   6
TORSDOF 6
ENDMDL
MODEL       27
REMARK 921   NORMALIZED FREE ENERGY PREDICTED BY IDOCK:   -5.24 KCAL/MOL
REMARK 922        TOTAL FREE ENERGY PREDICTED BY IDOCK:   -7.99 KCAL/MOL
REMARK 923 INTER-LIGAND FREE ENERGY PREDICTED BY IDOCK:   -7.28 KCAL/MOL
REMARK 924 INTRA-LIGAND FREE ENERGY PREDICTED BY IDOCK:   -0.71 KCAL/MOL
REMARK 927      BINDING AFFINITY PREDICTED BY RF-SCORE:    0.00 PKD
ROOT
HETATM    1  C   UNL     1     -11.728  15.527  68.334  1.00  0.00    -0.309 C  
HETATM    2  N   UNL     1     -11.590  14.457  67.354  1.00  0.00    -0.357 N  
HETATM    3  C   UNL     1     -11.267  14.859  65.996  1.00  0.00    -0.327 C  
HETATM    4  C   UNL     1     -11.607  13.160  67.853  1.00  0.00    -0.336 C  
HETATM    5  O   UNL     1     -11.780  12.981  69.064  1.00  0.00    -0.290 OA 
ENDROOT
BRANCH   4   6
HETATM    6  C   UNL     1     -11.494  11.931  66.916  1.00  0.00    -0.390 C  
HETATM    7  C   UNL     1     -10.351  11.959  65.901  1.00  0.00    -0.277 C  
HETATM    8  C   UNL     1      -8.978  11.871  66.557  1.00  0.00    -0.199 C  
HETATM    9  C   UNL     1      -8.804  10.636  67.453  1.00  0.00    -0.132 C  
HETATM   10  C   UNL     1      -9.999  10.460  68.434  1.00  0.00    -0.162 C  
HETATM   11  C   UNL     1     -11.370  10.613  67.738  1.00  0.00    -0.320 C  
BRANCH   9  12
HETATM   12  N   UNL     1      -8.554   9.444  66.654  1.00  0.00    -0.129 N  
HETATM   13  O   UNL     1      -6.230   9.486  66.830  1.00  0.00    -0.063 OA 
HETATM   14  H   UNL     1      -9.339   8.961  66.217  1.00  0.00     0.000 HD 
HETATM   15  C   UNL     1      -7.276   8.954  66.477  1.00  0.00    -0.085 C  
BRANCH  15  16
HETATM   16  C   UNL     1      -7.229   7.573  65.816  1.00  0.00    -0.066 C  
HETATM   17  O   UNL     1      -6.413   7.402  64.924  1.00  0.00    -0.037 OA 
HETATM   18  N   UNL     1      -8.206   6.737  66.305  1.00  0.00    -0.115 N  
HETATM   19  H   UNL     1      -8.778   7.068  67.082  1.00  0.00     0.000 HD 
BRANCH  18  20
HETATM   20  C   UNL     1      -8.457   5.465  65.799  1.00  0.00    -0.131 A  
HETATM   21  C   UNL     1      -8.802   3.123  66.198  1.00  0.00    -0.141 A  
HETATM   22 CL   UNL     1      -9.695   1.473  64.248  1.00  0.00    -0.122 Cl 
HETATM   23  C   UNL     1      -8.422   4.382  66.674  1.00  0.00    -0.105 A  
HETATM   24  C   UNL     1      -9.116   4.100  64.054  1.00  0.00    -0.144 A  
HETATM   25  N   UNL     1      -8.772   5.327  64.500  1.00  0.00    -0.116 NA 
HETATM   26  C   UNL     1      -9.168   2.983  64.864  1.00  0.00    -0.148 A  
ENDBRANCH  18  20
ENDBRANCH  15  16
ENDBRANCH   9  12
BRANCH  10  27
HETATM   27  N   UNL     1      -9.899   9.217  69.213  1.00  0.00    -0.170 N  
HETATM   28  O   UNL     1     -11.112  10.077  70.940  1.00  0.00    -0.328 OA 
HETATM   29  C   UNL     1     -10.536   9.107  70.447  1.00  0.00    -0.223 C  
HETATM   30  H   UNL     1      -9.359   8.431  68.849  1.00  0.00     0.000 HD 
BRANCH  29  31
HETATM   31  C   UNL     1     -10.485   7.789  71.081  1.00  0.00    -0.208 A  
HETATM   32  N   UNL     1      -9.808   6.748  70.612  1.00  0.00    -0.179 NA 
HETATM   33  C   UNL     1      -9.448   4.313  71.202  1.00  0.00    -0.233 C  
HETATM   34  C   UNL     1      -9.199   3.836  74.248  1.00  0.00    -0.088 C  
HETATM   35  C   UNL     1     -10.047   5.659  71.440  1.00  0.00    -0.200 A  
HETATM   36  C   UNL     1     -10.157   3.249  72.079  1.00  0.00    -0.108 C  
HETATM   37  C   UNL     1     -10.861   5.899  72.523  1.00  0.00    -0.247 A  
HETATM   38  N   UNL     1     -10.431   3.653  73.480  1.00  0.00    -0.162 NA 
HETATM   39  C   UNL     1     -11.285   4.866  73.527  1.00  0.00    -0.298 C  
HETATM   40  S   UNL     1     -11.377   7.511  72.536  1.00  0.00    -0.337 SA 
ENDBRANCH  29  31
ENDBRANCH  10  27
ENDBRANCH   4   6
TORSDOF 6
ENDMDL
MODEL       28
REMARK 921   NORMALIZED FREE ENERGY PREDICTED BY IDOCK:   -5.21 KCAL/MOL
REMARK 922        TOTAL FREE ENERGY PREDICTED BY IDOCK:   -7.95 KCAL/MOL
REMARK 923 INTER-LIGAND FREE ENERGY PREDICTED BY IDOCK:   -8.31 KCAL/MOL
REMARK 924 INTRA-LIGAND FREE ENERGY PREDICTED BY IDOCK:    0.36 KCAL/MOL
REMARK 927      BINDING AFFINITY PREDICTED BY RF-SCORE:    0.00 PKD
ROOT
HETATM    1  C   UNL     1      -7.078   3.441  65.358  1.00  0.00    -0.062 C  
HETATM    2  N   UNL     1      -8.383   4.048  65.585  1.00  0.00    -0.108 N  
HETATM    3  C   UNL     1      -9.542   3.234  65.261  1.00  0.00    -0.088 C  
HETATM    4  C   UNL     1      -8.387   5.268  66.251  1.00  0.00    -0.114 C  
HETATM    5  O   UNL     1      -7.310   5.786  66.567  1.00  0.00    -0.076 OA 
ENDROOT
BRANCH   4   6
HETATM    6  C   UNL     1      -9.704   6.031  66.535  1.00  0.00    -0.183 C  
HETATM    7  C   UNL     1     -10.377   5.740  67.877  1.00  0.00    -0.266 C  
HETATM    8  C   UNL     1      -9.563   6.241  69.065  1.00  0.00    -0.138 C  
HETATM    9  C   UNL     1      -9.239   7.741  68.997  1.00  0.00    -0.143 C  
HETATM   10  C   UNL     1      -8.669   8.148  67.607  1.00  0.00    -0.130 C  
HETATM   11  C   UNL     1      -9.491   7.571  66.433  1.00  0.00    -0.208 C  
BRANCH   9  12
HETATM   12  N   UNL     1     -10.393   8.542  69.385  1.00  0.00    -0.213 N  
HETATM   13  O   UNL     1     -10.702   7.567  71.480  1.00  0.00    -0.218 OA 
HETATM   14  H   UNL     1     -10.781   9.214  68.724  1.00  0.00     0.000 HD 
HETATM   15  C   UNL     1     -10.972   8.408  70.631  1.00  0.00    -0.243 C  
BRANCH  15  16
HETATM   16  C   UNL     1     -12.012   9.487  70.948  1.00  0.00    -0.295 C  
HETATM   17  O   UNL     1     -13.165   9.125  71.122  1.00  0.00    -0.266 OA 
HETATM   18  N   UNL     1     -11.468  10.750  70.912  1.00  0.00    -0.331 N  
HETATM   19  H   UNL     1     -10.461  10.837  70.775  1.00  0.00     0.000 HD 
BRANCH  18  20
HETATM   20  C   UNL     1     -12.214  11.916  71.053  1.00  0.00    -0.169 A  
HETATM   21  C   UNL     1     -13.836  13.185  72.287  1.00  0.00    -0.586 A  
HETATM   22 CL   UNL     1     -14.278  15.803  71.766  1.00  0.00    -0.347 Cl 
HETATM   23  C   UNL     1     -13.178  11.973  72.057  1.00  0.00    -0.481 A  
HETATM   24  C   UNL     1     -12.613  14.119  70.476  1.00  0.00    -0.342 A  
HETATM   25  N   UNL     1     -11.952  12.962  70.252  1.00  0.00    -0.327 NA 
HETATM   26  C   UNL     1     -13.538  14.282  71.488  1.00  0.00    -0.355 A  
ENDBRANCH  18  20
ENDBRANCH  15  16
ENDBRANCH   9  12
BRANCH  10  27
HETATM   27  N   UNL     1      -8.467   9.600  67.494  1.00  0.00    -0.125 N  
HETATM   28  O   UNL     1     -10.660   9.974  67.000  1.00  0.00    -0.240 OA 
HETATM   29  C   UNL     1      -9.545  10.442  67.231  1.00  0.00    -0.156 C  
HETATM   30  H   UNL     1      -7.532   9.993  67.608  1.00  0.00     0.000 HD 
BRANCH  29  31
HETATM   31  C   UNL     1      -9.263  11.877  67.268  1.00  0.00    -0.179 A  
HETATM   32  N   UNL     1     -10.082  12.822  66.825  1.00  0.00    -0.232 NA 
HETATM   33  C   UNL     1     -10.085  15.340  66.555  1.00  0.00    -0.280 C  
HETATM   34  C   UNL     1      -8.742  16.806  68.923  1.00  0.00    -0.224 C  
HETATM   35  C   UNL     1      -9.451  14.052  66.964  1.00  0.00    -0.250 A  
HETATM   36  C   UNL     1      -9.026  16.471  66.520  1.00  0.00    -0.278 C  
HETATM   37  C   UNL     1      -8.199  14.020  67.533  1.00  0.00    -0.186 A  
HETATM   38  N   UNL     1      -8.075  16.492  67.660  1.00  0.00    -0.161 NA 
HETATM   39  C   UNL     1      -7.319  15.218  67.746  1.00  0.00    -0.163 C  
HETATM   40  S   UNL     1      -7.752  12.429  67.901  1.00  0.00    -0.150 SA 
ENDBRANCH  29  31
ENDBRANCH  10  27
ENDBRANCH   4   6
TORSDOF 6
ENDMDL
MODEL       29
REMARK 921   NORMALIZED FREE ENERGY PREDICTED BY IDOCK:   -5.03 KCAL/MOL
REMARK 922        TOTAL FREE ENERGY PREDICTED BY IDOCK:   -7.71 KCAL/MOL
REMARK 923 INTER-LIGAND FREE ENERGY PREDICTED BY IDOCK:   -7.23 KCAL/MOL
REMARK 924 INTRA-LIGAND FREE ENERGY PREDICTED BY IDOCK:   -0.48 KCAL/MOL
REMARK 927      BINDING AFFINITY PREDICTED BY RF-SCORE:    0.00 PKD
ROOT
HETATM    1  C   UNL     1     -10.511   2.490  72.409  1.00  0.00    -0.051 C  
HETATM    2  N   UNL     1     -10.299   3.867  72.837  1.00  0.00    -0.163 N  
HETATM    3  C   UNL     1     -10.178   4.091  74.267  1.00  0.00    -0.192 C  
HETATM    4  C   UNL     1     -10.059   4.794  71.830  1.00  0.00    -0.193 C  
HETATM    5  O   UNL     1     -10.083   4.424  70.650  1.00  0.00    -0.205 OA 
ENDROOT
BRANCH   4   6
HETATM    6  C   UNL     1      -9.842   6.295  72.145  1.00  0.00    -0.171 C  
HETATM    7  C   UNL     1      -8.426   6.700  72.557  1.00  0.00    -0.123 C  
HETATM    8  C   UNL     1      -7.419   6.559  71.421  1.00  0.00    -0.089 C  
HETATM    9  C   UNL     1      -7.804   7.345  70.159  1.00  0.00    -0.099 C  
HETATM   10  C   UNL     1      -9.282   7.089  69.746  1.00  0.00    -0.147 C  
HETATM   11  C   UNL     1     -10.260   7.186  70.938  1.00  0.00    -0.207 C  
BRANCH   9  12
HETATM   12  N   UNL     1      -7.503   8.762  70.317  1.00  0.00    -0.061 N  
HETATM   13  O   UNL     1      -5.891   8.883  68.638  1.00  0.00    -0.040 OA 
HETATM   14  H   UNL     1      -7.963   9.292  71.058  1.00  0.00     0.000 HD 
HETATM   15  C   UNL     1      -6.608   9.403  69.484  1.00  0.00    -0.044 C  
BRANCH  15  16
HETATM   16  C   UNL     1      -6.598  10.926  69.642  1.00  0.00    -0.123 C  
HETATM   17  O   UNL     1      -6.275  11.378  70.729  1.00  0.00    -0.343 OA 
HETATM   18  N   UNL     1      -7.045  11.563  68.507  1.00  0.00    -0.081 N  
HETATM   19  H   UNL     1      -7.244  10.995  67.683  1.00  0.00     0.000 HD 
BRANCH  18  20
HETATM   20  C   UNL     1      -7.242  12.937  68.420  1.00  0.00    -0.113 A  
HETATM   21  C   UNL     1      -8.751  14.804  68.406  1.00  0.00    -0.169 A  
HETATM   22 CL   UNL     1      -7.854  17.350  68.587  1.00  0.00    -0.271 Cl 
HETATM   23  C   UNL     1      -8.546  13.421  68.360  1.00  0.00    -0.134 A  
HETATM   24  C   UNL     1      -6.392  15.087  68.467  1.00  0.00    -0.092 A  
HETATM   25  N   UNL     1      -6.175  13.754  68.445  1.00  0.00    -0.090 NA 
HETATM   26  C   UNL     1      -7.652  15.652  68.473  1.00  0.00    -0.132 A  
ENDBRANCH  18  20
ENDBRANCH  15  16
ENDBRANCH   9  12
BRANCH  10  27
HETATM   27  N   UNL     1      -9.693   7.927  68.609  1.00  0.00    -0.155 N  
HETATM   28  O   UNL     1     -10.405   9.610  69.971  1.00  0.00    -0.221 OA 
HETATM   29  C   UNL     1     -10.205   9.204  68.826  1.00  0.00    -0.210 C  
HETATM   30  H   UNL     1      -9.603   7.572  67.657  1.00  0.00     0.000 HD 
BRANCH  29  31
HETATM   31  C   UNL     1     -10.461  10.005  67.629  1.00  0.00    -0.246 A  
HETATM   32  N   UNL     1      -9.954   9.758  66.429  1.00  0.00    -0.233 NA 
HETATM   33  C   UNL     1      -9.968  10.803  64.123  1.00  0.00    -0.405 C  
HETATM   34  C   UNL     1     -12.721  11.980  63.352  1.00  0.00    -0.398 C  
HETATM   35  C   UNL     1     -10.364  10.762  65.561  1.00  0.00    -0.241 A  
HETATM   36  C   UNL     1     -10.293  12.192  63.517  1.00  0.00    -0.441 C  
HETATM   37  C   UNL     1     -11.189  11.719  66.104  1.00  0.00    -0.306 A  
HETATM   38  N   UNL     1     -11.611  12.762  63.895  1.00  0.00    -0.416 NA 
HETATM   39  C   UNL     1     -11.723  12.914  65.367  1.00  0.00    -0.375 C  
HETATM   40  S   UNL     1     -11.471  11.404  67.743  1.00  0.00    -0.256 SA 
ENDBRANCH  29  31
ENDBRANCH  10  27
ENDBRANCH   4   6
TORSDOF 6
ENDMDL
MODEL       30
REMARK 921   NORMALIZED FREE ENERGY PREDICTED BY IDOCK:   -5.01 KCAL/MOL
REMARK 922        TOTAL FREE ENERGY PREDICTED BY IDOCK:   -7.68 KCAL/MOL
REMARK 923 INTER-LIGAND FREE ENERGY PREDICTED BY IDOCK:   -7.64 KCAL/MOL
REMARK 924 INTRA-LIGAND FREE ENERGY PREDICTED BY IDOCK:   -0.04 KCAL/MOL
REMARK 927      BINDING AFFINITY PREDICTED BY RF-SCORE:    0.00 PKD
ROOT
HETATM    1  C   UNL     1     -10.648  17.450  68.223  1.00  0.00    -0.366 C  
HETATM    2  N   UNL     1     -10.858  16.310  67.340  1.00  0.00    -0.286 N  
HETATM    3  C   UNL     1     -10.534  16.506  65.937  1.00  0.00    -0.323 C  
HETATM    4  C   UNL     1     -11.176  15.105  67.956  1.00  0.00    -0.323 C  
HETATM    5  O   UNL     1     -11.308  15.071  69.184  1.00  0.00    -0.263 OA 
ENDROOT
BRANCH   4   6
HETATM    6  C   UNL     1     -11.448  13.822  67.132  1.00  0.00    -0.365 C  
HETATM    7  C   UNL     1     -10.505  13.561  65.957  1.00  0.00    -0.299 C  
HETATM    8  C   UNL     1      -9.081  13.248  66.402  1.00  0.00    -0.062 C  
HETATM    9  C   UNL     1      -8.989  12.061  67.373  1.00  0.00    -0.176 C  
HETATM   10  C   UNL     1     -10.016  12.184  68.536  1.00  0.00    -0.175 C  
HETATM   11  C   UNL     1     -11.432  12.559  68.044  1.00  0.00    -0.368 C  
BRANCH   9  12
HETATM   12  N   UNL     1      -9.099  10.795  66.660  1.00  0.00    -0.157 N  
HETATM   13  O   UNL     1      -6.899  10.731  65.889  1.00  0.00    -0.132 OA 
HETATM   14  H   UNL     1      -9.999  10.319  66.621  1.00  0.00     0.000 HD 
HETATM   15  C   UNL     1      -8.006  10.227  66.036  1.00  0.00    -0.138 C  
BRANCH  15  16
HETATM   16  C   UNL     1      -8.249   8.796  65.548  1.00  0.00    -0.132 C  
HETATM   17  O   UNL     1      -8.535   8.642  64.371  1.00  0.00    -0.160 OA 
HETATM   18  N   UNL     1      -8.173   7.884  66.575  1.00  0.00    -0.110 N  
HETATM   19  H   UNL     1      -7.889   8.218  67.496  1.00  0.00     0.000 HD 
BRANCH  18  20
HETATM   20  C   UNL     1      -8.462   6.531  66.428  1.00  0.00    -0.124 A  
HETATM   21  C   UNL     1     -10.098   4.787  66.215  1.00  0.00    -0.291 A  
HETATM   22 CL   UNL     1      -9.398   2.268  65.518  1.00  0.00    -0.046 Cl 
HETATM   23  C   UNL     1      -9.792   6.123  66.492  1.00  0.00    -0.179 A  
HETATM   24  C   UNL     1      -7.773   4.379  65.937  1.00  0.00    -0.094 A  
HETATM   25  N   UNL     1      -7.460   5.670  66.182  1.00  0.00    -0.081 NA 
HETATM   26  C   UNL     1      -9.069   3.901  65.919  1.00  0.00    -0.146 A  
ENDBRANCH  18  20
ENDBRANCH  15  16
ENDBRANCH   9  12
BRANCH  10  27
HETATM   27  N   UNL     1     -10.016  10.997  69.403  1.00  0.00    -0.429 N  
HETATM   28  O   UNL     1     -11.338   9.818  67.970  1.00  0.00    -0.099 OA 
HETATM   29  C   UNL     1     -10.674   9.835  69.006  1.00  0.00    -0.217 C  
HETATM   30  H   UNL     1      -9.532  11.024  70.301  1.00  0.00     0.000 HD 
BRANCH  29  31
HETATM   31  C   UNL     1     -10.505   8.671  69.876  1.00  0.00    -0.218 A  
HETATM   32  N   UNL     1     -11.494   8.028  70.483  1.00  0.00    -0.235 NA 
HETATM   33  C   UNL     1     -11.778   6.105  72.105  1.00  0.00    -0.361 C  
HETATM   34  C   UNL     1      -9.825   3.771  71.557  1.00  0.00    -0.165 C  
HETATM   35  C   UNL     1     -10.948   7.023  71.272  1.00  0.00    -0.243 A  
HETATM   36  C   UNL     1     -10.882   5.335  73.108  1.00  0.00    -0.287 C  
HETATM   37  C   UNL     1      -9.578   6.903  71.222  1.00  0.00    -0.165 A  
HETATM   38  N   UNL     1      -9.605   4.815  72.557  1.00  0.00    -0.136 NA 
HETATM   39  C   UNL     1      -8.771   5.917  72.016  1.00  0.00    -0.137 C  
HETATM   40  S   UNL     1      -8.914   8.069  70.189  1.00  0.00    -0.151 SA 
ENDBRANCH  29  31
ENDBRANCH  10  27
ENDBRANCH   4   6
TORSDOF 6
ENDMDL
MODEL       31
REMARK 921   NORMALIZED FREE ENERGY PREDICTED BY IDOCK:   -4.99 KCAL/MOL
REMARK 922        TOTAL FREE ENERGY PREDICTED BY IDOCK:   -7.65 KCAL/MOL
REMARK 923 INTER-LIGAND FREE ENERGY PREDICTED BY IDOCK:   -7.72 KCAL/MOL
REMARK 924 INTRA-LIGAND FREE ENERGY PREDICTED BY IDOCK:    0.07 KCAL/MOL
REMARK 927      BINDING AFFINITY PREDICTED BY RF-SCORE:    0.00 PKD
ROOT
HETATM    1  C   UNL     1     -12.213  14.676  64.416  1.00  0.00    -0.452 C  
HETATM    2  N   UNL     1     -11.135  14.348  65.340  1.00  0.00    -0.316 N  
HETATM    3  C   UNL     1     -10.051  15.311  65.441  1.00  0.00    -0.362 C  
HETATM    4  C   UNL     1     -11.338  13.241  66.155  1.00  0.00    -0.309 C  
HETATM    5  O   UNL     1     -12.375  12.580  66.027  1.00  0.00    -0.615 OA 
ENDROOT
BRANCH   4   6
HETATM    6  C   UNL     1     -10.262  12.769  67.164  1.00  0.00    -0.235 C  
HETATM    7  C   UNL     1     -10.610  12.925  68.644  1.00  0.00    -0.256 C  
HETATM    8  C   UNL     1     -11.748  12.010  69.082  1.00  0.00    -0.389 C  
HETATM    9  C   UNL     1     -11.483  10.524  68.797  1.00  0.00    -0.224 C  
HETATM   10  C   UNL     1     -10.994  10.292  67.338  1.00  0.00    -0.252 C  
HETATM   11  C   UNL     1      -9.881  11.279  66.918  1.00  0.00    -0.220 C  
BRANCH   9  12
HETATM   12  N   UNL     1     -10.579   9.957  69.788  1.00  0.00    -0.245 N  
HETATM   13  O   UNL     1     -12.227   9.170  71.236  1.00  0.00    -0.307 OA 
HETATM   14  H   UNL     1      -9.572  10.065  69.667  1.00  0.00     0.000 HD 
HETATM   15  C   UNL     1     -11.057   9.275  70.889  1.00  0.00    -0.306 C  
BRANCH  15  16
HETATM   16  C   UNL     1      -9.970   8.549  71.687  1.00  0.00    -0.259 C  
HETATM   17  O   UNL     1      -9.001   9.202  72.044  1.00  0.00    -0.337 OA 
HETATM   18  N   UNL     1     -10.238   7.206  71.816  1.00  0.00    -0.195 N  
HETATM   19  H   UNL     1     -11.130   6.858  71.465  1.00  0.00     0.000 HD 
BRANCH  18  20
HETATM   20  C   UNL     1      -9.360   6.296  72.397  1.00  0.00    -0.141 A  
HETATM   21  C   UNL     1      -7.363   4.974  72.240  1.00  0.00    -0.091 A  
HETATM   22 CL   UNL     1      -6.313   3.733  74.403  1.00  0.00    -0.035 Cl 
HETATM   23  C   UNL     1      -8.321   5.785  71.624  1.00  0.00    -0.124 A  
HETATM   24  C   UNL     1      -8.587   5.177  74.267  1.00  0.00    -0.113 A  
HETATM   25  N   UNL     1      -9.512   5.978  73.694  1.00  0.00    -0.138 NA 
HETATM   26  C   UNL     1      -7.492   4.676  73.591  1.00  0.00    -0.082 A  
ENDBRANCH  18  20
ENDBRANCH  15  16
ENDBRANCH   9  12
BRANCH  10  27
HETATM   27  N   UNL     1     -10.626   8.889  67.093  1.00  0.00    -0.317 N  
HETATM   28  O   UNL     1      -8.399   9.369  67.061  1.00  0.00    -0.125 OA 
HETATM   29  C   UNL     1      -9.286   8.517  67.016  1.00  0.00    -0.161 C  
HETATM   30  H   UNL     1     -11.356   8.186  66.977  1.00  0.00     0.000 HD 
BRANCH  29  31
HETATM   31  C   UNL     1      -9.024   7.082  66.900  1.00  0.00    -0.126 A  
HETATM   32  N   UNL     1      -8.245   6.525  65.982  1.00  0.00    -0.121 NA 
HETATM   33  C   UNL     1      -7.533   4.202  65.271  1.00  0.00    -0.077 C  
HETATM   34  C   UNL     1      -7.046   2.307  67.665  1.00  0.00    -0.048 C  
HETATM   35  C   UNL     1      -8.289   5.146  66.145  1.00  0.00    -0.114 A  
HETATM   36  C   UNL     1      -8.042   2.754  65.480  1.00  0.00    -0.087 C  
HETATM   37  C   UNL     1      -9.063   4.692  67.187  1.00  0.00    -0.122 A  
HETATM   38  N   UNL     1      -8.285   2.358  66.890  1.00  0.00    -0.081 NA 
HETATM   39  C   UNL     1      -9.288   3.247  67.527  1.00  0.00    -0.206 C  
HETATM   40  S   UNL     1      -9.786   5.988  68.002  1.00  0.00    -0.132 SA 
ENDBRANCH  29  31
ENDBRANCH  10  27
ENDBRANCH   4   6
TORSDOF 6
ENDMDL
MODEL       32
REMARK 921   NORMALIZED FREE ENERGY PREDICTED BY IDOCK:   -4.90 KCAL/MOL
REMARK 922        TOTAL FREE ENERGY PREDICTED BY IDOCK:   -7.53 KCAL/MOL
REMARK 923 INTER-LIGAND FREE ENERGY PREDICTED BY IDOCK:   -7.19 KCAL/MOL
REMARK 924 INTRA-LIGAND FREE ENERGY PREDICTED BY IDOCK:   -0.34 KCAL/MOL
REMARK 927      BINDING AFFINITY PREDICTED BY RF-SCORE:    0.00 PKD
ROOT
HETATM    1  C   UNL     1     -11.717  16.167  71.105  1.00  0.00    -0.407 C  
HETATM    2  N   UNL     1     -12.048  15.094  70.175  1.00  0.00    -0.320 N  
HETATM    3  C   UNL     1     -12.880  14.021  70.690  1.00  0.00    -0.253 C  
HETATM    4  C   UNL     1     -11.683  15.296  68.849  1.00  0.00    -0.342 C  
HETATM    5  O   UNL     1     -11.072  16.326  68.541  1.00  0.00    -0.337 OA 
ENDROOT
BRANCH   4   6
HETATM    6  C   UNL     1     -11.955  14.226  67.763  1.00  0.00    -0.384 C  
HETATM    7  C   UNL     1     -11.151  14.358  66.469  1.00  0.00    -0.331 C  
HETATM    8  C   UNL     1      -9.661  14.103  66.671  1.00  0.00    -0.297 C  
HETATM    9  C   UNL     1      -9.353  12.735  67.299  1.00  0.00    -0.200 C  
HETATM   10  C   UNL     1     -10.231  12.464  68.555  1.00  0.00    -0.205 C  
HETATM   11  C   UNL     1     -11.723  12.790  68.322  1.00  0.00    -0.388 C  
BRANCH   9  12
HETATM   12  N   UNL     1      -9.452  11.673  66.307  1.00  0.00    -0.213 N  
HETATM   13  O   UNL     1      -7.171  11.208  66.186  1.00  0.00    -0.101 OA 
HETATM   14  H   UNL     1     -10.362  11.444  65.907  1.00  0.00     0.000 HD 
HETATM   15  C   UNL     1      -8.337  10.970  65.896  1.00  0.00    -0.119 C  
BRANCH  15  16
HETATM   16  C   UNL     1      -8.661   9.744  65.037  1.00  0.00    -0.174 C  
HETATM   17  O   UNL     1      -9.659   9.796  64.335  1.00  0.00    -0.258 OA 
HETATM   18  N   UNL     1      -7.779   8.713  65.261  1.00  0.00    -0.088 N  
HETATM   19  H   UNL     1      -6.984   8.885  65.876  1.00  0.00     0.000 HD 
BRANCH  18  20
HETATM   20  C   UNL     1      -7.911   7.448  64.696  1.00  0.00    -0.123 A  
HETATM   21  C   UNL     1      -8.639   5.170  64.896  1.00  0.00    -0.151 A  
HETATM   22 CL   UNL     1      -8.739   3.523  62.751  1.00  0.00    -0.088 Cl 
HETATM   23  C   UNL     1      -8.381   6.408  65.492  1.00  0.00    -0.147 A  
HETATM   24  C   UNL     1      -7.864   6.072  62.838  1.00  0.00    -0.099 A  
HETATM   25  N   UNL     1      -7.628   7.281  63.393  1.00  0.00    -0.110 NA 
HETATM   26  C   UNL     1      -8.387   5.004  63.539  1.00  0.00    -0.123 A  
ENDBRANCH  18  20
ENDBRANCH  15  16
ENDBRANCH   9  12
BRANCH  10  27
HETATM   27  N   UNL     1     -10.026  11.110  69.092  1.00  0.00    -0.394 N  
HETATM   28  O   UNL     1      -7.786  11.436  69.349  1.00  0.00    -0.007 OA 
HETATM   29  C   UNL     1      -8.761  10.703  69.510  1.00  0.00     0.051 C  
HETATM   30  H   UNL     1     -10.815  10.467  69.160  1.00  0.00     0.000 HD 
BRANCH  29  31
HETATM   31  C   UNL     1      -8.689   9.389  70.149  1.00  0.00    -0.221 A  
HETATM   32  N   UNL     1      -9.027   9.138  71.407  1.00  0.00    -0.318 NA 
HETATM   33  C   UNL     1      -9.019   7.176  73.007  1.00  0.00    -0.161 C  
HETATM   34  C   UNL     1      -9.830   4.517  71.653  1.00  0.00    -0.190 C  
HETATM   35  C   UNL     1      -8.764   7.801  71.676  1.00  0.00    -0.118 A  
HETATM   36  C   UNL     1      -8.323   5.793  73.091  1.00  0.00    -0.117 C  
HETATM   37  C   UNL     1      -8.272   7.066  70.623  1.00  0.00    -0.119 A  
HETATM   38  N   UNL     1      -8.449   4.940  71.883  1.00  0.00    -0.121 NA 
HETATM   39  C   UNL     1      -7.883   5.617  70.691  1.00  0.00    -0.100 C  
HETATM   40  S   UNL     1      -8.100   8.037  69.246  1.00  0.00    -0.120 SA 
ENDBRANCH  29  31
ENDBRANCH  10  27
ENDBRANCH   4   6
TORSDOF 6
ENDMDL
MODEL       33
REMARK 921   NORMALIZED FREE ENERGY PREDICTED BY IDOCK:   -4.86 KCAL/MOL
REMARK 922        TOTAL FREE ENERGY PREDICTED BY IDOCK:   -7.48 KCAL/MOL
REMARK 923 INTER-LIGAND FREE ENERGY PREDICTED BY IDOCK:   -7.32 KCAL/MOL
REMARK 924 INTRA-LIGAND FREE ENERGY PREDICTED BY IDOCK:   -0.17 KCAL/MOL
REMARK 927      BINDING AFFINITY PREDICTED BY RF-SCORE:    0.00 PKD
ROOT
HETATM    1  C   UNL     1     -10.311  19.980  67.873  1.00  0.00    -0.366 C  
HETATM    2  N   UNL     1      -9.755  18.903  67.064  1.00  0.00    -0.299 N  
HETATM    3  C   UNL     1      -8.675  19.260  66.161  1.00  0.00    -0.247 C  
HETATM    4  C   UNL     1     -10.192  17.618  67.365  1.00  0.00    -0.345 C  
HETATM    5  O   UNL     1     -11.042  17.461  68.249  1.00  0.00    -0.251 OA 
ENDROOT
BRANCH   4   6
HETATM    6  C   UNL     1      -9.698  16.387  66.566  1.00  0.00    -0.287 C  
HETATM    7  C   UNL     1      -8.185  16.268  66.375  1.00  0.00    -0.354 C  
HETATM    8  C   UNL     1      -7.445  16.003  67.681  1.00  0.00    -0.171 C  
HETATM    9  C   UNL     1      -7.942  14.754  68.425  1.00  0.00    -0.138 C  
HETATM   10  C   UNL     1      -9.493  14.732  68.547  1.00  0.00    -0.214 C  
HETATM   11  C   UNL     1     -10.202  15.062  67.213  1.00  0.00    -0.242 C  
BRANCH   9  12
HETATM   12  N   UNL     1      -7.410  13.541  67.818  1.00  0.00    -0.146 N  
HETATM   13  O   UNL     1      -6.812  12.487  69.810  1.00  0.00     0.058 OA 
HETATM   14  H   UNL     1      -7.377  13.463  66.802  1.00  0.00     0.000 HD 
HETATM   15  C   UNL     1      -6.951  12.494  68.593  1.00  0.00    -0.091 C  
BRANCH  15  16
HETATM   16  C   UNL     1      -6.655  11.220  67.796  1.00  0.00    -0.068 C  
HETATM   17  O   UNL     1      -6.271  11.351  66.645  1.00  0.00    -0.135 OA 
HETATM   18  N   UNL     1      -6.954  10.085  68.514  1.00  0.00    -0.065 N  
HETATM   19  H   UNL     1      -7.242  10.193  69.486  1.00  0.00     0.000 HD 
BRANCH  18  20
HETATM   20  C   UNL     1      -6.885   8.799  67.988  1.00  0.00    -0.070 A  
HETATM   21  C   UNL     1      -7.187   7.319  66.122  1.00  0.00    -0.074 A  
HETATM   22 CL   UNL     1      -6.251   4.780  66.164  1.00  0.00    -0.034 Cl 
HETATM   23  C   UNL     1      -7.374   8.577  66.703  1.00  0.00    -0.081 A  
HETATM   24  C   UNL     1      -6.154   6.611  68.142  1.00  0.00    -0.029 A  
HETATM   25  N   UNL     1      -6.307   7.825  68.713  1.00  0.00    -0.042 NA 
HETATM   26  C   UNL     1      -6.553   6.321  66.852  1.00  0.00    -0.059 A  
ENDBRANCH  18  20
ENDBRANCH  15  16
ENDBRANCH   9  12
BRANCH  10  27
HETATM   27  N   UNL     1      -9.985  13.485  69.152  1.00  0.00    -0.404 N  
HETATM   28  O   UNL     1     -10.288  12.494  67.122  1.00  0.00    -0.219 OA 
HETATM   29  C   UNL     1     -10.315  12.396  68.349  1.00  0.00    -0.229 C  
HETATM   30  H   UNL     1     -10.084  13.417  70.165  1.00  0.00     0.000 HD 
BRANCH  29  31
HETATM   31  C   UNL     1     -10.667  11.162  69.053  1.00  0.00    -0.225 A  
HETATM   32  N   UNL     1     -10.145   9.970  68.800  1.00  0.00    -0.176 NA 
HETATM   33  C   UNL     1     -10.426   7.581  69.591  1.00  0.00    -0.235 C  
HETATM   34  C   UNL     1     -10.890   7.371  72.641  1.00  0.00    -0.303 C  
HETATM   35  C   UNL     1     -10.765   9.034  69.618  1.00  0.00    -0.219 A  
HETATM   36  C   UNL     1     -11.501   6.766  70.354  1.00  0.00    -0.365 C  
HETATM   37  C   UNL     1     -11.709   9.533  70.486  1.00  0.00    -0.222 A  
HETATM   38  N   UNL     1     -11.956   7.353  71.639  1.00  0.00    -0.293 NA 
HETATM   39  C   UNL     1     -12.530   8.706  71.433  1.00  0.00    -0.301 C  
HETATM   40  S   UNL     1     -11.868  11.208  70.296  1.00  0.00    -0.374 SA 
ENDBRANCH  29  31
ENDBRANCH  10  27
ENDBRANCH   4   6
TORSDOF 6
ENDMDL
MODEL       34
REMARK 921   NORMALIZED FREE ENERGY PREDICTED BY IDOCK:   -4.72 KCAL/MOL
REMARK 922        TOTAL FREE ENERGY PREDICTED BY IDOCK:   -7.30 KCAL/MOL
REMARK 923 INTER-LIGAND FREE ENERGY PREDICTED BY IDOCK:   -6.77 KCAL/MOL
REMARK 924 INTRA-LIGAND FREE ENERGY PREDICTED BY IDOCK:   -0.52 KCAL/MOL
REMARK 927      BINDING AFFINITY PREDICTED BY RF-SCORE:    0.00 PKD
ROOT
HETATM    1  C   UNL     1      -8.747   1.746  73.868  1.00  0.00    -0.058 C  
HETATM    2  N   UNL     1      -9.800   2.576  73.297  1.00  0.00    -0.097 N  
HETATM    3  C   UNL     1     -11.148   2.344  73.787  1.00  0.00    -0.205 C  
HETATM    4  C   UNL     1      -9.385   3.619  72.478  1.00  0.00    -0.119 C  
HETATM    5  O   UNL     1      -8.180   3.759  72.243  1.00  0.00    -0.081 OA 
ENDROOT
BRANCH   4   6
HETATM    6  C   UNL     1     -10.403   4.562  71.789  1.00  0.00    -0.175 C  
HETATM    7  C   UNL     1     -10.810   5.807  72.577  1.00  0.00    -0.294 C  
HETATM    8  C   UNL     1      -9.664   6.798  72.748  1.00  0.00    -0.170 C  
HETATM    9  C   UNL     1      -9.036   7.245  71.419  1.00  0.00    -0.142 C  
HETATM   10  C   UNL     1      -8.711   6.035  70.497  1.00  0.00    -0.138 C  
HETATM   11  C   UNL     1      -9.879   5.029  70.398  1.00  0.00    -0.301 C  
BRANCH   9  12
HETATM   12  N   UNL     1      -9.868   8.244  70.761  1.00  0.00    -0.177 N  
HETATM   13  O   UNL     1      -8.278   9.949  70.750  1.00  0.00    -0.181 OA 
HETATM   14  H   UNL     1     -10.836   8.019  70.536  1.00  0.00     0.000 HD 
HETATM   15  C   UNL     1      -9.370   9.490  70.437  1.00  0.00    -0.257 C  
BRANCH  15  16
HETATM   16  C   UNL     1     -10.302  10.314  69.544  1.00  0.00    -0.242 C  
HETATM   17  O   UNL     1     -11.480   9.994  69.510  1.00  0.00    -0.208 OA 
HETATM   18  N   UNL     1      -9.619  11.277  68.838  1.00  0.00    -0.360 N  
HETATM   19  H   UNL     1      -8.625  11.403  69.034  1.00  0.00     0.000 HD 
BRANCH  18  20
HETATM   20  C   UNL     1     -10.205  12.090  67.873  1.00  0.00    -0.196 A  
HETATM   21  C   UNL     1     -10.880  12.417  65.593  1.00  0.00    -0.312 A  
HETATM   22 CL   UNL     1     -12.470  14.484  64.871  1.00  0.00    -0.387 Cl 
HETATM   23  C   UNL     1     -10.179  11.671  66.545  1.00  0.00    -0.249 A  
HETATM   24  C   UNL     1     -11.474  13.941  67.318  1.00  0.00    -0.344 A  
HETATM   25  N   UNL     1     -10.819  13.222  68.256  1.00  0.00    -0.248 NA 
HETATM   26  C   UNL     1     -11.551  13.568  65.991  1.00  0.00    -0.338 A  
ENDBRANCH  18  20
ENDBRANCH  15  16
ENDBRANCH   9  12
BRANCH  10  27
HETATM   27  N   UNL     1      -8.219   6.460  69.177  1.00  0.00    -0.111 N  
HETATM   28  O   UNL     1     -10.325   6.576  68.313  1.00  0.00    -0.158 OA 
HETATM   29  C   UNL     1      -9.117   6.755  68.154  1.00  0.00    -0.123 C  
HETATM   30  H   UNL     1      -7.216   6.539  69.010  1.00  0.00     0.000 HD 
BRANCH  29  31
HETATM   31  C   UNL     1      -8.535   7.294  66.925  1.00  0.00    -0.119 A  
HETATM   32  N   UNL     1      -8.596   6.707  65.737  1.00  0.00    -0.151 NA 
HETATM   33  C   UNL     1      -7.732   7.104  63.390  1.00  0.00    -0.119 C  
HETATM   34  C   UNL     1      -7.815  10.083  62.565  1.00  0.00    -0.127 C  
HETATM   35  C   UNL     1      -7.880   7.476  64.828  1.00  0.00    -0.126 A  
HETATM   36  C   UNL     1      -6.621   7.958  62.728  1.00  0.00    -0.084 C  
HETATM   37  C   UNL     1      -7.326   8.631  65.329  1.00  0.00    -0.085 A  
HETATM   38  N   UNL     1      -6.628   9.401  63.079  1.00  0.00    -0.098 NA 
HETATM   39  C   UNL     1      -6.483   9.593  64.544  1.00  0.00    -0.101 C  
HETATM   40  S   UNL     1      -7.670   8.790  66.979  1.00  0.00    -0.095 SA 
ENDBRANCH  29  31
ENDBRANCH  10  27
ENDBRANCH   4   6
TORSDOF 6
ENDMDL
MODEL       35
REMARK 921   NORMALIZED FREE ENERGY PREDICTED BY IDOCK:   -4.69 KCAL/MOL
REMARK 922        TOTAL FREE ENERGY PREDICTED BY IDOCK:   -7.25 KCAL/MOL
REMARK 923 INTER-LIGAND FREE ENERGY PREDICTED BY IDOCK:   -6.61 KCAL/MOL
REMARK 924 INTRA-LIGAND FREE ENERGY PREDICTED BY IDOCK:   -0.64 KCAL/MOL
REMARK 927      BINDING AFFINITY PREDICTED BY RF-SCORE:    0.00 PKD
ROOT
HETATM    1  C   UNL     1     -10.208   3.895  74.566  1.00  0.00    -0.208 C  
HETATM    2  N   UNL     1      -9.232   4.048  73.495  1.00  0.00    -0.101 N  
HETATM    3  C   UNL     1      -8.237   2.997  73.369  1.00  0.00    -0.073 C  
HETATM    4  C   UNL     1      -9.459   5.086  72.599  1.00  0.00    -0.140 C  
HETATM    5  O   UNL     1     -10.425   5.836  72.776  1.00  0.00    -0.192 OA 
ENDROOT
BRANCH   4   6
HETATM    6  C   UNL     1      -8.485   5.373  71.429  1.00  0.00    -0.126 C  
HETATM    7  C   UNL     1      -8.462   4.341  70.301  1.00  0.00    -0.093 C  
HETATM    8  C   UNL     1      -9.764   4.305  69.508  1.00  0.00    -0.272 C  
HETATM    9  C   UNL     1     -10.159   5.666  68.916  1.00  0.00    -0.192 C  
HETATM   10  C   UNL     1     -10.080   6.803  69.976  1.00  0.00    -0.184 C  
HETATM   11  C   UNL     1      -8.770   6.767  70.794  1.00  0.00    -0.146 C  
BRANCH   9  12
HETATM   12  N   UNL     1      -9.381   5.959  67.720  1.00  0.00    -0.107 N  
HETATM   13  O   UNL     1     -10.887   5.050  66.191  1.00  0.00    -0.294 OA 
HETATM   14  H   UNL     1      -8.460   6.387  67.815  1.00  0.00     0.000 HD 
HETATM   15  C   UNL     1      -9.865   5.670  66.461  1.00  0.00    -0.168 C  
BRANCH  15  16
HETATM   16  C   UNL     1      -9.024   6.260  65.325  1.00  0.00     0.162 C  
HETATM   17  O   UNL     1      -8.609   5.492  64.472  1.00  0.00    -0.125 OA 
HETATM   18  N   UNL     1      -8.803   7.607  65.497  1.00  0.00    -0.360 N  
HETATM   19  H   UNL     1      -9.269   8.076  66.274  1.00  0.00     0.000 HD 
BRANCH  18  20
HETATM   20  C   UNL     1      -7.978   8.365  64.672  1.00  0.00    -0.147 A  
HETATM   21  C   UNL     1      -7.754   9.984  62.913  1.00  0.00    -0.137 A  
HETATM   22 CL   UNL     1      -5.369  11.120  62.331  1.00  0.00    -0.187 Cl 
HETATM   23  C   UNL     1      -8.563   9.121  63.658  1.00  0.00    -0.180 A  
HETATM   24  C   UNL     1      -5.887   9.209  64.162  1.00  0.00    -0.071 A  
HETATM   25  N   UNL     1      -6.655   8.384  64.906  1.00  0.00    -0.067 NA 
HETATM   26  C   UNL     1      -6.391  10.037  63.180  1.00  0.00    -0.133 A  
ENDBRANCH  18  20
ENDBRANCH  15  16
ENDBRANCH   9  12
BRANCH  10  27
HETATM   27  N   UNL     1     -10.343   8.126  69.390  1.00  0.00    -0.215 N  
HETATM   28  O   UNL     1      -8.247   8.268  68.506  1.00  0.00    -0.127 OA 
HETATM   29  C   UNL     1      -9.368   8.762  68.624  1.00  0.00    -0.141 C  
HETATM   30  H   UNL     1     -11.243   8.581  69.545  1.00  0.00     0.000 HD 
BRANCH  29  31
HETATM   31  C   UNL     1      -9.773  10.011  67.979  1.00  0.00    -0.139 A  
HETATM   32  N   UNL     1      -9.743  10.233  66.672  1.00  0.00    -0.178 NA 
HETATM   33  C   UNL     1     -10.209  12.139  65.071  1.00  0.00    -0.312 C  
HETATM   34  C   UNL     1     -12.676  13.817  65.884  1.00  0.00    -0.401 C  
HETATM   35  C   UNL     1     -10.136  11.545  66.438  1.00  0.00    -0.216 A  
HETATM   36  C   UNL     1     -10.346  13.680  65.163  1.00  0.00    -0.364 C  
HETATM   37  C   UNL     1     -10.482  12.272  67.554  1.00  0.00    -0.213 A  
HETATM   38  N   UNL     1     -11.292  14.178  66.193  1.00  0.00    -0.329 NA 
HETATM   39  C   UNL     1     -10.899  13.714  67.547  1.00  0.00    -0.264 C  
HETATM   40  S   UNL     1     -10.311  11.335  68.953  1.00  0.00    -0.166 SA 
ENDBRANCH  29  31
ENDBRANCH  10  27
ENDBRANCH   4   6
TORSDOF 6
ENDMDL
MODEL       36
REMARK 921   NORMALIZED FREE ENERGY PREDICTED BY IDOCK:   -4.62 KCAL/MOL
REMARK 922        TOTAL FREE ENERGY PREDICTED BY IDOCK:   -7.16 KCAL/MOL
REMARK 923 INTER-LIGAND FREE ENERGY PREDICTED BY IDOCK:   -6.81 KCAL/MOL
REMARK 924 INTRA-LIGAND FREE ENERGY PREDICTED BY IDOCK:   -0.34 KCAL/MOL
REMARK 927      BINDING AFFINITY PREDICTED BY RF-SCORE:    0.00 PKD
ROOT
HETATM    1  C   UNL     1      -5.340   1.967  63.277  1.00  0.00    -0.007 C  
HETATM    2  N   UNL     1      -6.084   2.137  64.518  1.00  0.00    -0.017 N  
HETATM    3  C   UNL     1      -5.534   1.492  65.698  1.00  0.00    -0.009 C  
HETATM    4  C   UNL     1      -7.140   3.040  64.484  1.00  0.00    -0.053 C  
HETATM    5  O   UNL     1      -7.417   3.604  63.419  1.00  0.00    -0.053 OA 
ENDROOT
BRANCH   4   6
HETATM    6  C   UNL     1      -8.027   3.296  65.728  1.00  0.00    -0.086 C  
HETATM    7  C   UNL     1      -7.339   3.163  67.086  1.00  0.00    -0.062 C  
HETATM    8  C   UNL     1      -6.293   4.246  67.326  1.00  0.00    -0.041 C  
HETATM    9  C   UNL     1      -6.847   5.673  67.198  1.00  0.00    -0.064 C  
HETATM   10  C   UNL     1      -7.678   5.856  65.896  1.00  0.00    -0.095 C  
HETATM   11  C   UNL     1      -8.685   4.707  65.663  1.00  0.00    -0.127 C  
BRANCH   9  12
HETATM   12  N   UNL     1      -7.588   6.053  68.394  1.00  0.00    -0.090 N  
HETATM   13  O   UNL     1      -6.124   7.725  69.096  1.00  0.00    -0.033 OA 
HETATM   14  H   UNL     1      -8.431   5.538  68.645  1.00  0.00     0.000 HD 
HETATM   15  C   UNL     1      -7.171   7.098  69.194  1.00  0.00    -0.086 C  
BRANCH  15  16
HETATM   16  C   UNL     1      -8.192   7.504  70.261  1.00  0.00    -0.128 C  
HETATM   17  O   UNL     1      -7.817   7.522  71.422  1.00  0.00    -0.091 OA 
HETATM   18  N   UNL     1      -9.439   7.722  69.721  1.00  0.00    -0.160 N  
HETATM   19  H   UNL     1      -9.537   7.682  68.707  1.00  0.00     0.000 HD 
BRANCH  18  20
HETATM   20  C   UNL     1     -10.572   7.994  70.481  1.00  0.00    -0.220 A  
HETATM   21  C   UNL     1     -11.930   9.589  71.654  1.00  0.00    -0.474 A  
HETATM   22 CL   UNL     1     -14.410   8.960  72.533  1.00  0.00    -0.436 Cl 
HETATM   23  C   UNL     1     -10.733   9.275  71.003  1.00  0.00    -0.387 A  
HETATM   24  C   UNL     1     -12.636   7.347  71.297  1.00  0.00    -0.340 A  
HETATM   25  N   UNL     1     -11.495   7.032  70.648  1.00  0.00    -0.307 NA 
HETATM   26  C   UNL     1     -12.905   8.608  71.792  1.00  0.00    -0.359 A  
ENDBRANCH  18  20
ENDBRANCH  15  16
ENDBRANCH   9  12
BRANCH  10  27
HETATM   27  N   UNL     1      -8.310   7.183  65.822  1.00  0.00    -0.138 N  
HETATM   28  O   UNL     1      -7.465   7.587  63.745  1.00  0.00    -0.092 OA 
HETATM   29  C   UNL     1      -8.182   7.960  64.674  1.00  0.00    -0.091 C  
HETATM   30  H   UNL     1      -8.844   7.535  66.617  1.00  0.00     0.000 HD 
BRANCH  29  31
HETATM   31  C   UNL     1      -8.954   9.202  64.650  1.00  0.00    -0.110 A  
HETATM   32  N   UNL     1      -9.828   9.569  65.578  1.00  0.00    -0.296 NA 
HETATM   33  C   UNL     1     -11.449  11.468  65.996  1.00  0.00    -0.093 C  
HETATM   34  C   UNL     1     -10.324  14.220  65.147  1.00  0.00    -0.415 C  
HETATM   35  C   UNL     1     -10.409  10.769  65.187  1.00  0.00    -0.271 A  
HETATM   36  C   UNL     1     -12.130  12.576  65.151  1.00  0.00    -0.446 C  
HETATM   37  C   UNL     1      -9.946  11.298  64.004  1.00  0.00    -0.312 A  
HETATM   38  N   UNL     1     -11.215  13.403  64.325  1.00  0.00    -0.383 NA 
HETATM   39  C   UNL     1     -10.453  12.561  63.369  1.00  0.00    -0.209 C  
HETATM   40  S   UNL     1      -8.767  10.293  63.321  1.00  0.00    -0.229 SA 
ENDBRANCH  29  31
ENDBRANCH  10  27
ENDBRANCH   4   6
TORSDOF 6
ENDMDL
MODEL       37
REMARK 921   NORMALIZED FREE ENERGY PREDICTED BY IDOCK:   -4.57 KCAL/MOL
REMARK 922        TOTAL FREE ENERGY PREDICTED BY IDOCK:   -7.09 KCAL/MOL
REMARK 923 INTER-LIGAND FREE ENERGY PREDICTED BY IDOCK:   -6.57 KCAL/MOL
REMARK 924 INTRA-LIGAND FREE ENERGY PREDICTED BY IDOCK:   -0.51 KCAL/MOL
REMARK 927      BINDING AFFINITY PREDICTED BY RF-SCORE:    0.00 PKD
ROOT
HETATM    1  C   UNL     1      -5.973   2.818  64.248  1.00  0.00    -0.014 C  
HETATM    2  N   UNL     1      -5.745   4.174  64.729  1.00  0.00    -0.014 N  
HETATM    3  C   UNL     1      -5.350   4.311  66.121  1.00  0.00    -0.009 C  
HETATM    4  C   UNL     1      -5.755   5.178  63.768  1.00  0.00    -0.017 C  
HETATM    5  O   UNL     1      -5.997   4.885  62.592  1.00  0.00    -0.016 OA 
ENDROOT
BRANCH   4   6
HETATM    6  C   UNL     1      -5.549   6.665  64.149  1.00  0.00    -0.031 C  
HETATM    7  C   UNL     1      -6.062   7.697  63.143  1.00  0.00    -0.055 C  
HETATM    8  C   UNL     1      -7.582   7.701  63.026  1.00  0.00    -0.119 C  
HETATM    9  C   UNL     1      -8.299   7.927  64.365  1.00  0.00     0.016 C  
HETATM   10  C   UNL     1      -7.741   7.002  65.485  1.00  0.00    -0.105 C  
HETATM   11  C   UNL     1      -6.196   6.984  65.530  1.00  0.00    -0.037 C  
BRANCH   9  12
HETATM   12  N   UNL     1      -8.273   9.336  64.738  1.00  0.00    -0.139 N  
HETATM   13  O   UNL     1     -10.388   9.392  65.717  1.00  0.00    -0.139 OA 
HETATM   14  H   UNL     1      -7.471   9.908  64.475  1.00  0.00     0.000 HD 
HETATM   15  C   UNL     1      -9.313   9.911  65.441  1.00  0.00    -0.239 C  
BRANCH  15  16
HETATM   16  C   UNL     1      -9.009  11.323  65.949  1.00  0.00    -0.197 C  
HETATM   17  O   UNL     1      -7.897  11.530  66.408  1.00  0.00    -0.123 OA 
HETATM   18  N   UNL     1     -10.109  12.145  65.869  1.00  0.00    -0.239 N  
HETATM   19  H   UNL     1     -10.950  11.781  65.421  1.00  0.00     0.000 HD 
BRANCH  18  20
HETATM   20  C   UNL     1     -10.140  13.444  66.366  1.00  0.00    -0.292 A  
HETATM   21  C   UNL     1     -10.113  15.808  65.949  1.00  0.00    -0.381 A  
HETATM   22 CL   UNL     1     -10.680  17.596  67.900  1.00  0.00    -0.385 Cl 
HETATM   23  C   UNL     1      -9.952  14.501  65.479  1.00  0.00    -0.373 A  
HETATM   24  C   UNL     1     -10.527  14.911  68.111  1.00  0.00    -0.242 A  
HETATM   25  N   UNL     1     -10.396  13.641  67.670  1.00  0.00    -0.237 NA 
HETATM   26  C   UNL     1     -10.419  16.016  67.289  1.00  0.00    -0.308 A  
ENDBRANCH  18  20
ENDBRANCH  15  16
ENDBRANCH   9  12
BRANCH  10  27
HETATM   27  N   UNL     1      -8.340   7.294  66.796  1.00  0.00    -0.116 N  
HETATM   28  O   UNL     1      -9.862   5.610  66.593  1.00  0.00    -0.147 OA 
HETATM   29  C   UNL     1      -9.376   6.503  67.288  1.00  0.00    -0.121 C  
HETATM   30  H   UNL     1      -7.996   8.080  67.348  1.00  0.00     0.000 HD 
BRANCH  29  31
HETATM   31  C   UNL     1      -9.813   6.794  68.653  1.00  0.00    -0.142 A  
HETATM   32  N   UNL     1     -11.037   6.584  69.118  1.00  0.00    -0.324 NA 
HETATM   33  C   UNL     1     -12.333   6.966  71.260  1.00  0.00    -0.422 C  
HETATM   34  C   UNL     1     -10.653   6.415  73.796  1.00  0.00    -0.253 C  
HETATM   35  C   UNL     1     -11.095   7.039  70.430  1.00  0.00    -0.287 A  
HETATM   36  C   UNL     1     -12.178   7.841  72.529  1.00  0.00    -0.147 C  
HETATM   37  C   UNL     1      -9.921   7.545  70.938  1.00  0.00    -0.180 A  
HETATM   38  N   UNL     1     -10.868   7.741  73.219  1.00  0.00    -0.344 NA 
HETATM   39  C   UNL     1      -9.757   8.125  72.312  1.00  0.00    -0.254 C  
HETATM   40  S   UNL     1      -8.693   7.488  69.773  1.00  0.00    -0.140 SA 
ENDBRANCH  29  31
ENDBRANCH  10  27
ENDBRANCH   4   6
TORSDOF 6
ENDMDL
MODEL       38
REMARK 921   NORMALIZED FREE ENERGY PREDICTED BY IDOCK:   -4.53 KCAL/MOL
REMARK 922        TOTAL FREE ENERGY PREDICTED BY IDOCK:   -7.03 KCAL/MOL
REMARK 923 INTER-LIGAND FREE ENERGY PREDICTED BY IDOCK:   -7.19 KCAL/MOL
REMARK 924 INTRA-LIGAND FREE ENERGY PREDICTED BY IDOCK:    0.16 KCAL/MOL
REMARK 927      BINDING AFFINITY PREDICTED BY RF-SCORE:    0.00 PKD
ROOT
HETATM    1  C   UNL     1      -6.235   2.487  63.759  1.00  0.00    -0.014 C  
HETATM    2  N   UNL     1      -7.559   2.905  64.204  1.00  0.00    -0.074 N  
HETATM    3  C   UNL     1      -8.639   1.954  64.008  1.00  0.00    -0.082 C  
HETATM    4  C   UNL     1      -7.619   4.091  64.926  1.00  0.00    -0.077 C  
HETATM    5  O   UNL     1      -6.583   4.739  65.110  1.00  0.00    -0.041 OA 
ENDROOT
BRANCH   4   6
HETATM    6  C   UNL     1      -8.966   4.660  65.436  1.00  0.00    -0.145 C  
HETATM    7  C   UNL     1      -9.448   4.142  66.791  1.00  0.00    -0.211 C  
HETATM    8  C   UNL     1      -8.560   4.592  67.945  1.00  0.00    -0.106 C  
HETATM    9  C   UNL     1      -8.399   6.117  68.036  1.00  0.00    -0.117 C  
HETATM   10  C   UNL     1      -8.036   6.744  66.659  1.00  0.00    -0.108 C  
HETATM   11  C   UNL     1      -8.924   6.216  65.509  1.00  0.00    -0.004 C  
BRANCH   9  12
HETATM   12  N   UNL     1      -9.577   6.730  68.637  1.00  0.00    -0.132 N  
HETATM   13  O   UNL     1      -9.244   5.895  70.788  1.00  0.00    -0.150 OA 
HETATM   14  H   UNL     1     -10.217   7.264  68.050  1.00  0.00     0.000 HD 
HETATM   15  C   UNL     1      -9.843   6.601  69.985  1.00  0.00    -0.165 C  
BRANCH  15  16
HETATM   16  C   UNL     1     -10.979   7.501  70.480  1.00  0.00    -0.252 C  
HETATM   17  O   UNL     1     -12.059   6.976  70.700  1.00  0.00    -0.341 OA 
HETATM   18  N   UNL     1     -10.603   8.823  70.527  1.00  0.00    -0.207 N  
HETATM   19  H   UNL     1      -9.630   9.054  70.325  1.00  0.00     0.000 HD 
BRANCH  18  20
HETATM   20  C   UNL     1     -11.475   9.863  70.833  1.00  0.00    -0.376 A  
HETATM   21  C   UNL     1     -13.174  10.769  72.266  1.00  0.00    -0.173 A  
HETATM   22 CL   UNL     1     -13.948  13.355  72.083  1.00  0.00    -0.571 Cl 
HETATM   23  C   UNL     1     -12.388   9.684  71.869  1.00  0.00    -0.437 A  
HETATM   24  C   UNL     1     -12.159  12.052  70.541  1.00  0.00    -0.311 A  
HETATM   25  N   UNL     1     -11.377  11.020  70.157  1.00  0.00    -0.281 NA 
HETATM   26  C   UNL     1     -13.047  11.981  71.597  1.00  0.00    -0.318 A  
ENDBRANCH  18  20
ENDBRANCH  15  16
ENDBRANCH   9  12
BRANCH  10  27
HETATM   27  N   UNL     1      -7.996   8.213  66.711  1.00  0.00    -0.102 N  
HETATM   28  O   UNL     1     -10.232   8.393  66.311  1.00  0.00    -0.212 OA 
HETATM   29  C   UNL     1      -9.167   8.954  66.571  1.00  0.00    -0.183 C  
HETATM   30  H   UNL     1      -7.106   8.692  66.850  1.00  0.00     0.000 HD 
BRANCH  29  31
HETATM   31  C   UNL     1      -9.041  10.398  66.769  1.00  0.00    -0.143 A  
HETATM   32  N   UNL     1      -9.975  11.289  66.463  1.00  0.00    -0.206 NA 
HETATM   33  C   UNL     1     -10.262  13.804  66.491  1.00  0.00    -0.284 C  
HETATM   34  C   UNL     1      -8.992  15.133  68.978  1.00  0.00    -0.219 C  
HETATM   35  C   UNL     1      -9.477  12.558  66.729  1.00  0.00    -0.231 A  
HETATM   36  C   UNL     1      -9.335  15.044  66.561  1.00  0.00    -0.281 C  
HETATM   37  C   UNL     1      -8.206  12.603  67.255  1.00  0.00    -0.184 A  
HETATM   38  N   UNL     1      -8.347  15.042  67.668  1.00  0.00    -0.153 NA 
HETATM   39  C   UNL     1      -7.454  13.860  67.584  1.00  0.00    -0.176 C  
HETATM   40  S   UNL     1      -7.575  11.041  67.421  1.00  0.00    -0.115 SA 
ENDBRANCH  29  31
ENDBRANCH  10  27
ENDBRANCH   4   6
TORSDOF 6
ENDMDL
MODEL       39
REMARK 921   NORMALIZED FREE ENERGY PREDICTED BY IDOCK:   -4.45 KCAL/MOL
REMARK 922        TOTAL FREE ENERGY PREDICTED BY IDOCK:   -6.93 KCAL/MOL
REMARK 923 INTER-LIGAND FREE ENERGY PREDICTED BY IDOCK:   -6.49 KCAL/MOL
REMARK 924 INTRA-LIGAND FREE ENERGY PREDICTED BY IDOCK:   -0.44 KCAL/MOL
REMARK 927      BINDING AFFINITY PREDICTED BY RF-SCORE:    0.00 PKD
ROOT
HETATM    1  C   UNL     1      -8.711   3.210  70.537  1.00  0.00    -0.072 C  
HETATM    2  N   UNL     1      -8.472   4.535  71.097  1.00  0.00    -0.103 N  
HETATM    3  C   UNL     1      -8.622   4.669  72.535  1.00  0.00    -0.115 C  
HETATM    4  C   UNL     1      -7.956   5.487  70.225  1.00  0.00    -0.101 C  
HETATM    5  O   UNL     1      -7.773   5.185  69.041  1.00  0.00    -0.079 OA 
ENDROOT
BRANCH   4   6
HETATM    6  C   UNL     1      -7.679   6.940  70.685  1.00  0.00    -0.096 C  
HETATM    7  C   UNL     1      -6.220   7.395  70.641  1.00  0.00    -0.035 C  
HETATM    8  C   UNL     1      -5.678   7.500  69.220  1.00  0.00    -0.026 C  
HETATM    9  C   UNL     1      -6.505   8.425  68.315  1.00  0.00    -0.059 C  
HETATM   10  C   UNL     1      -8.027   8.112  68.403  1.00  0.00    -0.123 C  
HETATM   11  C   UNL     1      -8.521   7.957  69.859  1.00  0.00    -0.127 C  
BRANCH   9  12
HETATM   12  N   UNL     1      -6.204   9.824  68.586  1.00  0.00    -0.043 N  
HETATM   13  O   UNL     1      -6.071  10.506  66.361  1.00  0.00    -0.072 OA 
HETATM   14  H   UNL     1      -6.085  10.132  69.551  1.00  0.00     0.000 HD 
HETATM   15  C   UNL     1      -6.078  10.742  67.563  1.00  0.00    -0.052 C  
BRANCH  15  16
HETATM   16  C   UNL     1      -6.000  12.195  68.043  1.00  0.00    -0.062 C  
HETATM   17  O   UNL     1      -5.321  12.427  69.030  1.00  0.00    -0.062 OA 
HETATM   18  N   UNL     1      -6.802  13.026  67.294  1.00  0.00    -0.332 N  
HETATM   19  H   UNL     1      -7.275  12.633  66.480  1.00  0.00     0.000 HD 
BRANCH  18  20
HETATM   20  C   UNL     1      -7.003  14.371  67.585  1.00  0.00    -0.184 A  
HETATM   21  C   UNL     1      -8.356  16.079  68.592  1.00  0.00    -0.203 A  
HETATM   22 CL   UNL     1      -7.443  18.607  68.906  1.00  0.00    -0.320 Cl 
HETATM   23  C   UNL     1      -8.204  14.752  68.179  1.00  0.00    -0.142 A  
HETATM   24  C   UNL     1      -6.193  16.533  67.718  1.00  0.00    -0.140 A  
HETATM   25  N   UNL     1      -6.019  15.251  67.330  1.00  0.00    -0.336 NA 
HETATM   26  C   UNL     1      -7.325  16.984  68.368  1.00  0.00    -0.213 A  
ENDBRANCH  18  20
ENDBRANCH  15  16
ENDBRANCH   9  12
BRANCH  10  27
HETATM   27  N   UNL     1      -8.835   9.067  67.631  1.00  0.00    -0.124 N  
HETATM   28  O   UNL     1      -9.177  10.405  69.445  1.00  0.00    -0.201 OA 
HETATM   29  C   UNL     1      -9.331  10.219  68.238  1.00  0.00    -0.138 C  
HETATM   30  H   UNL     1      -9.035   8.886  66.648  1.00  0.00     0.000 HD 
BRANCH  29  31
HETATM   31  C   UNL     1     -10.011  11.168  67.355  1.00  0.00    -0.179 A  
HETATM   32  N   UNL     1     -10.960  12.012  67.736  1.00  0.00    -0.220 NA 
HETATM   33  C   UNL     1     -12.489  13.732  66.681  1.00  0.00    -0.307 C  
HETATM   34  C   UNL     1     -11.090  15.396  64.481  1.00  0.00    -0.256 C  
HETATM   35  C   UNL     1     -11.410  12.703  66.618  1.00  0.00    -0.326 A  
HETATM   36  C   UNL     1     -12.991  14.070  65.254  1.00  0.00    -0.278 C  
HETATM   37  C   UNL     1     -10.779  12.399  65.434  1.00  0.00    -0.282 A  
HETATM   38  N   UNL     1     -11.933  14.229  64.225  1.00  0.00    -0.446 NA 
HETATM   39  C   UNL     1     -11.123  12.992  64.098  1.00  0.00    -0.401 C  
HETATM   40  S   UNL     1      -9.598  11.210  65.676  1.00  0.00    -0.234 SA 
ENDBRANCH  29  31
ENDBRANCH  10  27
ENDBRANCH   4   6
TORSDOF 6
ENDMDL
MODEL       40
REMARK 921   NORMALIZED FREE ENERGY PREDICTED BY IDOCK:   -4.13 KCAL/MOL
REMARK 922        TOTAL FREE ENERGY PREDICTED BY IDOCK:   -6.50 KCAL/MOL
REMARK 923 INTER-LIGAND FREE ENERGY PREDICTED BY IDOCK:   -5.75 KCAL/MOL
REMARK 924 INTRA-LIGAND FREE ENERGY PREDICTED BY IDOCK:   -0.75 KCAL/MOL
REMARK 927      BINDING AFFINITY PREDICTED BY RF-SCORE:    0.00 PKD
ROOT
HETATM    1  C   UNL     1      -5.224   4.694  62.498  1.00  0.00    -0.009 C  
HETATM    2  N   UNL     1      -6.599   4.929  62.921  1.00  0.00    -0.026 N  
HETATM    3  C   UNL     1      -7.611   4.052  62.358  1.00  0.00    -0.052 C  
HETATM    4  C   UNL     1      -6.778   5.848  63.948  1.00  0.00    -0.037 C  
HETATM    5  O   UNL     1      -5.794   6.439  64.408  1.00  0.00    -0.022 OA 
ENDROOT
BRANCH   4   6
HETATM    6  C   UNL     1      -8.189   6.208  64.476  1.00  0.00    -0.079 C  
HETATM    7  C   UNL     1      -8.731   5.331  65.605  1.00  0.00    -0.146 C  
HETATM    8  C   UNL     1      -7.954   5.497  66.906  1.00  0.00    -0.101 C  
HETATM    9  C   UNL     1      -7.892   6.949  67.403  1.00  0.00    -0.111 C  
HETATM   10  C   UNL     1      -7.472   7.931  66.271  1.00  0.00    -0.079 C  
HETATM   11  C   UNL     1      -8.245   7.690  64.954  1.00  0.00    -0.098 C  
BRANCH   9  12
HETATM   12  N   UNL     1      -9.143   7.333  68.043  1.00  0.00    -0.134 N  
HETATM   13  O   UNL     1      -8.646   6.461  70.147  1.00  0.00    -0.132 OA 
HETATM   14  H   UNL     1      -9.870   7.785  67.489  1.00  0.00     0.000 HD 
HETATM   15  C   UNL     1      -9.363   7.098  69.385  1.00  0.00    -0.147 C  
BRANCH  15  16
HETATM   16  C   UNL     1     -10.622   7.778  69.933  1.00  0.00    -0.239 C  
HETATM   17  O   UNL     1     -11.666   7.147  69.894  1.00  0.00    -0.129 OA 
HETATM   18  N   UNL     1     -10.375   9.072  70.330  1.00  0.00    -0.197 N  
HETATM   19  H   UNL     1      -9.412   9.407  70.307  1.00  0.00     0.000 HD 
BRANCH  18  20
HETATM   20  C   UNL     1     -11.365   9.950  70.761  1.00  0.00    -0.353 A  
HETATM   21  C   UNL     1     -13.134  10.460  72.300  1.00  0.00    -0.284 A  
HETATM   22 CL   UNL     1     -14.235  12.929  72.423  1.00  0.00    -0.291 Cl 
HETATM   23  C   UNL     1     -12.226   9.537  71.775  1.00  0.00    -0.465 A  
HETATM   24  C   UNL     1     -12.328  12.051  70.729  1.00  0.00    -0.308 A  
HETATM   25  N   UNL     1     -11.430  11.179  70.222  1.00  0.00    -0.279 NA 
HETATM   26  C   UNL     1     -13.177  11.746  71.775  1.00  0.00    -0.329 A  
ENDBRANCH  18  20
ENDBRANCH  15  16
ENDBRANCH   9  12
BRANCH  10  27
HETATM   27  N   UNL     1      -7.525   9.334  66.707  1.00  0.00    -0.086 N  
HETATM   28  O   UNL     1      -5.255   9.534  66.692  1.00  0.00    -0.042 OA 
HETATM   29  C   UNL     1      -6.351  10.072  66.844  1.00  0.00    -0.065 C  
HETATM   30  H   UNL     1      -8.425   9.770  66.910  1.00  0.00     0.000 HD 
BRANCH  29  31
HETATM   31  C   UNL     1      -6.519  11.492  67.155  1.00  0.00    -0.123 A  
HETATM   32  N   UNL     1      -5.524  12.346  67.360  1.00  0.00    -0.171 NA 
HETATM   33  C   UNL     1      -5.227  14.778  67.997  1.00  0.00    -0.111 C  
HETATM   34  C   UNL     1      -7.311  16.634  66.664  1.00  0.00    -0.255 C  
HETATM   35  C   UNL     1      -6.065  13.582  67.690  1.00  0.00    -0.111 A  
HETATM   36  C   UNL     1      -6.094  15.887  68.646  1.00  0.00    -0.101 C  
HETATM   37  C   UNL     1      -7.439  13.650  67.696  1.00  0.00    -0.183 A  
HETATM   38  N   UNL     1      -7.424  16.106  68.023  1.00  0.00    -0.129 NA 
HETATM   39  C   UNL     1      -8.240  14.867  68.059  1.00  0.00    -0.139 C  
HETATM   40  S   UNL     1      -8.112  12.147  67.301  1.00  0.00    -0.179 SA 
ENDBRANCH  29  31
ENDBRANCH  10  27
ENDBRANCH   4   6
TORSDOF 6
ENDMDL
MODEL       41
REMARK 921   NORMALIZED FREE ENERGY PREDICTED BY IDOCK:   -4.06 KCAL/MOL
REMARK 922        TOTAL FREE ENERGY PREDICTED BY IDOCK:   -6.40 KCAL/MOL
REMARK 923 INTER-LIGAND FREE ENERGY PREDICTED BY IDOCK:   -5.44 KCAL/MOL
REMARK 924 INTRA-LIGAND FREE ENERGY PREDICTED BY IDOCK:   -0.96 KCAL/MOL
REMARK 927      BINDING AFFINITY PREDICTED BY RF-SCORE:    0.00 PKD
ROOT
HETATM    1  C   UNL     1      -8.792   2.079  62.394  1.00  0.00    -0.073 C  
HETATM    2  N   UNL     1      -7.750   2.780  63.134  1.00  0.00    -0.062 N  
HETATM    3  C   UNL     1      -6.730   1.955  63.757  1.00  0.00    -0.026 C  
HETATM    4  C   UNL     1      -7.740   4.165  63.021  1.00  0.00    -0.065 C  
HETATM    5  O   UNL     1      -8.619   4.722  62.353  1.00  0.00    -0.100 OA 
ENDROOT
BRANCH   4   6
HETATM    6  C   UNL     1      -6.702   5.032  63.775  1.00  0.00    -0.042 C  
HETATM    7  C   UNL     1      -6.286   6.335  63.092  1.00  0.00    -0.029 C  
HETATM    8  C   UNL     1      -7.421   7.351  63.021  1.00  0.00    -0.100 C  
HETATM    9  C   UNL     1      -8.027   7.690  64.391  1.00  0.00    -0.123 C  
HETATM   10  C   UNL     1      -8.358   6.410  65.210  1.00  0.00    -0.131 C  
HETATM   11  C   UNL     1      -7.202   5.384  65.208  1.00  0.00    -0.067 C  
BRANCH   9  12
HETATM   12  N   UNL     1      -7.174   8.618  65.122  1.00  0.00    -0.086 N  
HETATM   13  O   UNL     1      -8.187  10.573  64.355  1.00  0.00    -0.150 OA 
HETATM   14  H   UNL     1      -6.403   8.255  65.681  1.00  0.00     0.000 HD 
HETATM   15  C   UNL     1      -7.389   9.981  65.072  1.00  0.00    -0.140 C  
BRANCH  15  16
HETATM   16  C   UNL     1      -6.555  10.776  66.081  1.00  0.00    -0.127 C  
HETATM   17  O   UNL     1      -5.342  10.761  65.946  1.00  0.00    -0.097 OA 
HETATM   18  N   UNL     1      -7.337  11.341  67.062  1.00  0.00    -0.129 N  
HETATM   19  H   UNL     1      -8.350  11.257  66.977  1.00  0.00     0.000 HD 
BRANCH  18  20
HETATM   20  C   UNL     1      -6.824  12.020  68.162  1.00  0.00    -0.069 A  
HETATM   21  C   UNL     1      -6.439  14.097  69.301  1.00  0.00    -0.117 A  
HETATM   22 CL   UNL     1      -5.588  14.166  71.869  1.00  0.00    -0.227 Cl 
HETATM   23  C   UNL     1      -6.830  13.413  68.147  1.00  0.00    -0.117 A  
HETATM   24  C   UNL     1      -5.993  11.996  70.319  1.00  0.00    -0.143 A  
HETATM   25  N   UNL     1      -6.386  11.317  69.220  1.00  0.00    -0.071 NA 
HETATM   26  C   UNL     1      -6.024  13.374  70.413  1.00  0.00    -0.132 A  
ENDBRANCH  18  20
ENDBRANCH  15  16
ENDBRANCH   9  12
BRANCH  10  27
HETATM   27  N   UNL     1      -8.828   6.726  66.568  1.00  0.00    -0.138 N  
HETATM   28  O   UNL     1     -10.312   4.997  66.570  1.00  0.00    -0.244 OA 
HETATM   29  C   UNL     1      -9.784   5.923  67.186  1.00  0.00    -0.132 C  
HETATM   30  H   UNL     1      -8.453   7.537  67.059  1.00  0.00     0.000 HD 
BRANCH  29  31
HETATM   31  C   UNL     1     -10.088   6.244  68.580  1.00  0.00    -0.157 A  
HETATM   32  N   UNL     1     -11.307   6.287  69.100  1.00  0.00    -0.377 NA 
HETATM   33  C   UNL     1     -12.394   6.851  71.316  1.00  0.00    -0.422 C  
HETATM   34  C   UNL     1     -10.768   5.841  73.745  1.00  0.00    -0.217 C  
HETATM   35  C   UNL     1     -11.207   6.687  70.427  1.00  0.00    -0.344 A  
HETATM   36  C   UNL     1     -11.997   7.617  72.604  1.00  0.00    -0.159 C  
HETATM   37  C   UNL     1      -9.930   6.905  70.890  1.00  0.00    -0.189 A  
HETATM   38  N   UNL     1     -10.712   7.206  73.222  1.00  0.00    -0.343 NA 
HETATM   39  C   UNL     1      -9.584   7.377  72.272  1.00  0.00    -0.151 C  
HETATM   40  S   UNL     1      -8.796   6.630  69.663  1.00  0.00    -0.143 SA 
ENDBRANCH  29  31
ENDBRANCH  10  27
ENDBRANCH   4   6
TORSDOF 6
ENDMDL
MODEL       42
REMARK 921   NORMALIZED FREE ENERGY PREDICTED BY IDOCK:   -3.85 KCAL/MOL
REMARK 922        TOTAL FREE ENERGY PREDICTED BY IDOCK:   -6.11 KCAL/MOL
REMARK 923 INTER-LIGAND FREE ENERGY PREDICTED BY IDOCK:   -5.43 KCAL/MOL
REMARK 924 INTRA-LIGAND FREE ENERGY PREDICTED BY IDOCK:   -0.68 KCAL/MOL
REMARK 927      BINDING AFFINITY PREDICTED BY RF-SCORE:    0.00 PKD
ROOT
HETATM    1  C   UNL     1      -6.597   5.718  74.468  1.00  0.00    -0.076 C  
HETATM    2  N   UNL     1      -7.360   6.744  73.768  1.00  0.00    -0.082 N  
HETATM    3  C   UNL     1      -7.547   8.004  74.467  1.00  0.00    -0.211 C  
HETATM    4  C   UNL     1      -7.676   6.478  72.441  1.00  0.00    -0.096 C  
HETATM    5  O   UNL     1      -7.344   5.394  71.947  1.00  0.00    -0.086 OA 
ENDROOT
BRANCH   4   6
HETATM    6  C   UNL     1      -8.503   7.473  71.590  1.00  0.00    -0.119 C  
HETATM    7  C   UNL     1      -7.831   8.810  71.272  1.00  0.00    -0.167 C  
HETATM    8  C   UNL     1      -6.631   8.661  70.344  1.00  0.00    -0.037 C  
HETATM    9  C   UNL     1      -6.963   7.955  69.021  1.00  0.00    -0.058 C  
HETATM   10  C   UNL     1      -7.768   6.643  69.250  1.00  0.00    -0.102 C  
HETATM   11  C   UNL     1      -8.939   6.827  70.242  1.00  0.00    -0.152 C  
BRANCH   9  12
HETATM   12  N   UNL     1      -7.628   8.865  68.098  1.00  0.00    -0.092 N  
HETATM   13  O   UNL     1      -5.872   9.029  66.573  1.00  0.00    -0.052 OA 
HETATM   14  H   UNL     1      -8.558   9.217  68.324  1.00  0.00     0.000 HD 
HETATM   15  C   UNL     1      -7.023   9.262  66.922  1.00  0.00    -0.081 C  
BRANCH  15  16
HETATM   16  C   UNL     1      -7.956  10.021  65.973  1.00  0.00    -0.118 C  
HETATM   17  O   UNL     1      -7.870   9.773  64.780  1.00  0.00    -0.122 OA 
HETATM   18  N   UNL     1      -8.720  10.950  66.639  1.00  0.00    -0.150 N  
HETATM   19  H   UNL     1      -8.662  10.981  67.657  1.00  0.00     0.000 HD 
BRANCH  18  20
HETATM   20  C   UNL     1      -9.569  11.850  66.003  1.00  0.00    -0.235 A  
HETATM   21  C   UNL     1     -11.559  12.248  64.720  1.00  0.00    -0.393 A  
HETATM   22 CL   UNL     1     -12.523  14.748  64.343  1.00  0.00    -0.411 Cl 
HETATM   23  C   UNL     1     -10.629  11.349  65.251  1.00  0.00    -0.336 A  
HETATM   24  C   UNL     1     -10.268  14.023  65.633  1.00  0.00    -0.334 A  
HETATM   25  N   UNL     1      -9.371  13.169  66.171  1.00  0.00    -0.141 NA 
HETATM   26  C   UNL     1     -11.381  13.611  64.926  1.00  0.00    -0.344 A  
ENDBRANCH  18  20
ENDBRANCH  15  16
ENDBRANCH   9  12
BRANCH  10  27
HETATM   27  N   UNL     1      -8.191   6.023  67.986  1.00  0.00    -0.112 N  
HETATM   28  O   UNL     1      -6.601   4.398  68.127  1.00  0.00    -0.040 OA 
HETATM   29  C   UNL     1      -7.570   4.864  67.528  1.00  0.00    -0.086 C  
HETATM   30  H   UNL     1      -8.944   6.445  67.441  1.00  0.00     0.000 HD 
BRANCH  29  31
HETATM   31  C   UNL     1      -8.150   4.254  66.331  1.00  0.00    -0.102 A  
HETATM   32  N   UNL     1      -7.778   3.088  65.818  1.00  0.00    -0.080 NA 
HETATM   33  C   UNL     1      -8.330   1.650  63.810  1.00  0.00    -0.073 C  
HETATM   34  C   UNL     1     -11.347   1.644  63.127  1.00  0.00    -0.221 C  
HETATM   35  C   UNL     1      -8.502   2.869  64.653  1.00  0.00    -0.091 A  
HETATM   36  C   UNL     1      -9.014   1.851  62.433  1.00  0.00    -0.073 C  
HETATM   37  C   UNL     1      -9.419   3.841  64.328  1.00  0.00    -0.158 A  
HETATM   38  N   UNL     1     -10.352   2.492  62.471  1.00  0.00    -0.106 NA 
HETATM   39  C   UNL     1     -10.283   3.834  63.100  1.00  0.00    -0.191 C  
HETATM   40  S   UNL     1      -9.396   5.090  65.471  1.00  0.00    -0.104 SA 
ENDBRANCH  29  31
ENDBRANCH  10  27
ENDBRANCH   4   6
TORSDOF 6
ENDMDL
MODEL       43
REMARK 921   NORMALIZED FREE ENERGY PREDICTED BY IDOCK:   -3.81 KCAL/MOL
REMARK 922        TOTAL FREE ENERGY PREDICTED BY IDOCK:   -6.07 KCAL/MOL
REMARK 923 INTER-LIGAND FREE ENERGY PREDICTED BY IDOCK:   -6.09 KCAL/MOL
REMARK 924 INTRA-LIGAND FREE ENERGY PREDICTED BY IDOCK:    0.02 KCAL/MOL
REMARK 927      BINDING AFFINITY PREDICTED BY RF-SCORE:    0.00 PKD
ROOT
HETATM    1  C   UNL     1      -8.860   5.201  68.948  1.00  0.00    -0.092 C  
HETATM    2  N   UNL     1      -9.443   6.192  68.053  1.00  0.00    -0.113 N  
HETATM    3  C   UNL     1     -10.735   5.865  67.474  1.00  0.00    -0.276 C  
HETATM    4  C   UNL     1      -8.791   7.418  67.984  1.00  0.00    -0.126 C  
HETATM    5  O   UNL     1      -7.752   7.587  68.632  1.00  0.00    -0.113 OA 
ENDROOT
BRANCH   4   6
HETATM    6  C   UNL     1      -9.293   8.550  67.053  1.00  0.00    -0.204 C  
HETATM    7  C   UNL     1     -10.786   8.872  67.125  1.00  0.00    -0.203 C  
HETATM    8  C   UNL     1     -11.194   9.480  68.462  1.00  0.00     0.060 C  
HETATM    9  C   UNL     1     -10.405  10.746  68.827  1.00  0.00    -0.192 C  
HETATM   10  C   UNL     1      -8.872  10.543  68.652  1.00  0.00    -0.147 C  
HETATM   11  C   UNL     1      -8.508   9.872  67.309  1.00  0.00    -0.121 C  
BRANCH   9  12
HETATM   12  N   UNL     1     -10.904  11.901  68.092  1.00  0.00    -0.209 N  
HETATM   13  O   UNL     1     -11.945  12.939  69.901  1.00  0.00    -0.324 OA 
HETATM   14  H   UNL     1     -10.752  11.957  67.085  1.00  0.00     0.000 HD 
HETATM   15  C   UNL     1     -11.579  12.921  68.732  1.00  0.00    -0.311 C  
BRANCH  15  16
HETATM   16  C   UNL     1     -11.816  14.152  67.852  1.00  0.00    -0.370 C  
HETATM   17  O   UNL     1     -12.605  14.041  66.927  1.00  0.00    -0.262 OA 
HETATM   18  N   UNL     1     -11.012  15.207  68.219  1.00  0.00    -0.265 N  
HETATM   19  H   UNL     1     -10.433  15.103  69.052  1.00  0.00     0.000 HD 
BRANCH  18  20
HETATM   20  C   UNL     1     -10.945  16.406  67.517  1.00  0.00    -0.184 A  
HETATM   21  C   UNL     1     -10.489  18.763  67.509  1.00  0.00    -0.495 A  
HETATM   22 CL   UNL     1     -10.300  20.159  65.199  1.00  0.00     0.066 Cl 
HETATM   23  C   UNL     1     -10.687  17.578  68.224  1.00  0.00    -0.309 A  
HETATM   24  C   UNL     1     -10.908  17.550  65.508  1.00  0.00     0.028 A  
HETATM   25  N   UNL     1     -11.083  16.392  66.181  1.00  0.00     0.070 NA 
HETATM   26  C   UNL     1     -10.589  18.745  66.123  1.00  0.00    -0.377 A  
ENDBRANCH  18  20
ENDBRANCH  15  16
ENDBRANCH   9  12
BRANCH  10  27
HETATM   27  N   UNL     1      -8.117  11.783  68.886  1.00  0.00    -0.348 N  
HETATM   28  O   UNL     1      -8.553  12.567  66.791  1.00  0.00    -0.183 OA 
HETATM   29  C   UNL     1      -8.056  12.765  67.899  1.00  0.00    -0.159 C  
HETATM   30  H   UNL     1      -7.637  11.926  69.774  1.00  0.00     0.000 HD 
BRANCH  29  31
HETATM   31  C   UNL     1      -7.393  14.013  68.277  1.00  0.00    -0.115 A  
HETATM   32  N   UNL     1      -7.309  15.090  67.506  1.00  0.00    -0.188 NA 
HETATM   33  C   UNL     1      -6.253  17.390  67.588  1.00  0.00    -0.164 C  
HETATM   34  C   UNL     1      -6.430  18.697  70.385  1.00  0.00     0.405 C  
HETATM   35  C   UNL     1      -6.556  16.050  68.171  1.00  0.00    -0.122 A  
HETATM   36  C   UNL     1      -5.136  18.089  68.404  1.00  0.00    -0.157 C  
HETATM   37  C   UNL     1      -6.119  15.701  69.428  1.00  0.00    -0.131 A  
HETATM   38  N   UNL     1      -5.259  17.981  69.880  1.00  0.00    -0.196 NA 
HETATM   39  C   UNL     1      -5.263  16.561  70.312  1.00  0.00    -0.194 C  
HETATM   40  S   UNL     1      -6.625  14.134  69.821  1.00  0.00    -0.065 SA 
ENDBRANCH  29  31
ENDBRANCH  10  27
ENDBRANCH   4   6
TORSDOF 6
ENDMDL
MODEL       44
REMARK 921   NORMALIZED FREE ENERGY PREDICTED BY IDOCK:   -3.57 KCAL/MOL
REMARK 922        TOTAL FREE ENERGY PREDICTED BY IDOCK:   -5.74 KCAL/MOL
REMARK 923 INTER-LIGAND FREE ENERGY PREDICTED BY IDOCK:   -5.99 KCAL/MOL
REMARK 924 INTRA-LIGAND FREE ENERGY PREDICTED BY IDOCK:    0.24 KCAL/MOL
REMARK 927      BINDING AFFINITY PREDICTED BY RF-SCORE:    0.00 PKD
ROOT
HETATM    1  C   UNL     1     -10.006   1.614  71.506  1.00  0.00    -0.117 C  
HETATM    2  N   UNL     1      -9.608   2.787  72.274  1.00  0.00    -0.118 N  
HETATM    3  C   UNL     1      -9.061   2.543  73.597  1.00  0.00    -0.080 C  
HETATM    4  C   UNL     1      -9.628   4.001  71.597  1.00  0.00    -0.160 C  
HETATM    5  O   UNL     1     -10.016   4.032  70.424  1.00  0.00    -0.182 OA 
ENDROOT
BRANCH   4   6
HETATM    6  C   UNL     1      -9.252   5.328  72.302  1.00  0.00    -0.153 C  
HETATM    7  C   UNL     1      -7.773   5.514  72.645  1.00  0.00    -0.099 C  
HETATM    8  C   UNL     1      -6.894   5.657  71.408  1.00  0.00    -0.062 C  
HETATM    9  C   UNL     1      -7.327   6.801  70.478  1.00  0.00    -0.081 C  
HETATM   10  C   UNL     1      -8.854   6.761  70.183  1.00  0.00    -0.141 C  
HETATM   11  C   UNL     1      -9.703   6.557  71.458  1.00  0.00    -0.179 C  
BRANCH   9  12
HETATM   12  N   UNL     1      -6.890   8.089  70.999  1.00  0.00    -0.041 N  
HETATM   13  O   UNL     1      -5.242   8.481  69.398  1.00  0.00    -0.030 OA 
HETATM   14  H   UNL     1      -7.309   8.450  71.856  1.00  0.00     0.000 HD 
HETATM   15  C   UNL     1      -5.920   8.832  70.356  1.00  0.00    -0.030 C  
BRANCH  15  16
HETATM   16  C   UNL     1      -5.762  10.252  70.907  1.00  0.00    -0.086 C  
HETATM   17  O   UNL     1      -5.732  10.386  72.120  1.00  0.00    -0.295 OA 
HETATM   18  N   UNL     1      -5.753  11.194  69.905  1.00  0.00    -0.071 N  
HETATM   19  H   UNL     1      -5.761  10.868  68.938  1.00  0.00     0.000 HD 
BRANCH  18  20
HETATM   20  C   UNL     1      -5.733  12.566  70.135  1.00  0.00    -0.155 A  
HETATM   21  C   UNL     1      -5.352  14.394  71.643  1.00  0.00    -0.174 A  
HETATM   22 CL   UNL     1      -5.237  16.951  70.765  1.00  0.00    -0.231 Cl 
HETATM   23  C   UNL     1      -5.504  13.021  71.431  1.00  0.00    -0.102 A  
HETATM   24  C   UNL     1      -5.758  14.731  69.325  1.00  0.00    -0.097 A  
HETATM   25  N   UNL     1      -5.887  13.406  69.097  1.00  0.00    -0.078 NA 
HETATM   26  C   UNL     1      -5.469  15.265  70.565  1.00  0.00    -0.136 A  
ENDBRANCH  18  20
ENDBRANCH  15  16
ENDBRANCH   9  12
BRANCH  10  27
HETATM   27  N   UNL     1      -9.297   7.918  69.390  1.00  0.00    -0.152 N  
HETATM   28  O   UNL     1      -9.453   9.253  71.230  1.00  0.00    -0.262 OA 
HETATM   29  C   UNL     1      -9.528   9.146  70.006  1.00  0.00    -0.198 C  
HETATM   30  H   UNL     1      -9.435   7.821  68.384  1.00  0.00     0.000 HD 
BRANCH  29  31
HETATM   31  C   UNL     1      -9.836  10.264  69.114  1.00  0.00    -0.216 A  
HETATM   32  N   UNL     1     -10.903  11.046  69.220  1.00  0.00    -0.230 NA 
HETATM   33  C   UNL     1     -11.956  12.978  67.968  1.00  0.00    -0.335 C  
HETATM   34  C   UNL     1      -9.872  14.991  66.888  1.00  0.00    -0.238 C  
HETATM   35  C   UNL     1     -10.893  11.950  68.165  1.00  0.00    -0.221 A  
HETATM   36  C   UNL     1     -11.848  13.595  66.551  1.00  0.00    -0.404 C  
HETATM   37  C   UNL     1      -9.817  11.860  67.312  1.00  0.00    -0.187 A  
HETATM   38  N   UNL     1     -10.472  13.918  66.097  1.00  0.00    -0.291 NA 
HETATM   39  C   UNL     1      -9.616  12.705  66.088  1.00  0.00    -0.222 C  
HETATM   40  S   UNL     1      -8.777  10.614  67.794  1.00  0.00    -0.130 SA 
ENDBRANCH  29  31
ENDBRANCH  10  27
ENDBRANCH   4   6
TORSDOF 6
ENDMDL
MODEL       45
REMARK 921   NORMALIZED FREE ENERGY PREDICTED BY IDOCK:   -3.37 KCAL/MOL
REMARK 922        TOTAL FREE ENERGY PREDICTED BY IDOCK:   -5.47 KCAL/MOL
REMARK 923 INTER-LIGAND FREE ENERGY PREDICTED BY IDOCK:   -5.01 KCAL/MOL
REMARK 924 INTRA-LIGAND FREE ENERGY PREDICTED BY IDOCK:   -0.46 KCAL/MOL
REMARK 927      BINDING AFFINITY PREDICTED BY RF-SCORE:    0.00 PKD
ROOT
HETATM    1  C   UNL     1     -11.296  15.177  66.042  1.00  0.00    -0.221 C  
HETATM    2  N   UNL     1     -11.501  13.830  65.524  1.00  0.00    -0.307 N  
HETATM    3  C   UNL     1     -12.863  13.473  65.166  1.00  0.00    -0.322 C  
HETATM    4  C   UNL     1     -10.355  13.091  65.262  1.00  0.00    -0.304 C  
HETATM    5  O   UNL     1      -9.249  13.581  65.516  1.00  0.00     0.237 OA 
ENDROOT
BRANCH   4   6
HETATM    6  C   UNL     1     -10.432  11.637  64.731  1.00  0.00    -0.346 C  
HETATM    7  C   UNL     1      -9.324  11.210  63.768  1.00  0.00    -0.204 C  
HETATM    8  C   UNL     1      -7.956  11.135  64.437  1.00  0.00     0.659 C  
HETATM    9  C   UNL     1      -7.923  10.206  65.660  1.00  0.00    -0.147 C  
HETATM   10  C   UNL     1      -9.103  10.489  66.634  1.00  0.00    -0.155 C  
HETATM   11  C   UNL     1     -10.461  10.614  65.906  1.00  0.00    -0.243 C  
BRANCH   9  12
HETATM   12  N   UNL     1      -7.856   8.810  65.252  1.00  0.00    -0.104 N  
HETATM   13  O   UNL     1      -6.774   8.024  67.161  1.00  0.00    -0.062 OA 
HETATM   14  H   UNL     1      -8.201   8.541  64.331  1.00  0.00     0.000 HD 
HETATM   15  C   UNL     1      -7.335   7.842  66.087  1.00  0.00    -0.074 C  
BRANCH  15  16
HETATM   16  C   UNL     1      -7.563   6.411  65.593  1.00  0.00    -0.086 C  
HETATM   17  O   UNL     1      -6.594   5.670  65.543  1.00  0.00    -0.039 OA 
HETATM   18  N   UNL     1      -8.865   6.205  65.199  1.00  0.00    -0.361 N  
HETATM   19  H   UNL     1      -9.538   6.957  65.350  1.00  0.00     0.000 HD 
BRANCH  18  20
HETATM   20  C   UNL     1      -9.316   5.030  64.607  1.00  0.00     0.100 A  
HETATM   21  C   UNL     1     -10.895   3.223  64.561  1.00  0.00     0.315 A  
HETATM   22 CL   UNL     1     -11.034   1.518  62.463  1.00  0.00    -0.136 Cl 
HETATM   23  C   UNL     1     -10.352   4.329  65.219  1.00  0.00    -0.220 A  
HETATM   24  C   UNL     1      -9.299   3.551  62.830  1.00  0.00    -0.097 A  
HETATM   25  N   UNL     1      -8.775   4.634  63.442  1.00  0.00    -0.130 NA 
HETATM   26  C   UNL     1     -10.366   2.834  63.335  1.00  0.00    -0.187 A  
ENDBRANCH  18  20
ENDBRANCH  15  16
ENDBRANCH   9  12
BRANCH  10  27
HETATM   27  N   UNL     1      -9.147   9.528  67.747  1.00  0.00    -0.125 N  
HETATM   28  O   UNL     1     -10.665  10.774  68.902  1.00  0.00    -0.194 OA 
HETATM   29  C   UNL     1     -10.004   9.739  68.825  1.00  0.00    -0.169 C  
HETATM   30  H   UNL     1      -8.547   8.704  67.729  1.00  0.00     0.000 HD 
BRANCH  29  31
HETATM   31  C   UNL     1     -10.068   8.662  69.813  1.00  0.00    -0.199 A  
HETATM   32  N   UNL     1      -9.774   7.392  69.571  1.00  0.00    -0.159 NA 
HETATM   33  C   UNL     1      -9.795   5.182  70.806  1.00  0.00    -0.270 C  
HETATM   34  C   UNL     1      -8.865   5.437  73.744  1.00  0.00    -0.124 C  
HETATM   35  C   UNL     1     -10.013   6.656  70.725  1.00  0.00    -0.184 A  
HETATM   36  C   UNL     1     -10.458   4.613  72.086  1.00  0.00    -0.148 C  
HETATM   37  C   UNL     1     -10.445   7.377  71.813  1.00  0.00    -0.196 A  
HETATM   38  N   UNL     1     -10.264   5.416  73.319  1.00  0.00    -0.181 NA 
HETATM   39  C   UNL     1     -10.800   6.790  73.149  1.00  0.00    -0.284 C  
HETATM   40  S   UNL     1     -10.587   9.018  71.424  1.00  0.00    -0.347 SA 
ENDBRANCH  29  31
ENDBRANCH  10  27
ENDBRANCH   4   6
TORSDOF 6
ENDMDL
MODEL       46
REMARK 921   NORMALIZED FREE ENERGY PREDICTED BY IDOCK:   -3.31 KCAL/MOL
REMARK 922        TOTAL FREE ENERGY PREDICTED BY IDOCK:   -5.39 KCAL/MOL
REMARK 923 INTER-LIGAND FREE ENERGY PREDICTED BY IDOCK:   -7.63 KCAL/MOL
REMARK 924 INTRA-LIGAND FREE ENERGY PREDICTED BY IDOCK:    2.24 KCAL/MOL
REMARK 927      BINDING AFFINITY PREDICTED BY RF-SCORE:    0.00 PKD
ROOT
HETATM    1  C   UNL     1     -13.877  12.777  72.678  1.00  0.00     0.092 C  
HETATM    2  N   UNL     1     -13.698  13.797  71.653  1.00  0.00    -0.320 N  
HETATM    3  C   UNL     1     -14.352  15.074  71.885  1.00  0.00    -0.584 C  
HETATM    4  C   UNL     1     -12.780  13.507  70.650  1.00  0.00    -0.205 C  
HETATM    5  O   UNL     1     -12.211  12.410  70.651  1.00  0.00    -0.368 OA 
ENDROOT
BRANCH   4   6
HETATM    6  C   UNL     1     -12.512  14.495  69.487  1.00  0.00    -0.162 C  
HETATM    7  C   UNL     1     -11.649  15.712  69.821  1.00  0.00    -0.360 C  
HETATM    8  C   UNL     1     -10.205  15.342  70.141  1.00  0.00    -0.216 C  
HETATM    9  C   UNL     1      -9.514  14.546  69.024  1.00  0.00    -0.085 C  
HETATM   10  C   UNL     1     -10.391  13.359  68.532  1.00  0.00    -0.236 C  
HETATM   11  C   UNL     1     -11.859  13.767  68.275  1.00  0.00    -0.413 C  
BRANCH   9  12
HETATM   12  N   UNL     1      -9.101  15.425  67.938  1.00  0.00    -0.178 N  
HETATM   13  O   UNL     1     -11.242  15.899  67.147  1.00  0.00    -0.213 OA 
HETATM   14  H   UNL     1      -8.107  15.570  67.762  1.00  0.00     0.000 HD 
HETATM   15  C   UNL     1     -10.029  16.067  67.142  1.00  0.00    -0.249 C  
BRANCH  15  16
HETATM   16  C   UNL     1      -9.422  17.126  66.217  1.00  0.00    -0.243 C  
HETATM   17  O   UNL     1      -9.989  17.340  65.157  1.00  0.00    -0.177 OA 
HETATM   18  N   UNL     1      -8.246  17.633  66.719  1.00  0.00    -0.232 N  
HETATM   19  H   UNL     1      -7.954  17.337  67.650  1.00  0.00     0.000 HD 
BRANCH  18  20
HETATM   20  C   UNL     1      -7.433  18.526  66.028  1.00  0.00    -0.224 A  
HETATM   21  C   UNL     1      -5.671  18.901  64.442  1.00  0.00    -0.279 A  
HETATM   22 CL   UNL     1      -5.131  21.374  63.486  1.00  0.00    -0.240 Cl 
HETATM   23  C   UNL     1      -6.404  18.017  65.239  1.00  0.00    -0.011 A  
HETATM   24  C   UNL     1      -6.962  20.683  65.342  1.00  0.00    -0.086 A  
HETATM   25  N   UNL     1      -7.694  19.842  66.104  1.00  0.00    -0.321 NA 
HETATM   26  C   UNL     1      -5.964  20.259  64.485  1.00  0.00    -0.270 A  
ENDBRANCH  18  20
ENDBRANCH  15  16
ENDBRANCH   9  12
BRANCH  10  27
HETATM   27  N   UNL     1      -9.789  12.663  67.384  1.00  0.00    -0.203 N  
HETATM   28  O   UNL     1      -8.861  11.058  68.708  1.00  0.00    -0.161 OA 
HETATM   29  C   UNL     1      -9.075  11.483  67.572  1.00  0.00    -0.166 C  
HETATM   30  H   UNL     1      -9.896  13.048  66.445  1.00  0.00     0.000 HD 
BRANCH  29  31
HETATM   31  C   UNL     1      -8.630  10.801  66.357  1.00  0.00    -0.158 A  
HETATM   32  N   UNL     1      -7.366  10.524  66.062  1.00  0.00    -0.134 NA 
HETATM   33  C   UNL     1      -6.056   9.500  64.153  1.00  0.00    -0.095 C  
HETATM   34  C   UNL     1      -7.488   7.076  62.875  1.00  0.00    -0.089 C  
HETATM   35  C   UNL     1      -7.326   9.934  64.805  1.00  0.00    -0.136 A  
HETATM   36  C   UNL     1      -6.300   9.199  62.652  1.00  0.00    -0.094 C  
HETATM   37  C   UNL     1      -8.544   9.746  64.194  1.00  0.00    -0.194 A  
HETATM   38  N   UNL     1      -7.537   8.439  62.346  1.00  0.00    -0.111 NA 
HETATM   39  C   UNL     1      -8.740   9.164  62.824  1.00  0.00    -0.185 C  
HETATM   40  S   UNL     1      -9.798  10.324  65.174  1.00  0.00    -0.327 SA 
ENDBRANCH  29  31
ENDBRANCH  10  27
ENDBRANCH   4   6
TORSDOF 6
ENDMDL
MODEL       47
REMARK 921   NORMALIZED FREE ENERGY PREDICTED BY IDOCK:   -3.18 KCAL/MOL
REMARK 922        TOTAL FREE ENERGY PREDICTED BY IDOCK:   -5.22 KCAL/MOL
REMARK 923 INTER-LIGAND FREE ENERGY PREDICTED BY IDOCK:   -4.57 KCAL/MOL
REMARK 924 INTRA-LIGAND FREE ENERGY PREDICTED BY IDOCK:   -0.64 KCAL/MOL
REMARK 927      BINDING AFFINITY PREDICTED BY RF-SCORE:    0.00 PKD
ROOT
HETATM    1  C   UNL     1      -7.235   4.756  65.011  1.00  0.00    -0.064 C  
HETATM    2  N   UNL     1      -8.532   5.360  65.291  1.00  0.00    -0.145 N  
HETATM    3  C   UNL     1      -9.652   4.448  65.452  1.00  0.00    -0.184 C  
HETATM    4  C   UNL     1      -8.532   6.725  65.550  1.00  0.00    -0.119 C  
HETATM    5  O   UNL     1      -7.468   7.352  65.486  1.00  0.00    -0.081 OA 
ENDROOT
BRANCH   4   6
HETATM    6  C   UNL     1      -9.844   7.495  65.840  1.00  0.00     0.417 C  
HETATM    7  C   UNL     1     -10.657   7.016  67.043  1.00  0.00    -0.412 C  
HETATM    8  C   UNL     1      -9.949   7.268  68.370  1.00  0.00    -0.172 C  
HETATM    9  C   UNL     1      -9.569   8.740  68.592  1.00  0.00    -0.154 C  
HETATM   10  C   UNL     1      -8.850   9.346  67.353  1.00  0.00    -0.128 C  
HETATM   11  C   UNL     1      -9.570   9.017  66.025  1.00  0.00    -0.342 C  
BRANCH   9  12
HETATM   12  N   UNL     1     -10.729   9.520  69.004  1.00  0.00    -0.276 N  
HETATM   13  O   UNL     1     -11.007   8.506  71.085  1.00  0.00    -0.235 OA 
HETATM   14  H   UNL     1     -11.130  10.199  68.358  1.00  0.00     0.000 HD 
HETATM   15  C   UNL     1     -11.294   9.359  70.253  1.00  0.00    -0.220 C  
BRANCH  15  16
HETATM   16  C   UNL     1     -12.343  10.420  70.598  1.00  0.00    -0.346 C  
HETATM   17  O   UNL     1     -13.501  10.190  70.288  1.00  0.00    -0.004 OA 
HETATM   18  N   UNL     1     -11.775  11.540  71.160  1.00  0.00     0.007 N  
HETATM   19  H   UNL     1     -10.776  11.521  71.364  1.00  0.00     0.000 HD 
BRANCH  18  20
HETATM   20  C   UNL     1     -12.486  12.696  71.464  1.00  0.00    -0.022 A  
HETATM   21  C   UNL     1     -13.819  13.941  73.024  1.00  0.00     0.303 A  
HETATM   22 CL   UNL     1     -14.390  16.557  72.627  1.00  0.00     0.815 Cl 
HETATM   23  C   UNL     1     -13.213  12.739  72.652  1.00  0.00     0.027 A  
HETATM   24  C   UNL     1     -13.021  14.897  70.999  1.00  0.00    -0.377 A  
HETATM   25  N   UNL     1     -12.411  13.749  70.632  1.00  0.00    -0.357 NA 
HETATM   26  C   UNL     1     -13.710  15.046  72.187  1.00  0.00    -0.453 A  
ENDBRANCH  18  20
ENDBRANCH  15  16
ENDBRANCH   9  12
BRANCH  10  27
HETATM   27  N   UNL     1      -8.589  10.784  67.511  1.00  0.00    -0.125 N  
HETATM   28  O   UNL     1      -6.330  10.482  67.506  1.00  0.00    -0.056 OA 
HETATM   29  C   UNL     1      -7.281  11.263  67.530  1.00  0.00    -0.100 C  
HETATM   30  H   UNL     1      -9.369  11.435  67.609  1.00  0.00     0.000 HD 
BRANCH  29  31
HETATM   31  C   UNL     1      -7.130  12.718  67.560  1.00  0.00    -0.148 A  
HETATM   32  N   UNL     1      -5.972  13.362  67.506  1.00  0.00    -0.326 NA 
HETATM   33  C   UNL     1      -5.133  15.748  67.612  1.00  0.00    -0.097 C  
HETATM   34  C   UNL     1      -6.964  17.735  66.108  1.00  0.00    -0.303 C  
HETATM   35  C   UNL     1      -6.218  14.724  67.624  1.00  0.00    -0.091 A  
HETATM   36  C   UNL     1      -5.682  17.116  68.093  1.00  0.00    -0.120 C  
HETATM   37  C   UNL     1      -7.541  15.084  67.729  1.00  0.00    -0.160 A  
HETATM   38  N   UNL     1      -7.010  17.498  67.550  1.00  0.00    -0.164 NA 
HETATM   39  C   UNL     1      -8.040  16.490  67.903  1.00  0.00    -0.163 C  
HETATM   40  S   UNL     1      -8.536  13.715  67.702  1.00  0.00    -0.199 SA 
ENDBRANCH  29  31
ENDBRANCH  10  27
ENDBRANCH   4   6
TORSDOF 6
ENDMDL
MODEL       48
REMARK 921   NORMALIZED FREE ENERGY PREDICTED BY IDOCK:   -2.98 KCAL/MOL
REMARK 922        TOTAL FREE ENERGY PREDICTED BY IDOCK:   -4.94 KCAL/MOL
REMARK 923 INTER-LIGAND FREE ENERGY PREDICTED BY IDOCK:   -5.00 KCAL/MOL
REMARK 924 INTRA-LIGAND FREE ENERGY PREDICTED BY IDOCK:    0.06 KCAL/MOL
REMARK 927      BINDING AFFINITY PREDICTED BY RF-SCORE:    0.00 PKD
ROOT
HETATM    1  C   UNL     1     -12.265  15.447  72.437  1.00  0.00    -0.394 C  
HETATM    2  N   UNL     1     -12.292  14.896  71.088  1.00  0.00    -0.300 N  
HETATM    3  C   UNL     1     -11.803  15.757  70.025  1.00  0.00    -0.354 C  
HETATM    4  C   UNL     1     -12.615  13.549  70.981  1.00  0.00    -0.359 C  
HETATM    5  O   UNL     1     -12.901  12.913  72.002  1.00  0.00    -0.261 OA 
ENDROOT
BRANCH   4   6
HETATM    6  C   UNL     1     -12.703  12.844  69.604  1.00  0.00     0.501 C  
HETATM    7  C   UNL     1     -11.748  13.353  68.523  1.00  0.00    -0.392 C  
HETATM    8  C   UNL     1     -10.287  13.053  68.839  1.00  0.00    -0.067 C  
HETATM    9  C   UNL     1     -10.005  11.562  69.076  1.00  0.00    -0.019 C  
HETATM   10  C   UNL     1     -11.022  10.931  70.071  1.00  0.00    -0.151 C  
HETATM   11  C   UNL     1     -12.486  11.308  69.747  1.00  0.00    -0.193 C  
BRANCH   9  12
HETATM   12  N   UNL     1      -9.934  10.838  67.814  1.00  0.00    -0.169 N  
HETATM   13  O   UNL     1      -7.789  11.537  67.225  1.00  0.00    -0.137 OA 
HETATM   14  H   UNL     1     -10.744  10.308  67.494  1.00  0.00     0.000 HD 
HETATM   15  C   UNL     1      -8.790  10.855  67.041  1.00  0.00    -0.140 C  
BRANCH  15  16
HETATM   16  C   UNL     1      -8.813   9.855  65.881  1.00  0.00    -0.148 C  
HETATM   17  O   UNL     1      -9.536  10.109  64.932  1.00  0.00    -0.261 OA 
HETATM   18  N   UNL     1      -8.037   8.749  66.142  1.00  0.00    -0.105 N  
HETATM   19  H   UNL     1      -7.480   8.743  66.996  1.00  0.00     0.000 HD 
BRANCH  18  20
HETATM   20  C   UNL     1      -7.969   7.639  65.306  1.00  0.00    -0.129 A  
HETATM   21  C   UNL     1      -6.795   6.405  63.614  1.00  0.00    -0.045 A  
HETATM   22 CL   UNL     1      -7.514   3.884  62.946  1.00  0.00    -0.049 Cl 
HETATM   23  C   UNL     1      -6.944   7.575  64.365  1.00  0.00    -0.056 A  
HETATM   24  C   UNL     1      -8.713   5.531  64.714  1.00  0.00    -0.037 A  
HETATM   25  N   UNL     1      -8.861   6.646  65.462  1.00  0.00    -0.046 NA 
HETATM   26  C   UNL     1      -7.690   5.358  63.802  1.00  0.00    -0.083 A  
ENDBRANCH  18  20
ENDBRANCH  15  16
ENDBRANCH   9  12
BRANCH  10  27
HETATM   27  N   UNL     1     -10.832   9.480  70.213  1.00  0.00    -0.249 N  
HETATM   28  O   UNL     1      -8.690   9.726  70.950  1.00  0.00    -0.140 OA 
HETATM   29  C   UNL     1      -9.634   8.973  70.711  1.00  0.00    -0.249 C  
HETATM   30  H   UNL     1     -11.582   8.841  69.946  1.00  0.00     0.000 HD 
BRANCH  29  31
HETATM   31  C   UNL     1      -9.593   7.528  70.937  1.00  0.00    -0.165 A  
HETATM   32  N   UNL     1      -8.653   6.715  70.473  1.00  0.00    -0.141 NA 
HETATM   33  C   UNL     1      -8.142   4.235  70.464  1.00  0.00    -0.066 C  
HETATM   34  C   UNL     1      -8.822   2.857  73.148  1.00  0.00    -0.079 C  
HETATM   35  C   UNL     1      -8.980   5.413  70.832  1.00  0.00    -0.138 A  
HETATM   36  C   UNL     1      -8.927   2.921  70.708  1.00  0.00    -0.095 C  
HETATM   37  C   UNL     1     -10.126   5.270  71.579  1.00  0.00    -0.192 A  
HETATM   38  N   UNL     1      -9.697   2.862  71.976  1.00  0.00    -0.150 NA 
HETATM   39  C   UNL     1     -10.692   3.960  72.047  1.00  0.00     0.299 C  
HETATM   40  S   UNL     1     -10.855   6.775  71.848  1.00  0.00    -0.239 SA 
ENDBRANCH  29  31
ENDBRANCH  10  27
ENDBRANCH   4   6
TORSDOF 6
ENDMDL
MODEL       49
REMARK 921   NORMALIZED FREE ENERGY PREDICTED BY IDOCK:   -2.91 KCAL/MOL
REMARK 922        TOTAL FREE ENERGY PREDICTED BY IDOCK:   -4.85 KCAL/MOL
REMARK 923 INTER-LIGAND FREE ENERGY PREDICTED BY IDOCK:   -5.51 KCAL/MOL
REMARK 924 INTRA-LIGAND FREE ENERGY PREDICTED BY IDOCK:    0.65 KCAL/MOL
REMARK 927      BINDING AFFINITY PREDICTED BY RF-SCORE:    0.00 PKD
ROOT
HETATM    1  C   UNL     1      -7.098   5.450  65.195  1.00  0.00    -0.065 C  
HETATM    2  N   UNL     1      -6.932   6.836  64.775  1.00  0.00    -0.053 N  
HETATM    3  C   UNL     1      -6.415   7.050  63.434  1.00  0.00    -0.044 C  
HETATM    4  C   UNL     1      -7.447   7.804  65.628  1.00  0.00    -0.075 C  
HETATM    5  O   UNL     1      -7.966   7.454  66.695  1.00  0.00    -0.115 OA 
ENDROOT
BRANCH   4   6
HETATM    6  C   UNL     1      -7.317   9.315  65.313  1.00  0.00    -0.094 C  
HETATM    7  C   UNL     1      -7.907   9.780  63.981  1.00  0.00    -0.141 C  
HETATM    8  C   UNL     1      -9.427   9.670  63.940  1.00  0.00     0.040 C  
HETATM    9  C   UNL     1     -10.128  10.430  65.077  1.00  0.00    -0.309 C  
HETATM   10  C   UNL     1      -9.495  10.112  66.462  1.00  0.00    -0.169 C  
HETATM   11  C   UNL     1      -7.951  10.179  66.443  1.00  0.00    -0.120 C  
BRANCH   9  12
HETATM   12  N   UNL     1     -10.173  11.859  64.796  1.00  0.00    -0.268 N  
HETATM   13  O   UNL     1     -11.988  11.789  63.335  1.00  0.00    -0.474 OA 
HETATM   14  H   UNL     1      -9.467  12.472  65.204  1.00  0.00     0.000 HD 
HETATM   15  C   UNL     1     -11.153  12.401  63.990  1.00  0.00    -0.396 C  
BRANCH  15  16
HETATM   16  C   UNL     1     -11.186  13.933  64.002  1.00  0.00    -0.016 C  
HETATM   17  O   UNL     1     -11.524  14.497  62.973  1.00  0.00     1.491 OA 
HETATM   18  N   UNL     1     -10.741  14.446  65.197  1.00  0.00    -0.372 N  
HETATM   19  H   UNL     1     -10.528  13.794  65.952  1.00  0.00     0.000 HD 
BRANCH  18  20
HETATM   20  C   UNL     1     -10.563  15.806  65.435  1.00  0.00    -0.421 A  
HETATM   21  C   UNL     1      -9.272  17.570  66.425  1.00  0.00    -0.267 A  
HETATM   22 CL   UNL     1      -9.739  20.169  65.832  1.00  0.00    -0.437 Cl 
HETATM   23  C   UNL     1      -9.537  16.205  66.288  1.00  0.00    -0.334 A  
HETATM   24  C   UNL     1     -11.094  18.006  64.963  1.00  0.00     1.167 A  
HETATM   25  N   UNL     1     -11.352  16.690  64.801  1.00  0.00    -0.573 NA 
HETATM   26  C   UNL     1     -10.059  18.488  65.739  1.00  0.00    -0.002 A  
ENDBRANCH  18  20
ENDBRANCH  15  16
ENDBRANCH   9  12
BRANCH  10  27
HETATM   27  N   UNL     1     -10.082  10.923  67.539  1.00  0.00    -0.180 N  
HETATM   28  O   UNL     1      -9.119  12.838  66.764  1.00  0.00    -0.217 OA 
HETATM   29  C   UNL     1      -9.871  12.300  67.577  1.00  0.00    -0.193 C  
HETATM   30  H   UNL     1     -10.645  10.476  68.263  1.00  0.00     0.000 HD 
BRANCH  29  31
HETATM   31  C   UNL     1     -10.603  13.033  68.610  1.00  0.00    -0.236 A  
HETATM   32  N   UNL     1     -10.528  14.343  68.807  1.00  0.00    -0.241 NA 
HETATM   33  C   UNL     1     -11.445  16.063  70.423  1.00  0.00    -0.392 C  
HETATM   34  C   UNL     1     -14.390  15.532  71.202  1.00  0.00    -0.011 C  
HETATM   35  C   UNL     1     -11.307  14.668  69.910  1.00  0.00    -0.259 A  
HETATM   36  C   UNL     1     -12.089  16.054  71.833  1.00  0.00    -0.514 C  
HETATM   37  C   UNL     1     -11.974  13.620  70.500  1.00  0.00    -0.280 A  
HETATM   38  N   UNL     1     -13.237  15.129  72.006  1.00  0.00    -0.348 NA 
HETATM   39  C   UNL     1     -12.839  13.728  71.722  1.00  0.00    -0.326 C  
HETATM   40  S   UNL     1     -11.633  12.169  69.697  1.00  0.00    -0.261 SA 
ENDBRANCH  29  31
ENDBRANCH  10  27
ENDBRANCH   4   6
TORSDOF 6
ENDMDL
MODEL       50
REMARK 921   NORMALIZED FREE ENERGY PREDICTED BY IDOCK:   -2.48 KCAL/MOL
REMARK 922        TOTAL FREE ENERGY PREDICTED BY IDOCK:   -4.26 KCAL/MOL
REMARK 923 INTER-LIGAND FREE ENERGY PREDICTED BY IDOCK:   -5.00 KCAL/MOL
REMARK 924 INTRA-LIGAND FREE ENERGY PREDICTED BY IDOCK:    0.74 KCAL/MOL
REMARK 927      BINDING AFFINITY PREDICTED BY RF-SCORE:    0.00 PKD
ROOT
HETATM    1  C   UNL     1      -5.609   2.147  74.416  1.00  0.00     0.000 C  
HETATM    2  N   UNL     1      -6.433   3.315  74.128  1.00  0.00    -0.028 N  
HETATM    3  C   UNL     1      -5.863   4.609  74.461  1.00  0.00    -0.033 C  
HETATM    4  C   UNL     1      -7.598   3.083  73.407  1.00  0.00    -0.052 C  
HETATM    5  O   UNL     1      -7.894   1.925  73.093  1.00  0.00    -0.040 OA 
ENDROOT
BRANCH   4   6
HETATM    6  C   UNL     1      -8.574   4.234  73.056  1.00  0.00    -0.097 C  
HETATM    7  C   UNL     1      -8.047   5.654  73.261  1.00  0.00    -0.114 C  
HETATM    8  C   UNL     1      -6.920   6.010  72.298  1.00  0.00    -0.082 C  
HETATM    9  C   UNL     1      -7.302   5.841  70.820  1.00  0.00    -0.084 C  
HETATM   10  C   UNL     1      -7.971   4.463  70.548  1.00  0.00    -0.059 C  
HETATM   11  C   UNL     1      -9.067   4.117  71.582  1.00  0.00    -0.172 C  
BRANCH   9  12
HETATM   12  N   UNL     1      -8.116   6.959  70.361  1.00  0.00    -0.114 N  
HETATM   13  O   UNL     1      -7.292   7.014  68.181  1.00  0.00    -0.091 OA 
HETATM   14  H   UNL     1      -8.734   7.431  71.020  1.00  0.00     0.000 HD 
HETATM   15  C   UNL     1      -8.067   7.393  69.051  1.00  0.00    -0.127 C  
BRANCH  15  16
HETATM   16  C   UNL     1      -9.154   8.411  68.696  1.00  0.00    -0.140 C  
HETATM   17  O   UNL     1     -10.275   8.217  69.140  1.00  0.00    -0.205 OA 
HETATM   18  N   UNL     1      -8.689   9.380  67.838  1.00  0.00    -0.120 N  
HETATM   19  H   UNL     1      -7.696   9.380  67.605  1.00  0.00     0.000 HD 
BRANCH  18  20
HETATM   20  C   UNL     1      -9.497  10.360  67.270  1.00  0.00    -0.154 A  
HETATM   21  C   UNL     1     -10.725  11.171  65.374  1.00  0.00    -0.259 A  
HETATM   22 CL   UNL     1     -12.436  13.257  65.583  1.00  0.00    -0.516 Cl 
HETATM   23  C   UNL     1      -9.810  10.265  65.917  1.00  0.00    -0.298 A  
HETATM   24  C   UNL     1     -10.856  12.216  67.505  1.00  0.00    -0.243 A  
HETATM   25  N   UNL     1      -9.989  11.337  68.052  1.00  0.00    -0.174 NA 
HETATM   26  C   UNL     1     -11.268  12.158  66.188  1.00  0.00    -0.338 A  
ENDBRANCH  18  20
ENDBRANCH  15  16
ENDBRANCH   9  12
BRANCH  10  27
HETATM   27  N   UNL     1      -8.446   4.340  69.162  1.00  0.00    -0.080 N  
HETATM   28  O   UNL     1      -6.508   3.358  68.474  1.00  0.00    -0.035 OA 
HETATM   29  C   UNL     1      -7.651   3.724  68.198  1.00  0.00    -0.065 C  
HETATM   30  H   UNL     1      -9.361   4.709  68.904  1.00  0.00     0.000 HD 
BRANCH  29  31
HETATM   31  C   UNL     1      -8.265   3.535  66.884  1.00  0.00    -0.095 A  
HETATM   32  N   UNL     1      -7.671   2.964  65.844  1.00  0.00    -0.080 NA 
HETATM   33  C   UNL     1      -8.183   2.475  63.413  1.00  0.00    -0.081 C  
HETATM   34  C   UNL     1     -11.112   1.598  62.954  1.00  0.00    -0.230 C  
HETATM   35  C   UNL     1      -8.534   3.020  64.758  1.00  0.00    -0.095 A  
HETATM   36  C   UNL     1      -9.191   2.981  62.350  1.00  0.00    -0.087 C  
HETATM   37  C   UNL     1      -9.761   3.592  64.999  1.00  0.00    -0.162 A  
HETATM   38  N   UNL     1     -10.617   2.960  62.761  1.00  0.00    -0.155 NA 
HETATM   39  C   UNL     1     -10.836   3.793  63.970  1.00  0.00    -0.176 C  
HETATM   40  S   UNL     1      -9.874   4.104  66.609  1.00  0.00    -0.118 SA 
ENDBRANCH  29  31
ENDBRANCH  10  27
ENDBRANCH   4   6
TORSDOF 6
ENDMDL
MODEL       51
REMARK 921   NORMALIZED FREE ENERGY PREDICTED BY IDOCK:   -2.30 KCAL/MOL
REMARK 922        TOTAL FREE ENERGY PREDICTED BY IDOCK:   -4.02 KCAL/MOL
REMARK 923 INTER-LIGAND FREE ENERGY PREDICTED BY IDOCK:   -4.58 KCAL/MOL
REMARK 924 INTRA-LIGAND FREE ENERGY PREDICTED BY IDOCK:    0.56 KCAL/MOL
REMARK 927      BINDING AFFINITY PREDICTED BY RF-SCORE:    0.00 PKD
ROOT
HETATM    1  C   UNL     1      -6.168  17.722  67.074  1.00  0.00    -0.159 C  
HETATM    2  N   UNL     1      -6.363  16.537  67.901  1.00  0.00    -0.129 N  
HETATM    3  C   UNL     1      -5.211  15.668  68.072  1.00  0.00    -0.124 C  
HETATM    4  C   UNL     1      -7.571  16.453  68.581  1.00  0.00    -0.197 C  
HETATM    5  O   UNL     1      -8.418  17.340  68.420  1.00  0.00    -0.238 OA 
ENDROOT
BRANCH   4   6
HETATM    6  C   UNL     1      -7.915  15.235  69.475  1.00  0.00    -0.199 C  
HETATM    7  C   UNL     1      -9.329  15.202  70.056  1.00  0.00     0.218 C  
HETATM    8  C   UNL     1     -10.401  15.010  68.989  1.00  0.00    -0.243 C  
HETATM    9  C   UNL     1     -10.195  13.750  68.133  1.00  0.00    -0.253 C  
HETATM   10  C   UNL     1      -8.735  13.639  67.608  1.00  0.00    -0.182 C  
HETATM   11  C   UNL     1      -7.683  13.898  68.710  1.00  0.00    -0.096 C  
BRANCH   9  12
HETATM   12  N   UNL     1     -10.625  12.558  68.851  1.00  0.00    -0.385 N  
HETATM   13  O   UNL     1     -12.588  13.463  69.724  1.00  0.00    -0.129 OA 
HETATM   14  H   UNL     1     -10.027  11.732  68.853  1.00  0.00     0.000 HD 
HETATM   15  C   UNL     1     -11.826  12.523  69.530  1.00  0.00    -0.310 C  
BRANCH  15  16
HETATM   16  C   UNL     1     -12.220  11.126  70.019  1.00  0.00    -0.326 C  
HETATM   17  O   UNL     1     -13.352  10.977  70.450  1.00  0.00     0.109 OA 
HETATM   18  N   UNL     1     -11.165  10.245  69.958  1.00  0.00    -0.289 N  
HETATM   19  H   UNL     1     -10.295  10.565  69.532  1.00  0.00     0.000 HD 
BRANCH  18  20
HETATM   20  C   UNL     1     -11.218   8.942  70.444  1.00  0.00    -0.230 A  
HETATM   21  C   UNL     1     -11.462   7.450  72.308  1.00  0.00    -0.329 A  
HETATM   22 CL   UNL     1     -11.831   4.792  71.953  1.00  0.00     1.093 Cl 
HETATM   23  C   UNL     1     -11.276   8.747  71.821  1.00  0.00    -0.410 A  
HETATM   24  C   UNL     1     -11.419   6.671  70.062  1.00  0.00    -0.375 A  
HETATM   25  N   UNL     1     -11.260   7.920  69.573  1.00  0.00     0.034 NA 
HETATM   26  C   UNL     1     -11.548   6.393  71.409  1.00  0.00    -0.311 A  
ENDBRANCH  18  20
ENDBRANCH  15  16
ENDBRANCH   9  12
BRANCH  10  27
HETATM   27  N   UNL     1      -8.499  12.379  66.887  1.00  0.00    -0.297 N  
HETATM   28  O   UNL     1      -6.244  12.705  66.842  1.00  0.00    -0.203 OA 
HETATM   29  C   UNL     1      -7.200  11.973  66.589  1.00  0.00     0.140 C  
HETATM   30  H   UNL     1      -9.290  11.800  66.605  1.00  0.00     0.000 HD 
BRANCH  29  31
HETATM   31  C   UNL     1      -7.066  10.645  65.988  1.00  0.00    -0.127 A  
HETATM   32  N   UNL     1      -5.949  10.162  65.461  1.00  0.00    -0.087 NA 
HETATM   33  C   UNL     1      -5.184   8.073  64.252  1.00  0.00    -0.036 C  
HETATM   34  C   UNL     1      -6.445   5.491  65.396  1.00  0.00    -0.039 C  
HETATM   35  C   UNL     1      -6.218   8.905  64.934  1.00  0.00    -0.065 A  
HETATM   36  C   UNL     1      -5.856   6.902  63.491  1.00  0.00    -0.036 C  
HETATM   37  C   UNL     1      -7.507   8.452  65.098  1.00  0.00    -0.084 A  
HETATM   38  N   UNL     1      -6.943   6.204  64.221  1.00  0.00    -0.049 NA 
HETATM   39  C   UNL     1      -8.033   7.146  64.579  1.00  0.00    -0.104 C  
HETATM   40  S   UNL     1      -8.444   9.603  65.913  1.00  0.00    -0.132 SA 
ENDBRANCH  29  31
ENDBRANCH  10  27
ENDBRANCH   4   6
TORSDOF 6
ENDMDL
MODEL       52
REMARK 921   NORMALIZED FREE ENERGY PREDICTED BY IDOCK:   -2.12 KCAL/MOL
REMARK 922        TOTAL FREE ENERGY PREDICTED BY IDOCK:   -3.78 KCAL/MOL
REMARK 923 INTER-LIGAND FREE ENERGY PREDICTED BY IDOCK:   -4.13 KCAL/MOL
REMARK 924 INTRA-LIGAND FREE ENERGY PREDICTED BY IDOCK:    0.35 KCAL/MOL
REMARK 927      BINDING AFFINITY PREDICTED BY RF-SCORE:    0.00 PKD
ROOT
HETATM    1  C   UNL     1      -5.968   2.482  64.422  1.00  0.00    -0.014 C  
HETATM    2  N   UNL     1      -5.703   3.849  64.854  1.00  0.00    -0.014 N  
HETATM    3  C   UNL     1      -5.181   4.015  66.199  1.00  0.00    -0.009 C  
HETATM    4  C   UNL     1      -5.808   4.833  63.878  1.00  0.00    -0.017 C  
HETATM    5  O   UNL     1      -6.156   4.516  62.736  1.00  0.00    -0.017 OA 
ENDROOT
BRANCH   4   6
HETATM    6  C   UNL     1      -5.575   6.329  64.209  1.00  0.00    -0.022 C  
HETATM    7  C   UNL     1      -6.412   7.333  63.416  1.00  0.00    -0.052 C  
HETATM    8  C   UNL     1      -7.898   7.256  63.749  1.00  0.00    -0.109 C  
HETATM    9  C   UNL     1      -8.201   7.440  65.243  1.00  0.00    -0.127 C  
HETATM   10  C   UNL     1      -7.294   6.543  66.133  1.00  0.00    -0.080 C  
HETATM   11  C   UNL     1      -5.805   6.608  65.724  1.00  0.00    -0.026 C  
BRANCH   9  12
HETATM   12  N   UNL     1      -8.139   8.847  65.618  1.00  0.00    -0.108 N  
HETATM   13  O   UNL     1     -10.401   9.089  66.126  1.00  0.00    -0.212 OA 
HETATM   14  H   UNL     1      -7.256   9.349  65.533  1.00  0.00     0.000 HD 
HETATM   15  C   UNL     1      -9.253   9.514  66.085  1.00  0.00    -0.177 C  
BRANCH  15  16
HETATM   16  C   UNL     1      -8.948  10.905  66.651  1.00  0.00    -0.164 C  
HETATM   17  O   UNL     1      -9.799  11.769  66.512  1.00  0.00    -0.199 OA 
HETATM   18  N   UNL     1      -7.681  10.976  67.181  1.00  0.00    -0.124 N  
HETATM   19  H   UNL     1      -7.129  10.120  67.226  1.00  0.00     0.000 HD 
BRANCH  18  20
HETATM   20  C   UNL     1      -7.110  12.151  67.660  1.00  0.00    -0.124 A  
HETATM   21  C   UNL     1      -7.277  14.107  69.042  1.00  0.00    -0.110 A  
HETATM   22 CL   UNL     1      -5.130  15.676  69.538  1.00  0.00    -0.098 Cl 
HETATM   23  C   UNL     1      -7.885  12.994  68.452  1.00  0.00    -0.134 A  
HETATM   24  C   UNL     1      -5.256  13.502  67.947  1.00  0.00    -0.088 A  
HETATM   25  N   UNL     1      -5.821  12.412  67.385  1.00  0.00    -0.145 NA 
HETATM   26  C   UNL     1      -5.933  14.358  68.794  1.00  0.00    -0.084 A  
ENDBRANCH  18  20
ENDBRANCH  15  16
ENDBRANCH   9  12
BRANCH  10  27
HETATM   27  N   UNL     1      -7.496   6.799  67.568  1.00  0.00    -0.095 N  
HETATM   28  O   UNL     1      -9.671   6.125  67.489  1.00  0.00    -0.114 OA 
HETATM   29  C   UNL     1      -8.719   6.510  68.168  1.00  0.00    -0.117 C  
HETATM   30  H   UNL     1      -6.737   7.191  68.125  1.00  0.00     0.000 HD 
BRANCH  29  31
HETATM   31  C   UNL     1      -8.777   6.677  69.620  1.00  0.00    -0.140 A  
HETATM   32  N   UNL     1      -8.606   5.701  70.502  1.00  0.00    -0.127 NA 
HETATM   33  C   UNL     1      -8.687   5.394  73.014  1.00  0.00    -0.121 C  
HETATM   34  C   UNL     1      -7.474   7.784  74.558  1.00  0.00    -0.167 C  
HETATM   35  C   UNL     1      -8.795   6.221  71.777  1.00  0.00    -0.137 A  
HETATM   36  C   UNL     1      -9.273   6.164  74.225  1.00  0.00    -0.150 C  
HETATM   37  C   UNL     1      -9.068   7.568  71.837  1.00  0.00    -0.129 A  
HETATM   38  N   UNL     1      -8.904   7.600  74.310  1.00  0.00    -0.223 NA 
HETATM   39  C   UNL     1      -9.344   8.335  73.098  1.00  0.00    -0.211 C  
HETATM   40  S   UNL     1      -9.116   8.238  70.283  1.00  0.00    -0.152 SA 
ENDBRANCH  29  31
ENDBRANCH  10  27
ENDBRANCH   4   6
TORSDOF 6
ENDMDL
MODEL       53
REMARK 921   NORMALIZED FREE ENERGY PREDICTED BY IDOCK:   -2.10 KCAL/MOL
REMARK 922        TOTAL FREE ENERGY PREDICTED BY IDOCK:   -3.75 KCAL/MOL
REMARK 923 INTER-LIGAND FREE ENERGY PREDICTED BY IDOCK:   -5.83 KCAL/MOL
REMARK 924 INTRA-LIGAND FREE ENERGY PREDICTED BY IDOCK:    2.08 KCAL/MOL
REMARK 927      BINDING AFFINITY PREDICTED BY RF-SCORE:    0.00 PKD
ROOT
HETATM    1  C   UNL     1      -5.406   5.551  62.595  1.00  0.00    -0.013 C  
HETATM    2  N   UNL     1      -5.631   6.734  63.416  1.00  0.00    -0.034 N  
HETATM    3  C   UNL     1      -5.306   8.015  62.812  1.00  0.00    -0.059 C  
HETATM    4  C   UNL     1      -6.295   6.530  64.619  1.00  0.00    -0.038 C  
HETATM    5  O   UNL     1      -6.612   5.381  64.946  1.00  0.00    -0.041 OA 
ENDROOT
BRANCH   4   6
HETATM    6  C   UNL     1      -6.576   7.699  65.597  1.00  0.00    -0.045 C  
HETATM    7  C   UNL     1      -7.568   8.758  65.115  1.00  0.00    -0.096 C  
HETATM    8  C   UNL     1      -8.989   8.221  64.987  1.00  0.00     0.128 C  
HETATM    9  C   UNL     1      -9.529   7.603  66.286  1.00  0.00    -0.110 C  
HETATM   10  C   UNL     1      -8.516   6.604  66.916  1.00  0.00    -0.115 C  
HETATM   11  C   UNL     1      -7.078   7.167  66.972  1.00  0.00    -0.090 C  
BRANCH   9  12
HETATM   12  N   UNL     1      -9.950   8.638  67.220  1.00  0.00    -0.198 N  
HETATM   13  O   UNL     1      -7.922   8.815  68.356  1.00  0.00    -0.106 OA 
HETATM   14  H   UNL     1     -10.915   8.966  67.202  1.00  0.00     0.000 HD 
HETATM   15  C   UNL     1      -9.067   9.185  68.129  1.00  0.00    -0.132 C  
BRANCH  15  16
HETATM   16  C   UNL     1      -9.615  10.415  68.859  1.00  0.00    -0.192 C  
HETATM   17  O   UNL     1      -8.806  11.204  69.322  1.00  0.00     0.002 OA 
HETATM   18  N   UNL     1     -10.988  10.393  68.942  1.00  0.00    -0.232 N  
HETATM   19  H   UNL     1     -11.487   9.647  68.458  1.00  0.00     0.000 HD 
BRANCH  18  20
HETATM   20  C   UNL     1     -11.734  11.331  69.650  1.00  0.00    -0.350 A  
HETATM   21  C   UNL     1     -13.112  11.861  71.542  1.00  0.00    -0.377 A  
HETATM   22 CL   UNL     1     -13.754  14.418  72.153  1.00  0.00    -0.506 Cl 
HETATM   23  C   UNL     1     -12.469  10.904  70.753  1.00  0.00    -0.489 A  
HETATM   24  C   UNL     1     -12.328  13.531  70.042  1.00  0.00    -0.249 A  
HETATM   25  N   UNL     1     -11.684  12.622  69.279  1.00  0.00    -0.310 NA 
HETATM   26  C   UNL     1     -13.029  13.202  71.186  1.00  0.00    -0.198 A  
ENDBRANCH  18  20
ENDBRANCH  15  16
ENDBRANCH   9  12
BRANCH  10  27
HETATM   27  N   UNL     1      -8.975   6.097  68.218  1.00  0.00    -0.115 N  
HETATM   28  O   UNL     1      -9.135   3.958  67.448  1.00  0.00    -0.131 OA 
HETATM   29  C   UNL     1      -9.215   4.736  68.398  1.00  0.00    -0.124 C  
HETATM   30  H   UNL     1      -9.118   6.744  68.993  1.00  0.00     0.000 HD 
BRANCH  29  31
HETATM   31  C   UNL     1      -9.540   4.317  69.762  1.00  0.00    -0.209 A  
HETATM   32  N   UNL     1     -10.370   4.957  70.574  1.00  0.00    -0.216 NA 
HETATM   33  C   UNL     1     -11.201   4.761  72.958  1.00  0.00    -0.344 C  
HETATM   34  C   UNL     1     -11.690   1.834  73.825  1.00  0.00    -0.146 C  
HETATM   35  C   UNL     1     -10.379   4.303  71.800  1.00  0.00    -0.040 A  
HETATM   36  C   UNL     1     -10.746   4.046  74.255  1.00  0.00    -0.178 C  
HETATM   37  C   UNL     1      -9.592   3.178  71.882  1.00  0.00    -0.152 A  
HETATM   38  N   UNL     1     -10.475   2.592  74.122  1.00  0.00    -0.149 NA 
HETATM   39  C   UNL     1      -9.417   2.338  73.114  1.00  0.00    -0.084 C  
HETATM   40  S   UNL     1      -8.790   2.903  70.417  1.00  0.00    -0.094 SA 
ENDBRANCH  29  31
ENDBRANCH  10  27
ENDBRANCH   4   6
TORSDOF 6
ENDMDL
MODEL       54
REMARK 921   NORMALIZED FREE ENERGY PREDICTED BY IDOCK:   -2.00 KCAL/MOL
REMARK 922        TOTAL FREE ENERGY PREDICTED BY IDOCK:   -3.61 KCAL/MOL
REMARK 923 INTER-LIGAND FREE ENERGY PREDICTED BY IDOCK:   -5.31 KCAL/MOL
REMARK 924 INTRA-LIGAND FREE ENERGY PREDICTED BY IDOCK:    1.69 KCAL/MOL
REMARK 927      BINDING AFFINITY PREDICTED BY RF-SCORE:    0.00 PKD
ROOT
HETATM    1  C   UNL     1      -7.850   2.335  70.878  1.00  0.00    -0.039 C  
HETATM    2  N   UNL     1      -7.292   3.497  70.198  1.00  0.00    -0.041 N  
HETATM    3  C   UNL     1      -6.058   3.287  69.461  1.00  0.00    -0.024 C  
HETATM    4  C   UNL     1      -8.085   4.638  70.179  1.00  0.00    -0.068 C  
HETATM    5  O   UNL     1      -9.175   4.626  70.763  1.00  0.00    -0.126 OA 
ENDROOT
BRANCH   4   6
HETATM    6  C   UNL     1      -7.601   5.949  69.511  1.00  0.00    -0.088 C  
HETATM    7  C   UNL     1      -7.694   6.005  67.986  1.00  0.00    -0.101 C  
HETATM    8  C   UNL     1      -9.133   6.011  67.483  1.00  0.00    -0.109 C  
HETATM    9  C   UNL     1      -9.980   7.153  68.065  1.00  0.00    -0.158 C  
HETATM   10  C   UNL     1      -9.837   7.250  69.611  1.00  0.00    -0.163 C  
HETATM   11  C   UNL     1      -8.366   7.181  70.080  1.00  0.00    -0.137 C  
BRANCH   9  12
HETATM   12  N   UNL     1      -9.687   8.413  67.395  1.00  0.00    -0.159 N  
HETATM   13  O   UNL     1      -9.138   7.493  65.324  1.00  0.00     0.160 OA 
HETATM   14  H   UNL     1      -9.730   9.283  67.924  1.00  0.00     0.000 HD 
HETATM   15  C   UNL     1      -9.351   8.452  66.056  1.00  0.00    -0.177 C  
BRANCH  15  16
HETATM   16  C   UNL     1      -9.312   9.867  65.470  1.00  0.00    -0.223 C  
HETATM   17  O   UNL     1      -8.511  10.084  64.575  1.00  0.00    -0.153 OA 
HETATM   18  N   UNL     1     -10.171  10.718  66.126  1.00  0.00    -0.244 N  
HETATM   19  H   UNL     1     -10.784  10.326  66.841  1.00  0.00     0.000 HD 
BRANCH  18  20
HETATM   20  C   UNL     1     -10.250  12.083  65.869  1.00  0.00    -0.232 A  
HETATM   21  C   UNL     1      -9.710  14.332  66.509  1.00  0.00    -0.304 A  
HETATM   22 CL   UNL     1     -10.116  16.417  64.832  1.00  0.00     0.378 Cl 
HETATM   23  C   UNL     1      -9.752  12.970  66.820  1.00  0.00    -0.248 A  
HETATM   24  C   UNL     1     -10.729  13.822  64.423  1.00  0.00    -0.316 A  
HETATM   25  N   UNL     1     -10.759  12.500  64.698  1.00  0.00    -0.294 NA 
HETATM   26  C   UNL     1     -10.197  14.764  65.281  1.00  0.00    -0.384 A  
ENDBRANCH  18  20
ENDBRANCH  15  16
ENDBRANCH   9  12
BRANCH  10  27
HETATM   27  N   UNL     1     -10.551   8.411  70.163  1.00  0.00    -0.229 N  
HETATM   28  O   UNL     1      -9.125   9.890  69.176  1.00  0.00    -0.151 OA 
HETATM   29  C   UNL     1     -10.142   9.705  69.845  1.00  0.00    -0.246 C  
HETATM   30  H   UNL     1     -11.350   8.270  70.781  1.00  0.00     0.000 HD 
BRANCH  29  31
HETATM   31  C   UNL     1     -10.995  10.787  70.336  1.00  0.00     0.020 A  
HETATM   32  N   UNL     1     -11.923  10.654  71.275  1.00  0.00    -0.300 NA 
HETATM   33  C   UNL     1     -13.682  12.083  72.403  1.00  0.00     0.081 C  
HETATM   34  C   UNL     1     -12.716  14.969  72.953  1.00  0.00    -0.425 C  
HETATM   35  C   UNL     1     -12.570  11.874  71.431  1.00  0.00    -0.240 A  
HETATM   36  C   UNL     1     -14.407  13.421  72.107  1.00  0.00    -0.108 C  
HETATM   37  C   UNL     1     -12.104  12.901  70.643  1.00  0.00    -0.235 A  
HETATM   38  N   UNL     1     -13.522  14.573  71.799  1.00  0.00    -0.349 NA 
HETATM   39  C   UNL     1     -12.673  14.290  70.615  1.00  0.00    -0.343 C  
HETATM   40  S   UNL     1     -10.837  12.368  69.654  1.00  0.00     0.473 SA 
ENDBRANCH  29  31
ENDBRANCH  10  27
ENDBRANCH   4   6
TORSDOF 6
ENDMDL
MODEL       55
REMARK 921   NORMALIZED FREE ENERGY PREDICTED BY IDOCK:   -1.98 KCAL/MOL
REMARK 922        TOTAL FREE ENERGY PREDICTED BY IDOCK:   -3.59 KCAL/MOL
REMARK 923 INTER-LIGAND FREE ENERGY PREDICTED BY IDOCK:   -3.35 KCAL/MOL
REMARK 924 INTRA-LIGAND FREE ENERGY PREDICTED BY IDOCK:   -0.24 KCAL/MOL
REMARK 927      BINDING AFFINITY PREDICTED BY RF-SCORE:    0.00 PKD
ROOT
HETATM    1  C   UNL     1      -7.301   1.711  73.550  1.00  0.00    -0.028 C  
HETATM    2  N   UNL     1      -8.111   2.905  73.339  1.00  0.00    -0.067 N  
HETATM    3  C   UNL     1      -9.383   2.959  74.040  1.00  0.00    -0.080 C  
HETATM    4  C   UNL     1      -7.509   3.940  72.635  1.00  0.00    -0.064 C  
HETATM    5  O   UNL     1      -6.364   3.785  72.194  1.00  0.00    -0.013 OA 
ENDROOT
BRANCH   4   6
HETATM    6  C   UNL     1      -8.267   5.254  72.320  1.00  0.00    -0.118 C  
HETATM    7  C   UNL     1      -7.819   6.493  73.095  1.00  0.00    -0.100 C  
HETATM    8  C   UNL     1      -6.413   6.948  72.720  1.00  0.00    -0.058 C  
HETATM    9  C   UNL     1      -6.237   7.221  71.219  1.00  0.00    -0.036 C  
HETATM   10  C   UNL     1      -6.792   6.057  70.349  1.00  0.00    -0.054 C  
HETATM   11  C   UNL     1      -8.195   5.590  70.801  1.00  0.00    -0.117 C  
BRANCH   9  12
HETATM   12  N   UNL     1      -6.806   8.512  70.855  1.00  0.00    -0.046 N  
HETATM   13  O   UNL     1      -5.275   9.013  69.169  1.00  0.00    -0.035 OA 
HETATM   14  H   UNL     1      -7.599   8.876  71.382  1.00  0.00     0.000 HD 
HETATM   15  C   UNL     1      -6.291   9.254  69.810  1.00  0.00    -0.039 C  
BRANCH  15  16
HETATM   16  C   UNL     1      -7.155  10.457  69.422  1.00  0.00    -0.102 C  
HETATM   17  O   UNL     1      -7.554  11.179  70.323  1.00  0.00     0.421 OA 
HETATM   18  N   UNL     1      -7.414  10.490  68.071  1.00  0.00    -0.089 N  
HETATM   19  H   UNL     1      -6.956   9.798  67.477  1.00  0.00     0.000 HD 
BRANCH  18  20
HETATM   20  C   UNL     1      -8.264  11.412  67.470  1.00  0.00    -0.130 A  
HETATM   21  C   UNL     1     -10.390  11.904  66.471  1.00  0.00    -0.249 A  
HETATM   22 CL   UNL     1     -11.154  14.447  65.950  1.00  0.00    -0.313 Cl 
HETATM   23  C   UNL     1      -9.478  10.963  66.956  1.00  0.00    -0.184 A  
HETATM   24  C   UNL     1      -8.798  13.602  66.955  1.00  0.00    -0.223 A  
HETATM   25  N   UNL     1      -7.912  12.709  67.446  1.00  0.00    -0.170 NA 
HETATM   26  C   UNL     1     -10.048  13.251  66.483  1.00  0.00    -0.275 A  
ENDBRANCH  18  20
ENDBRANCH  15  16
ENDBRANCH   9  12
BRANCH  10  27
HETATM   27  N   UNL     1      -6.735   6.362  68.911  1.00  0.00    -0.058 N  
HETATM   28  O   UNL     1      -8.904   7.059  68.866  1.00  0.00    -0.131 OA 
HETATM   29  C   UNL     1      -7.841   6.910  68.264  1.00  0.00    -0.118 C  
HETATM   30  H   UNL     1      -5.883   6.171  68.385  1.00  0.00     0.000 HD 
BRANCH  29  31
HETATM   31  C   UNL     1      -7.640   7.298  66.868  1.00  0.00    -0.105 A  
HETATM   32  N   UNL     1      -8.531   7.941  66.125  1.00  0.00    -0.126 NA 
HETATM   33  C   UNL     1      -8.762   8.750  63.737  1.00  0.00     0.015 C  
HETATM   34  C   UNL     1      -6.126   9.891  62.592  1.00  0.00    -0.111 C  
HETATM   35  C   UNL     1      -8.017   8.078  64.841  1.00  0.00    -0.138 A  
HETATM   36  C   UNL     1      -8.086   8.449  62.375  1.00  0.00    -0.175 C  
HETATM   37  C   UNL     1      -6.752   7.574  64.648  1.00  0.00    -0.050 A  
HETATM   38  N   UNL     1      -6.604   8.527  62.365  1.00  0.00    -0.095 NA 
HETATM   39  C   UNL     1      -6.014   7.576  63.340  1.00  0.00    -0.053 C  
HETATM   40  S   UNL     1      -6.159   6.886  66.077  1.00  0.00    -0.036 SA 
ENDBRANCH  29  31
ENDBRANCH  10  27
ENDBRANCH   4   6
TORSDOF 6
ENDMDL
MODEL       56
REMARK 921   NORMALIZED FREE ENERGY PREDICTED BY IDOCK:   -1.97 KCAL/MOL
REMARK 922        TOTAL FREE ENERGY PREDICTED BY IDOCK:   -3.57 KCAL/MOL
REMARK 923 INTER-LIGAND FREE ENERGY PREDICTED BY IDOCK:   -5.33 KCAL/MOL
REMARK 924 INTRA-LIGAND FREE ENERGY PREDICTED BY IDOCK:    1.75 KCAL/MOL
REMARK 927      BINDING AFFINITY PREDICTED BY RF-SCORE:    0.00 PKD
ROOT
HETATM    1  C   UNL     1     -11.164  15.941  66.130  1.00  0.00     0.091 C  
HETATM    2  N   UNL     1     -11.059  14.542  65.736  1.00  0.00    -0.317 N  
HETATM    3  C   UNL     1     -10.193  14.248  64.607  1.00  0.00    -0.112 C  
HETATM    4  C   UNL     1     -11.655  13.618  66.586  1.00  0.00    -0.364 C  
HETATM    5  O   UNL     1     -12.267  14.020  67.582  1.00  0.00    -0.352 OA 
ENDROOT
BRANCH   4   6
HETATM    6  C   UNL     1     -11.637  12.101  66.272  1.00  0.00    -0.424 C  
HETATM    7  C   UNL     1     -10.683  11.651  65.166  1.00  0.00    -0.351 C  
HETATM    8  C   UNL     1      -9.216  11.821  65.546  1.00  0.00    -0.067 C  
HETATM    9  C   UNL     1      -8.832  11.097  66.845  1.00  0.00    -0.157 C  
HETATM   10  C   UNL     1      -9.836  11.399  67.995  1.00  0.00    -0.184 C  
HETATM   11  C   UNL     1     -11.311  11.270  67.550  1.00  0.00    -0.360 C  
BRANCH   9  12
HETATM   12  N   UNL     1      -8.659   9.669  66.613  1.00  0.00    -0.130 N  
HETATM   13  O   UNL     1      -6.998   9.337  68.215  1.00  0.00    -0.070 OA 
HETATM   14  H   UNL     1      -9.191   9.214  65.872  1.00  0.00     0.000 HD 
HETATM   15  C   UNL     1      -7.789   8.918  67.379  1.00  0.00    -0.097 C  
BRANCH  15  16
HETATM   16  C   UNL     1      -7.914   7.408  67.155  1.00  0.00    -0.114 C  
HETATM   17  O   UNL     1      -8.557   6.768  67.972  1.00  0.00    -0.122 OA 
HETATM   18  N   UNL     1      -7.189   6.990  66.063  1.00  0.00    -0.073 N  
HETATM   19  H   UNL     1      -6.736   7.698  65.487  1.00  0.00     0.000 HD 
BRANCH  18  20
HETATM   20  C   UNL     1      -7.039   5.655  65.702  1.00  0.00    -0.067 A  
HETATM   21  C   UNL     1      -7.966   3.675  64.711  1.00  0.00    -0.090 A  
HETATM   22 CL   UNL     1      -6.426   1.522  64.144  1.00  0.00    -0.017 Cl 
HETATM   23  C   UNL     1      -8.144   4.973  65.196  1.00  0.00    -0.112 A  
HETATM   24  C   UNL     1      -5.681   3.817  65.350  1.00  0.00    -0.021 A  
HETATM   25  N   UNL     1      -5.829   5.080  65.806  1.00  0.00    -0.018 NA 
HETATM   26  C   UNL     1      -6.706   3.090  64.777  1.00  0.00    -0.040 A  
ENDBRANCH  18  20
ENDBRANCH  15  16
ENDBRANCH   9  12
BRANCH  10  27
HETATM   27  N   UNL     1      -9.543  10.618  69.207  1.00  0.00    -0.347 N  
HETATM   28  O   UNL     1     -11.142   9.068  68.722  1.00  0.00    -0.006 OA 
HETATM   29  C   UNL     1     -10.225   9.430  69.460  1.00  0.00    -0.209 C  
HETATM   30  H   UNL     1      -8.838  10.949  69.865  1.00  0.00     0.000 HD 
BRANCH  29  31
HETATM   31  C   UNL     1      -9.770   8.663  70.619  1.00  0.00    -0.184 A  
HETATM   32  N   UNL     1     -10.409   7.623  71.139  1.00  0.00    -0.200 NA 
HETATM   33  C   UNL     1     -10.159   6.045  73.103  1.00  0.00    -0.198 C  
HETATM   34  C   UNL     1      -7.222   5.238  73.632  1.00  0.00    -0.086 C  
HETATM   35  C   UNL     1      -9.714   7.196  72.264  1.00  0.00    -0.153 A  
HETATM   36  C   UNL     1      -9.385   6.030  74.445  1.00  0.00    -0.159 C  
HETATM   37  C   UNL     1      -8.561   7.888  72.552  1.00  0.00    -0.152 A  
HETATM   38  N   UNL     1      -7.928   6.301  74.346  1.00  0.00    -0.107 NA 
HETATM   39  C   UNL     1      -7.674   7.628  73.734  1.00  0.00    -0.138 C  
HETATM   40  S   UNL     1      -8.310   9.125  71.423  1.00  0.00     0.179 SA 
ENDBRANCH  29  31
ENDBRANCH  10  27
ENDBRANCH   4   6
TORSDOF 6
ENDMDL
MODEL       57
REMARK 921   NORMALIZED FREE ENERGY PREDICTED BY IDOCK:   -1.93 KCAL/MOL
REMARK 922        TOTAL FREE ENERGY PREDICTED BY IDOCK:   -3.53 KCAL/MOL
REMARK 923 INTER-LIGAND FREE ENERGY PREDICTED BY IDOCK:   -6.02 KCAL/MOL
REMARK 924 INTRA-LIGAND FREE ENERGY PREDICTED BY IDOCK:    2.49 KCAL/MOL
REMARK 927      BINDING AFFINITY PREDICTED BY RF-SCORE:    0.00 PKD
ROOT
HETATM    1  C   UNL     1     -11.211  16.070  66.031  1.00  0.00     0.142 C  
HETATM    2  N   UNL     1     -11.110  14.648  65.725  1.00  0.00    -0.324 N  
HETATM    3  C   UNL     1     -10.185  14.276  64.668  1.00  0.00    -0.112 C  
HETATM    4  C   UNL     1     -11.772  13.785  66.589  1.00  0.00    -0.394 C  
HETATM    5  O   UNL     1     -12.434  14.254  67.522  1.00  0.00    -0.170 OA 
ENDROOT
BRANCH   4   6
HETATM    6  C   UNL     1     -11.766  12.252  66.364  1.00  0.00    -0.431 C  
HETATM    7  C   UNL     1     -11.060  11.758  65.101  1.00  0.00    -0.341 C  
HETATM    8  C   UNL     1      -9.554  11.988  65.138  1.00  0.00    -0.091 C  
HETATM    9  C   UNL     1      -8.867  11.356  66.359  1.00  0.00    -0.192 C  
HETATM   10  C   UNL     1      -9.606  11.704  67.683  1.00  0.00    -0.181 C  
HETATM   11  C   UNL     1     -11.136  11.512  67.582  1.00  0.00    -0.324 C  
BRANCH   9  12
HETATM   12  N   UNL     1      -8.695   9.921  66.174  1.00  0.00    -0.134 N  
HETATM   13  O   UNL     1      -6.401   9.979  65.761  1.00  0.00    -0.080 OA 
HETATM   14  H   UNL     1      -9.510   9.310  66.210  1.00  0.00     0.000 HD 
HETATM   15  C   UNL     1      -7.448   9.372  65.952  1.00  0.00    -0.099 C  
BRANCH  15  16
HETATM   16  C   UNL     1      -7.426   7.842  66.020  1.00  0.00    -0.078 C  
HETATM   17  O   UNL     1      -6.783   7.248  65.169  1.00  0.00    -0.046 OA 
HETATM   18  N   UNL     1      -8.228   7.362  67.030  1.00  0.00    -0.119 N  
HETATM   19  H   UNL     1      -8.665   8.035  67.659  1.00  0.00     0.000 HD 
BRANCH  18  20
HETATM   20  C   UNL     1      -8.476   6.009  67.241  1.00  0.00    -0.104 A  
HETATM   21  C   UNL     1      -8.392   4.105  68.700  1.00  0.00    -0.093 A  
HETATM   22 CL   UNL     1      -9.665   1.797  68.089  1.00  0.00    -0.137 Cl 
HETATM   23  C   UNL     1      -8.031   5.427  68.426  1.00  0.00    -0.088 A  
HETATM   24  C   UNL     1      -9.498   4.038  66.597  1.00  0.00    -0.197 A  
HETATM   25  N   UNL     1      -9.175   5.320  66.323  1.00  0.00    -0.144 NA 
HETATM   26  C   UNL     1      -9.151   3.401  67.773  1.00  0.00    -0.164 A  
ENDBRANCH  18  20
ENDBRANCH  15  16
ENDBRANCH   9  12
BRANCH  10  27
HETATM   27  N   UNL     1      -9.026  11.009  68.842  1.00  0.00    -0.296 N  
HETATM   28  O   UNL     1     -11.018  10.054  69.400  1.00  0.00    -0.229 OA 
HETATM   29  C   UNL     1      -9.811  10.160  69.618  1.00  0.00    -0.225 C  
HETATM   30  H   UNL     1      -8.043  11.149  69.078  1.00  0.00     0.000 HD 
BRANCH  29  31
HETATM   31  C   UNL     1      -9.110   9.416  70.665  1.00  0.00    -0.233 A  
HETATM   32  N   UNL     1      -9.702   8.691  71.605  1.00  0.00    -0.250 NA 
HETATM   33  C   UNL     1      -9.039   7.331  73.635  1.00  0.00    -0.247 C  
HETATM   34  C   UNL     1      -6.447   5.702  73.198  1.00  0.00    -0.067 C  
HETATM   35  C   UNL     1      -8.725   8.188  72.455  1.00  0.00    -0.189 A  
HETATM   36  C   UNL     1      -7.799   7.216  74.558  1.00  0.00    -0.142 C  
HETATM   37  C   UNL     1      -7.427   8.510  72.129  1.00  0.00    -0.071 A  
HETATM   38  N   UNL     1      -6.503   7.003  73.865  1.00  0.00    -0.067 NA 
HETATM   39  C   UNL     1      -6.216   8.110  72.921  1.00  0.00    -0.078 C  
HETATM   40  S   UNL     1      -7.384   9.478  70.741  1.00  0.00    -0.022 SA 
ENDBRANCH  29  31
ENDBRANCH  10  27
ENDBRANCH   4   6
TORSDOF 6
ENDMDL
MODEL       58
REMARK 921   NORMALIZED FREE ENERGY PREDICTED BY IDOCK:   -1.86 KCAL/MOL
REMARK 922        TOTAL FREE ENERGY PREDICTED BY IDOCK:   -3.43 KCAL/MOL
REMARK 923 INTER-LIGAND FREE ENERGY PREDICTED BY IDOCK:   -4.59 KCAL/MOL
REMARK 924 INTRA-LIGAND FREE ENERGY PREDICTED BY IDOCK:    1.16 KCAL/MOL
REMARK 927      BINDING AFFINITY PREDICTED BY RF-SCORE:    0.00 PKD
ROOT
HETATM    1  C   UNL     1      -9.029   1.621  74.216  1.00  0.00    -0.057 C  
HETATM    2  N   UNL     1      -8.339   2.301  73.127  1.00  0.00    -0.065 N  
HETATM    3  C   UNL     1      -7.480   1.480  72.290  1.00  0.00    -0.039 C  
HETATM    4  C   UNL     1      -8.708   3.620  72.892  1.00  0.00    -0.093 C  
HETATM    5  O   UNL     1      -9.547   4.152  73.628  1.00  0.00    -0.105 OA 
ENDROOT
BRANCH   4   6
HETATM    6  C   UNL     1      -8.035   4.464  71.781  1.00  0.00    -0.089 C  
HETATM    7  C   UNL     1      -7.964   3.821  70.395  1.00  0.00    -0.052 C  
HETATM    8  C   UNL     1      -9.336   3.651  69.752  1.00  0.00    -0.243 C  
HETATM    9  C   UNL     1     -10.127   4.963  69.641  1.00  0.00    -0.230 C  
HETATM   10  C   UNL     1     -10.137   5.749  70.984  1.00  0.00    -0.205 C  
HETATM   11  C   UNL     1      -8.736   5.847  71.629  1.00  0.00    -0.136 C  
BRANCH   9  12
HETATM   12  N   UNL     1      -9.648   5.767  68.525  1.00  0.00    -0.122 N  
HETATM   13  O   UNL     1     -10.022   4.173  66.866  1.00  0.00    -0.210 OA 
HETATM   14  H   UNL     1      -9.262   6.694  68.705  1.00  0.00     0.000 HD 
HETATM   15  C   UNL     1      -9.706   5.300  67.227  1.00  0.00    -0.149 C  
BRANCH  15  16
HETATM   16  C   UNL     1      -9.384   6.363  66.173  1.00  0.00    -0.076 C  
HETATM   17  O   UNL     1      -8.629   6.048  65.266  1.00  0.00    -0.151 OA 
HETATM   18  N   UNL     1      -9.965   7.574  66.471  1.00  0.00    -0.423 N  
HETATM   19  H   UNL     1     -10.593   7.621  67.273  1.00  0.00     0.000 HD 
BRANCH  18  20
HETATM   20  C   UNL     1      -9.743   8.737  65.740  1.00  0.00    -0.052 A  
HETATM   21  C   UNL     1      -8.646   9.842  63.914  1.00  0.00    -0.208 A  
HETATM   22 CL   UNL     1      -9.364  12.330  63.128  1.00  0.00     0.477 Cl 
HETATM   23  C   UNL     1      -8.779   8.719  64.736  1.00  0.00    -0.133 A  
HETATM   24  C   UNL     1     -10.339  10.904  65.200  1.00  0.00    -0.278 A  
HETATM   25  N   UNL     1     -10.496   9.821  65.992  1.00  0.00    -0.095 NA 
HETATM   26  C   UNL     1      -9.451  10.951  64.143  1.00  0.00    -0.257 A  
ENDBRANCH  18  20
ENDBRANCH  15  16
ENDBRANCH   9  12
BRANCH  10  27
HETATM   27  N   UNL     1     -10.791   7.060  70.855  1.00  0.00    -0.236 N  
HETATM   28  O   UNL     1      -9.508   7.980  72.498  1.00  0.00    -0.183 OA 
HETATM   29  C   UNL     1     -10.369   8.136  71.632  1.00  0.00    -0.224 C  
HETATM   30  H   UNL     1     -11.559   7.181  70.194  1.00  0.00     0.000 HD 
BRANCH  29  31
HETATM   31  C   UNL     1     -10.993   9.425  71.336  1.00  0.00    -0.373 A  
HETATM   32  N   UNL     1     -11.812  10.077  72.152  1.00  0.00     0.299 NA 
HETATM   33  C   UNL     1     -13.201  12.193  72.137  1.00  0.00    -0.438 C  
HETATM   34  C   UNL     1     -11.774  14.558  70.746  1.00  0.00    -0.266 C  
HETATM   35  C   UNL     1     -12.254  11.225  71.509  1.00  0.00     0.028 A  
HETATM   36  C   UNL     1     -13.757  13.168  71.068  1.00  0.00     0.713 C  
HETATM   37  C   UNL     1     -11.745  11.438  70.249  1.00  0.00    -0.306 A  
HETATM   38  N   UNL     1     -12.761  13.693  70.101  1.00  0.00    -0.137 NA 
HETATM   39  C   UNL     1     -12.109  12.588  69.355  1.00  0.00    -0.180 C  
HETATM   40  S   UNL     1     -10.694  10.184  69.811  1.00  0.00    -0.297 SA 
ENDBRANCH  29  31
ENDBRANCH  10  27
ENDBRANCH   4   6
TORSDOF 6
ENDMDL
MODEL       59
REMARK 921   NORMALIZED FREE ENERGY PREDICTED BY IDOCK:   -1.55 KCAL/MOL
REMARK 922        TOTAL FREE ENERGY PREDICTED BY IDOCK:   -3.01 KCAL/MOL
REMARK 923 INTER-LIGAND FREE ENERGY PREDICTED BY IDOCK:   -3.35 KCAL/MOL
REMARK 924 INTRA-LIGAND FREE ENERGY PREDICTED BY IDOCK:    0.33 KCAL/MOL
REMARK 927      BINDING AFFINITY PREDICTED BY RF-SCORE:    0.00 PKD
ROOT
HETATM    1  C   UNL     1      -6.319   5.146  62.673  1.00  0.00    -0.021 C  
HETATM    2  N   UNL     1      -7.301   5.315  63.736  1.00  0.00    -0.050 N  
HETATM    3  C   UNL     1      -7.765   4.104  64.391  1.00  0.00    -0.084 C  
HETATM    4  C   UNL     1      -7.559   6.621  64.133  1.00  0.00    -0.104 C  
HETATM    5  O   UNL     1      -6.994   7.553  63.548  1.00  0.00    -0.056 OA 
ENDROOT
BRANCH   4   6
HETATM    6  C   UNL     1      -8.599   6.943  65.235  1.00  0.00    -0.006 C  
HETATM    7  C   UNL     1      -8.236   6.502  66.654  1.00  0.00    -0.112 C  
HETATM    8  C   UNL     1      -7.052   7.273  67.227  1.00  0.00    -0.091 C  
HETATM    9  C   UNL     1      -7.255   8.796  67.226  1.00  0.00    -0.080 C  
HETATM   10  C   UNL     1      -7.754   9.313  65.846  1.00  0.00    -0.098 C  
HETATM   11  C   UNL     1      -8.916   8.467  65.277  1.00  0.00    -0.102 C  
BRANCH   9  12
HETATM   12  N   UNL     1      -8.119   9.207  68.325  1.00  0.00    -0.104 N  
HETATM   13  O   UNL     1      -7.163  11.309  68.644  1.00  0.00    -0.083 OA 
HETATM   14  H   UNL     1      -8.811   8.553  68.688  1.00  0.00     0.000 HD 
HETATM   15  C   UNL     1      -8.018  10.465  68.884  1.00  0.00    -0.123 C  
BRANCH  15  16
HETATM   16  C   UNL     1      -9.154  10.802  69.855  1.00  0.00     0.655 C  
HETATM   17  O   UNL     1      -9.368  10.019  70.766  1.00  0.00     0.090 OA 
HETATM   18  N   UNL     1      -9.825  11.944  69.483  1.00  0.00     0.085 N  
HETATM   19  H   UNL     1      -9.464  12.478  68.691  1.00  0.00     0.000 HD 
BRANCH  18  20
HETATM   20  C   UNL     1     -10.966  12.413  70.125  1.00  0.00     0.905 A  
HETATM   21  C   UNL     1     -12.814  11.998  71.601  1.00  0.00    -0.399 A  
HETATM   22 CL   UNL     1     -14.361  14.013  72.531  1.00  0.00    -0.390 Cl 
HETATM   23  C   UNL     1     -11.742  11.509  70.847  1.00  0.00     0.169 A  
HETATM   24  C   UNL     1     -12.308  14.174  70.789  1.00  0.00    -0.369 A  
HETATM   25  N   UNL     1     -11.257  13.723  70.071  1.00  0.00    -0.018 NA 
HETATM   26  C   UNL     1     -13.094  13.359  71.581  1.00  0.00    -0.375 A  
ENDBRANCH  18  20
ENDBRANCH  15  16
ENDBRANCH   9  12
BRANCH  10  27
HETATM   27  N   UNL     1      -8.062  10.751  65.871  1.00  0.00    -0.172 N  
HETATM   28  O   UNL     1     -10.234  10.403  65.275  1.00  0.00    -0.299 OA 
HETATM   29  C   UNL     1      -9.357  11.197  65.615  1.00  0.00    -0.219 C  
HETATM   30  H   UNL     1      -7.325  11.425  66.076  1.00  0.00     0.000 HD 
BRANCH  29  31
HETATM   31  C   UNL     1      -9.589  12.630  65.792  1.00  0.00    -0.110 A  
HETATM   32  N   UNL     1      -9.317  13.311  66.898  1.00  0.00    -0.238 NA 
HETATM   33  C   UNL     1      -9.582  15.672  67.773  1.00  0.00    -0.209 C  
HETATM   34  C   UNL     1      -9.020  17.822  65.622  1.00  0.00     0.619 C  
HETATM   35  C   UNL     1      -9.729  14.626  66.719  1.00  0.00    -0.257 A  
HETATM   36  C   UNL     1     -10.424  16.921  67.407  1.00  0.00    -0.310 C  
HETATM   37  C   UNL     1     -10.265  14.921  65.487  1.00  0.00    -0.374 A  
HETATM   38  N   UNL     1     -10.354  17.346  65.987  1.00  0.00    -0.468 NA 
HETATM   39  C   UNL     1     -10.809  16.260  65.083  1.00  0.00    -0.318 C  
HETATM   40  S   UNL     1     -10.291  13.543  64.503  1.00  0.00    -0.230 SA 
ENDBRANCH  29  31
ENDBRANCH  10  27
ENDBRANCH   4   6
TORSDOF 6
ENDMDL
MODEL       60
REMARK 921   NORMALIZED FREE ENERGY PREDICTED BY IDOCK:   -1.31 KCAL/MOL
REMARK 922        TOTAL FREE ENERGY PREDICTED BY IDOCK:   -2.69 KCAL/MOL
REMARK 923 INTER-LIGAND FREE ENERGY PREDICTED BY IDOCK:   -6.18 KCAL/MOL
REMARK 924 INTRA-LIGAND FREE ENERGY PREDICTED BY IDOCK:    3.50 KCAL/MOL
REMARK 927      BINDING AFFINITY PREDICTED BY RF-SCORE:    0.00 PKD
ROOT
HETATM    1  C   UNL     1      -9.961   4.247  67.827  1.00  0.00    -0.004 C  
HETATM    2  N   UNL     1      -9.502   5.532  67.316  1.00  0.00    -0.114 N  
HETATM    3  C   UNL     1     -10.316   6.149  66.283  1.00  0.00     0.070 C  
HETATM    4  C   UNL     1      -8.436   6.116  67.989  1.00  0.00    -0.116 C  
HETATM    5  O   UNL     1      -7.914   5.513  68.934  1.00  0.00    -0.093 OA 
ENDROOT
BRANCH   4   6
HETATM    6  C   UNL     1      -7.835   7.470  67.535  1.00  0.00    -0.116 C  
HETATM    7  C   UNL     1      -7.719   7.685  66.026  1.00  0.00    -0.090 C  
HETATM    8  C   UNL     1      -9.076   7.797  65.340  1.00  0.00     0.182 C  
HETATM    9  C   UNL     1      -9.968   8.904  65.923  1.00  0.00    -0.029 C  
HETATM   10  C   UNL     1     -10.033   8.837  67.476  1.00  0.00    -0.198 C  
HETATM   11  C   UNL     1      -8.641   8.665  68.126  1.00  0.00    -0.141 C  
BRANCH   9  12
HETATM   12  N   UNL     1      -9.556  10.214  65.436  1.00  0.00    -0.242 N  
HETATM   13  O   UNL     1     -11.549  10.731  64.342  1.00  0.00     0.654 OA 
HETATM   14  H   UNL     1      -8.606  10.539  65.613  1.00  0.00     0.000 HD 
HETATM   15  C   UNL     1     -10.428  11.026  64.738  1.00  0.00    -0.316 C  
BRANCH  15  16
HETATM   16  C   UNL     1      -9.905  12.448  64.516  1.00  0.00    -0.078 C  
HETATM   17  O   UNL     1      -9.194  12.642  63.543  1.00  0.00     0.400 OA 
HETATM   18  N   UNL     1     -10.276  13.296  65.534  1.00  0.00    -0.294 N  
HETATM   19  H   UNL     1     -10.906  12.938  66.252  1.00  0.00     0.000 HD 
BRANCH  18  20
HETATM   20  C   UNL     1      -9.842  14.614  65.638  1.00  0.00    -0.321 A  
HETATM   21  C   UNL     1     -10.229  16.947  65.225  1.00  0.00     0.080 A  
HETATM   22 CL   UNL     1      -8.682  18.859  66.352  1.00  0.00    -0.316 Cl 
HETATM   23  C   UNL     1     -10.587  15.612  65.014  1.00  0.00    -0.422 A  
HETATM   24  C   UNL     1      -8.409  16.183  66.549  1.00  0.00    -0.317 A  
HETATM   25  N   UNL     1      -8.751  14.888  66.372  1.00  0.00    -0.174 NA 
HETATM   26  C   UNL     1      -9.126  17.237  66.019  1.00  0.00    -0.079 A  
ENDBRANCH  18  20
ENDBRANCH  15  16
ENDBRANCH   9  12
BRANCH  10  27
HETATM   27  N   UNL     1     -10.788   9.962  68.049  1.00  0.00    -0.347 N  
HETATM   28  O   UNL     1     -10.283   9.351  70.185  1.00  0.00    -0.199 OA 
HETATM   29  C   UNL     1     -10.813  10.163  69.427  1.00  0.00    -0.241 C  
HETATM   30  H   UNL     1     -11.295  10.599  67.434  1.00  0.00     0.000 HD 
BRANCH  29  31
HETATM   31  C   UNL     1     -11.480  11.381  69.886  1.00  0.00    -0.273 A  
HETATM   32  N   UNL     1     -12.117  11.507  71.043  1.00  0.00    -0.254 NA 
HETATM   33  C   UNL     1     -13.475  13.258  72.268  1.00  0.00    -0.679 C  
HETATM   34  C   UNL     1     -12.348  16.116  71.918  1.00  0.00    -0.380 C  
HETATM   35  C   UNL     1     -12.676  12.777  71.103  1.00  0.00    -0.263 A  
HETATM   36  C   UNL     1     -14.230  14.560  71.899  1.00  0.00    -0.538 C  
HETATM   37  C   UNL     1     -12.428  13.590  70.021  1.00  0.00    -0.167 A  
HETATM   38  N   UNL     1     -13.446  15.558  71.130  1.00  0.00    -0.548 NA 
HETATM   39  C   UNL     1     -12.960  14.984  69.851  1.00  0.00     0.107 C  
HETATM   40  S   UNL     1     -11.490  12.779  68.868  1.00  0.00    -0.325 SA 
ENDBRANCH  29  31
ENDBRANCH  10  27
ENDBRANCH   4   6
TORSDOF 6
ENDMDL
MODEL       61
REMARK 921   NORMALIZED FREE ENERGY PREDICTED BY IDOCK:   -1.30 KCAL/MOL
REMARK 922        TOTAL FREE ENERGY PREDICTED BY IDOCK:   -2.68 KCAL/MOL
REMARK 923 INTER-LIGAND FREE ENERGY PREDICTED BY IDOCK:   -5.38 KCAL/MOL
REMARK 924 INTRA-LIGAND FREE ENERGY PREDICTED BY IDOCK:    2.71 KCAL/MOL
REMARK 927      BINDING AFFINITY PREDICTED BY RF-SCORE:    0.00 PKD
ROOT
HETATM    1  C   UNL     1      -5.906   6.603  74.493  1.00  0.00    -0.067 C  
HETATM    2  N   UNL     1      -6.990   7.365  73.886  1.00  0.00    -0.082 N  
HETATM    3  C   UNL     1      -7.172   8.726  74.360  1.00  0.00    -0.010 C  
HETATM    4  C   UNL     1      -7.622   6.776  72.798  1.00  0.00    -0.091 C  
HETATM    5  O   UNL     1      -7.274   5.646  72.437  1.00  0.00    -0.085 OA 
ENDROOT
BRANCH   4   6
HETATM    6  C   UNL     1      -8.805   7.468  72.076  1.00  0.00    -0.142 C  
HETATM    7  C   UNL     1      -8.588   8.925  71.667  1.00  0.00    -0.160 C  
HETATM    8  C   UNL     1      -7.534   9.081  70.577  1.00  0.00    -0.099 C  
HETATM    9  C   UNL     1      -7.833   8.260  69.313  1.00  0.00    -0.108 C  
HETATM   10  C   UNL     1      -8.197   6.786  69.653  1.00  0.00    -0.131 C  
HETATM   11  C   UNL     1      -9.224   6.674  70.802  1.00  0.00    -0.155 C  
BRANCH   9  12
HETATM   12  N   UNL     1      -8.848   8.913  68.497  1.00  0.00    -0.134 N  
HETATM   13  O   UNL     1      -9.672  10.317  70.166  1.00  0.00    -0.114 OA 
HETATM   14  H   UNL     1      -8.984   8.612  67.532  1.00  0.00     0.000 HD 
HETATM   15  C   UNL     1      -9.630   9.932  69.003  1.00  0.00    -0.186 C  
BRANCH  15  16
HETATM   16  C   UNL     1     -10.467  10.654  67.943  1.00  0.00    -0.208 C  
HETATM   17  O   UNL     1     -11.187   9.972  67.232  1.00  0.00    -0.167 OA 
HETATM   18  N   UNL     1     -10.204  12.004  67.915  1.00  0.00    -0.191 N  
HETATM   19  H   UNL     1      -9.579  12.388  68.624  1.00  0.00     0.000 HD 
BRANCH  18  20
HETATM   20  C   UNL     1     -10.744  12.876  66.974  1.00  0.00    -0.257 A  
HETATM   21  C   UNL     1     -12.207  14.710  66.468  1.00  0.00    -0.154 A  
HETATM   22 CL   UNL     1     -12.143  15.950  64.064  1.00  0.00     0.005 Cl 
HETATM   23  C   UNL     1     -11.755  13.746  67.373  1.00  0.00    -0.417 A  
HETATM   24  C   UNL     1     -10.705  13.811  64.860  1.00  0.00    -0.399 A  
HETATM   25  N   UNL     1     -10.242  12.885  65.727  1.00  0.00    -0.285 NA 
HETATM   26  C   UNL     1     -11.662  14.751  65.190  1.00  0.00    -0.337 A  
ENDBRANCH  18  20
ENDBRANCH  15  16
ENDBRANCH   9  12
BRANCH  10  27
HETATM   27  N   UNL     1      -8.599   6.025  68.461  1.00  0.00    -0.112 N  
HETATM   28  O   UNL     1      -6.695   6.576  67.337  1.00  0.00    -0.061 OA 
HETATM   29  C   UNL     1      -7.749   5.940  67.361  1.00  0.00    -0.097 C  
HETATM   30  H   UNL     1      -9.505   5.556  68.440  1.00  0.00     0.000 HD 
BRANCH  29  31
HETATM   31  C   UNL     1      -8.183   5.054  66.281  1.00  0.00    -0.108 A  
HETATM   32  N   UNL     1      -8.468   5.447  65.046  1.00  0.00    -0.148 NA 
HETATM   33  C   UNL     1      -9.320   4.426  62.892  1.00  0.00    -0.117 C  
HETATM   34  C   UNL     1      -8.145   1.618  62.344  1.00  0.00    -0.055 C  
HETATM   35  C   UNL     1      -8.904   4.344  64.322  1.00  0.00    -0.149 A  
HETATM   36  C   UNL     1     -10.060   3.129  62.474  1.00  0.00    -0.106 C  
HETATM   37  C   UNL     1      -8.909   3.148  65.002  1.00  0.00    -0.126 A  
HETATM   38  N   UNL     1      -9.452   1.863  62.954  1.00  0.00    -0.090 NA 
HETATM   39  C   UNL     1      -9.373   1.838  64.435  1.00  0.00    -0.132 C  
HETATM   40  S   UNL     1      -8.378   3.365  66.595  1.00  0.00    -0.105 SA 
ENDBRANCH  29  31
ENDBRANCH  10  27
ENDBRANCH   4   6
TORSDOF 6
ENDMDL
MODEL       62
REMARK 921   NORMALIZED FREE ENERGY PREDICTED BY IDOCK:   -0.81 KCAL/MOL
REMARK 922        TOTAL FREE ENERGY PREDICTED BY IDOCK:   -2.00 KCAL/MOL
REMARK 923 INTER-LIGAND FREE ENERGY PREDICTED BY IDOCK:   -5.52 KCAL/MOL
REMARK 924 INTRA-LIGAND FREE ENERGY PREDICTED BY IDOCK:    3.51 KCAL/MOL
REMARK 927      BINDING AFFINITY PREDICTED BY RF-SCORE:    0.00 PKD
ROOT
HETATM    1  C   UNL     1      -5.509   2.080  63.259  1.00  0.00    -0.008 C  
HETATM    2  N   UNL     1      -6.495   2.518  64.239  1.00  0.00    -0.026 N  
HETATM    3  C   UNL     1      -5.982   2.959  65.525  1.00  0.00    -0.019 C  
HETATM    4  C   UNL     1      -7.803   2.636  63.785  1.00  0.00    -0.072 C  
HETATM    5  O   UNL     1      -8.067   2.328  62.617  1.00  0.00    -0.065 OA 
ENDROOT
BRANCH   4   6
HETATM    6  C   UNL     1      -8.952   3.070  64.729  1.00  0.00    -0.129 C  
HETATM    7  C   UNL     1      -8.923   2.484  66.141  1.00  0.00    -0.123 C  
HETATM    8  C   UNL     1      -7.747   2.992  66.967  1.00  0.00    -0.075 C  
HETATM    9  C   UNL     1      -7.690   4.523  67.074  1.00  0.00    -0.090 C  
HETATM   10  C   UNL     1      -7.846   5.207  65.685  1.00  0.00    -0.096 C  
HETATM   11  C   UNL     1      -9.014   4.621  64.859  1.00  0.00    -0.153 C  
BRANCH   9  12
HETATM   12  N   UNL     1      -8.653   5.014  68.051  1.00  0.00    -0.103 N  
HETATM   13  O   UNL     1      -7.098   5.637  69.671  1.00  0.00    -0.060 OA 
HETATM   14  H   UNL     1      -9.651   4.934  67.853  1.00  0.00     0.000 HD 
HETATM   15  C   UNL     1      -8.243   5.584  69.239  1.00  0.00    -0.095 C  
BRANCH  15  16
HETATM   16  C   UNL     1      -9.373   6.253  70.027  1.00  0.00    -0.155 C  
HETATM   17  O   UNL     1     -10.228   5.528  70.512  1.00  0.00    -0.208 OA 
HETATM   18  N   UNL     1      -9.279   7.625  69.996  1.00  0.00    -0.151 N  
HETATM   19  H   UNL     1      -8.459   8.040  69.552  1.00  0.00     0.000 HD 
BRANCH  18  20
HETATM   20  C   UNL     1     -10.237   8.477  70.535  1.00  0.00    -0.194 A  
HETATM   21  C   UNL     1     -11.851  10.224  70.215  1.00  0.00    -0.372 A  
HETATM   22 CL   UNL     1     -13.610  10.898  72.158  1.00  0.00    -0.267 Cl 
HETATM   23  C   UNL     1     -10.797   9.454  69.716  1.00  0.00    -0.250 A  
HETATM   24  C   UNL     1     -11.632   9.069  72.281  1.00  0.00    -0.181 A  
HETATM   25  N   UNL     1     -10.626   8.301  71.809  1.00  0.00    -0.240 NA 
HETATM   26  C   UNL     1     -12.285  10.018  71.520  1.00  0.00    -0.405 A  
ENDBRANCH  18  20
ENDBRANCH  15  16
ENDBRANCH   9  12
BRANCH  10  27
HETATM   27  N   UNL     1      -7.911   6.672  65.791  1.00  0.00    -0.099 N  
HETATM   28  O   UNL     1     -10.123   6.641  66.336  1.00  0.00    -0.109 OA 
HETATM   29  C   UNL     1      -9.095   7.298  66.173  1.00  0.00    -0.122 C  
HETATM   30  H   UNL     1      -7.084   7.233  65.584  1.00  0.00     0.000 HD 
BRANCH  29  31
HETATM   31  C   UNL     1      -9.020   8.745  66.377  1.00  0.00    -0.158 A  
HETATM   32  N   UNL     1      -9.919   9.619  65.945  1.00  0.00    -0.294 NA 
HETATM   33  C   UNL     1     -10.249  12.129  65.919  1.00  0.00    -0.272 C  
HETATM   34  C   UNL     1      -9.339  13.489  68.543  1.00  0.00    -0.108 C  
HETATM   35  C   UNL     1      -9.481  10.898  66.266  1.00  0.00    -0.194 A  
HETATM   36  C   UNL     1      -9.359  13.385  66.103  1.00  0.00    -0.057 C  
HETATM   37  C   UNL     1      -8.292  10.966  66.955  1.00  0.00    -0.133 A  
HETATM   38  N   UNL     1      -8.526  13.404  67.331  1.00  0.00    -0.186 NA 
HETATM   39  C   UNL     1      -7.610  12.237  67.372  1.00  0.00    -0.159 C  
HETATM   40  S   UNL     1      -7.663   9.415  67.213  1.00  0.00    -0.091 SA 
ENDBRANCH  29  31
ENDBRANCH  10  27
ENDBRANCH   4   6
TORSDOF 6
ENDMDL
MODEL       63
REMARK 921   NORMALIZED FREE ENERGY PREDICTED BY IDOCK:    0.62 KCAL/MOL
REMARK 922        TOTAL FREE ENERGY PREDICTED BY IDOCK:   -0.08 KCAL/MOL
REMARK 923 INTER-LIGAND FREE ENERGY PREDICTED BY IDOCK:   -2.69 KCAL/MOL
REMARK 924 INTRA-LIGAND FREE ENERGY PREDICTED BY IDOCK:    2.61 KCAL/MOL
REMARK 927      BINDING AFFINITY PREDICTED BY RF-SCORE:    0.00 PKD
ROOT
HETATM    1  C   UNL     1      -6.065   2.631  64.563  1.00  0.00    -0.018 C  
HETATM    2  N   UNL     1      -6.072   4.069  64.801  1.00  0.00    -0.022 N  
HETATM    3  C   UNL     1      -5.421   4.530  66.015  1.00  0.00    -0.013 C  
HETATM    4  C   UNL     1      -6.542   4.861  63.761  1.00  0.00    -0.037 C  
HETATM    5  O   UNL     1      -6.963   4.320  62.732  1.00  0.00    -0.034 OA 
ENDROOT
BRANCH   4   6
HETATM    6  C   UNL     1      -6.625   6.403  63.891  1.00  0.00    -0.033 C  
HETATM    7  C   UNL     1      -7.875   7.063  63.309  1.00  0.00    -0.110 C  
HETATM    8  C   UNL     1      -9.143   6.702  64.074  1.00  0.00     1.333 C  
HETATM    9  C   UNL     1      -9.070   7.033  65.572  1.00  0.00     0.229 C  
HETATM   10  C   UNL     1      -7.756   6.507  66.218  1.00  0.00    -0.095 C  
HETATM   11  C   UNL     1      -6.502   6.845  65.380  1.00  0.00    -0.046 C  
BRANCH   9  12
HETATM   12  N   UNL     1      -9.276   8.457  65.802  1.00  0.00    -0.372 N  
HETATM   13  O   UNL     1     -11.205   8.243  67.095  1.00  0.00     0.232 OA 
HETATM   14  H   UNL     1      -8.650   9.130  65.362  1.00  0.00     0.000 HD 
HETATM   15  C   UNL     1     -10.304   8.912  66.603  1.00  0.00    -0.223 C  
BRANCH  15  16
HETATM   16  C   UNL     1     -10.223  10.408  66.921  1.00  0.00    -0.227 C  
HETATM   17  O   UNL     1     -10.105  10.730  68.093  1.00  0.00    -0.157 OA 
HETATM   18  N   UNL     1     -10.376  11.182  65.794  1.00  0.00    -0.254 N  
HETATM   19  H   UNL     1     -10.435  10.710  64.891  1.00  0.00     0.000 HD 
BRANCH  18  20
HETATM   20  C   UNL     1     -10.454  12.571  65.815  1.00  0.00    -0.271 A  
HETATM   21  C   UNL     1      -9.599  14.668  66.612  1.00  0.00    -0.294 A  
HETATM   22 CL   UNL     1     -10.410  17.021  65.549  1.00  0.00    -0.232 Cl 
HETATM   23  C   UNL     1      -9.618  13.272  66.681  1.00  0.00    -0.262 A  
HETATM   24  C   UNL     1     -11.276  14.542  64.932  1.00  0.00    -0.391 A  
HETATM   25  N   UNL     1     -11.294  13.192  64.971  1.00  0.00    -0.294 NA 
HETATM   26  C   UNL     1     -10.436  15.315  65.710  1.00  0.00    -0.349 A  
ENDBRANCH  18  20
ENDBRANCH  15  16
ENDBRANCH   9  12
BRANCH  10  27
HETATM   27  N   UNL     1      -7.624   6.920  67.623  1.00  0.00    -0.107 N  
HETATM   28  O   UNL     1      -9.786   6.378  68.096  1.00  0.00    -0.122 OA 
HETATM   29  C   UNL     1      -8.693   6.771  68.503  1.00  0.00    -0.124 C  
HETATM   30  H   UNL     1      -6.745   7.319  67.954  1.00  0.00     0.000 HD 
BRANCH  29  31
HETATM   31  C   UNL     1      -8.419   7.089  69.905  1.00  0.00    -0.140 A  
HETATM   32  N   UNL     1      -7.963   6.225  70.803  1.00  0.00    -0.110 NA 
HETATM   33  C   UNL     1      -7.421   6.185  73.276  1.00  0.00    -0.092 C  
HETATM   34  C   UNL     1      -6.083   8.796  74.256  1.00  0.00    -0.116 C  
HETATM   35  C   UNL     1      -7.888   6.867  72.033  1.00  0.00    -0.095 A  
HETATM   36  C   UNL     1      -7.766   7.044  74.519  1.00  0.00    -0.122 C  
HETATM   37  C   UNL     1      -8.251   8.193  72.037  1.00  0.00    -0.149 A  
HETATM   38  N   UNL     1      -7.510   8.500  74.382  1.00  0.00    -0.350 NA 
HETATM   39  C   UNL     1      -8.285   9.073  73.253  1.00  0.00     0.960 C  
HETATM   40  S   UNL     1      -8.723   8.688  70.488  1.00  0.00    -0.178 SA 
ENDBRANCH  29  31
ENDBRANCH  10  27
ENDBRANCH   4   6
TORSDOF 6
ENDMDL
MODEL       64
REMARK 921   NORMALIZED FREE ENERGY PREDICTED BY IDOCK:    0.66 KCAL/MOL
REMARK 922        TOTAL FREE ENERGY PREDICTED BY IDOCK:   -0.03 KCAL/MOL
REMARK 923 INTER-LIGAND FREE ENERGY PREDICTED BY IDOCK:   -1.19 KCAL/MOL
REMARK 924 INTRA-LIGAND FREE ENERGY PREDICTED BY IDOCK:    1.16 KCAL/MOL
REMARK 927      BINDING AFFINITY PREDICTED BY RF-SCORE:    0.00 PKD
ROOT
HETATM    1  C   UNL     1      -8.998  20.705  70.619  1.00  0.00     2.241 C  
HETATM    2  N   UNL     1      -8.350  19.859  69.625  1.00  0.00     0.376 N  
HETATM    3  C   UNL     1      -9.099  19.594  68.409  1.00  0.00    -0.328 C  
HETATM    4  C   UNL     1      -7.019  19.538  69.864  1.00  0.00    -0.048 C  
HETATM    5  O   UNL     1      -6.478  19.937  70.902  1.00  0.00    -0.170 OA 
ENDROOT
BRANCH   4   6
HETATM    6  C   UNL     1      -6.220  18.627  68.900  1.00  0.00    -0.243 C  
HETATM    7  C   UNL     1      -5.226  17.663  69.549  1.00  0.00    -0.178 C  
HETATM    8  C   UNL     1      -5.910  16.577  70.373  1.00  0.00    -0.042 C  
HETATM    9  C   UNL     1      -6.935  15.757  69.575  1.00  0.00    -0.191 C  
HETATM   10  C   UNL     1      -7.909  16.668  68.774  1.00  0.00    -0.238 C  
HETATM   11  C   UNL     1      -7.177  17.789  68.001  1.00  0.00    -0.218 C  
BRANCH   9  12
HETATM   12  N   UNL     1      -6.270  14.770  68.734  1.00  0.00    -0.081 N  
HETATM   13  O   UNL     1      -7.441  12.915  69.521  1.00  0.00     0.325 OA 
HETATM   14  H   UNL     1      -5.514  15.067  68.117  1.00  0.00     0.000 HD 
HETATM   15  C   UNL     1      -6.645  13.442  68.754  1.00  0.00    -0.102 C  
BRANCH  15  16
HETATM   16  C   UNL     1      -6.007  12.603  67.642  1.00  0.00    -0.142 C  
HETATM   17  O   UNL     1      -5.145  13.134  66.960  1.00  0.00    -0.299 OA 
HETATM   18  N   UNL     1      -6.586  11.359  67.541  1.00  0.00    -0.071 N  
HETATM   19  H   UNL     1      -7.284  11.096  68.237  1.00  0.00     0.000 HD 
BRANCH  18  20
HETATM   20  C   UNL     1      -6.273  10.441  66.545  1.00  0.00    -0.078 A  
HETATM   21  C   UNL     1      -5.416   8.285  65.928  1.00  0.00    -0.032 A  
HETATM   22 CL   UNL     1      -5.677   7.325  63.412  1.00  0.00    -0.040 Cl 
HETATM   23  C   UNL     1      -5.614   9.267  66.903  1.00  0.00    -0.040 A  
HETATM   24  C   UNL     1      -6.438   9.737  64.348  1.00  0.00    -0.117 A  
HETATM   25  N   UNL     1      -6.656  10.690  65.281  1.00  0.00    -0.051 NA 
HETATM   26  C   UNL     1      -5.848   8.520  64.628  1.00  0.00    -0.063 A  
ENDBRANCH  18  20
ENDBRANCH  15  16
ENDBRANCH   9  12
BRANCH  10  27
HETATM   27  N   UNL     1      -8.817  15.892  67.916  1.00  0.00    -0.178 N  
HETATM   28  O   UNL     1      -8.002  16.843  66.012  1.00  0.00    -0.406 OA 
HETATM   29  C   UNL     1      -8.753  16.016  66.530  1.00  0.00    -0.303 C  
HETATM   30  H   UNL     1      -9.496  15.259  68.338  1.00  0.00     0.000 HD 
BRANCH  29  31
HETATM   31  C   UNL     1      -9.605  15.106  65.764  1.00  0.00    -0.309 A  
HETATM   32  N   UNL     1      -9.352  13.820  65.563  1.00  0.00     0.196 NA 
HETATM   33  C   UNL     1     -10.366  11.873  64.302  1.00  0.00    -0.362 C  
HETATM   34  C   UNL     1     -13.456  11.838  64.425  1.00  0.00     1.637 C  
HETATM   35  C   UNL     1     -10.344  13.299  64.741  1.00  0.00    -0.363 A  
HETATM   36  C   UNL     1     -11.381  11.685  63.145  1.00  0.00    -0.057 C  
HETATM   37  C   UNL     1     -11.333  14.178  64.368  1.00  0.00    -0.299 A  
HETATM   38  N   UNL     1     -12.679  12.385  63.313  1.00  0.00    -0.675 NA 
HETATM   39  C   UNL     1     -12.480  13.849  63.458  1.00  0.00     0.111 C  
HETATM   40  S   UNL     1     -11.046  15.712  65.025  1.00  0.00    -0.347 SA 
ENDBRANCH  29  31
ENDBRANCH  10  27
ENDBRANCH   4   6
TORSDOF 6
ENDMDL
MODEL       65
REMARK 921   NORMALIZED FREE ENERGY PREDICTED BY IDOCK:    0.69 KCAL/MOL
REMARK 922        TOTAL FREE ENERGY PREDICTED BY IDOCK:    0.02 KCAL/MOL
REMARK 923 INTER-LIGAND FREE ENERGY PREDICTED BY IDOCK:   -1.66 KCAL/MOL
REMARK 924 INTRA-LIGAND FREE ENERGY PREDICTED BY IDOCK:    1.68 KCAL/MOL
REMARK 927      BINDING AFFINITY PREDICTED BY RF-SCORE:    0.00 PKD
ROOT
HETATM    1  C   UNL     1      -6.635  20.094  70.171  1.00  0.00    -0.192 C  
HETATM    2  N   UNL     1      -6.212  18.889  69.469  1.00  0.00    -0.265 N  
HETATM    3  C   UNL     1      -6.120  18.980  68.022  1.00  0.00    -0.218 C  
HETATM    4  C   UNL     1      -5.771  17.837  70.262  1.00  0.00    -0.200 C  
HETATM    5  O   UNL     1      -5.802  17.955  71.493  1.00  0.00     0.510 OA 
ENDROOT
BRANCH   4   6
HETATM    6  C   UNL     1      -5.315  16.492  69.644  1.00  0.00    -0.146 C  
HETATM    7  C   UNL     1      -5.130  15.329  70.619  1.00  0.00    -0.137 C  
HETATM    8  C   UNL     1      -6.443  14.862  71.237  1.00  0.00     0.586 C  
HETATM    9  C   UNL     1      -7.501  14.463  70.197  1.00  0.00     0.501 C  
HETATM   10  C   UNL     1      -7.658  15.541  69.087  1.00  0.00    -0.204 C  
HETATM   11  C   UNL     1      -6.300  16.027  68.530  1.00  0.00    -0.115 C  
BRANCH   9  12
HETATM   12  N   UNL     1      -7.226  13.138  69.656  1.00  0.00    -0.243 N  
HETATM   13  O   UNL     1      -5.706  12.489  71.301  1.00  0.00    -0.378 OA 
HETATM   14  H   UNL     1      -7.658  12.856  68.777  1.00  0.00     0.000 HD 
HETATM   15  C   UNL     1      -6.390  12.256  70.312  1.00  0.00     0.144 C  
BRANCH  15  16
HETATM   16  C   UNL     1      -6.407  10.840  69.729  1.00  0.00    -0.104 C  
HETATM   17  O   UNL     1      -5.505  10.533  68.965  1.00  0.00    -0.042 OA 
HETATM   18  N   UNL     1      -7.524  10.137  70.118  1.00  0.00    -0.218 N  
HETATM   19  H   UNL     1      -8.153  10.571  70.794  1.00  0.00     0.000 HD 
BRANCH  18  20
HETATM   20  C   UNL     1      -7.843   8.869  69.643  1.00  0.00    -0.090 A  
HETATM   21  C   UNL     1      -8.143   6.526  70.072  1.00  0.00    -0.121 A  
HETATM   22 CL   UNL     1      -9.285   4.889  68.246  1.00  0.00    -0.142 Cl 
HETATM   23  C   UNL     1      -7.700   7.781  70.501  1.00  0.00    -0.088 A  
HETATM   24  C   UNL     1      -8.726   7.515  67.991  1.00  0.00    -0.121 A  
HETATM   25  N   UNL     1      -8.322   8.739  68.395  1.00  0.00    -0.125 NA 
HETATM   26  C   UNL     1      -8.678   6.394  68.796  1.00  0.00    -0.122 A  
ENDBRANCH  18  20
ENDBRANCH  15  16
ENDBRANCH   9  12
BRANCH  10  27
HETATM   27  N   UNL     1      -8.582  15.114  68.025  1.00  0.00    -0.153 N  
HETATM   28  O   UNL     1      -6.966  13.918  66.953  1.00  0.00     0.163 OA 
HETATM   29  C   UNL     1      -8.148  14.255  67.018  1.00  0.00    -0.039 C  
HETATM   30  H   UNL     1      -9.546  15.449  68.026  1.00  0.00     0.000 HD 
BRANCH  29  31
HETATM   31  C   UNL     1      -9.174  13.787  66.087  1.00  0.00     0.005 A  
HETATM   32  N   UNL     1      -9.194  12.588  65.520  1.00  0.00     0.157 NA 
HETATM   33  C   UNL     1     -10.596  11.319  63.837  1.00  0.00    -0.455 C  
HETATM   34  C   UNL     1     -13.626  11.858  64.146  1.00  0.00     1.371 C  
HETATM   35  C   UNL     1     -10.277  12.527  64.652  1.00  0.00    -0.290 A  
HETATM   36  C   UNL     1     -11.635  11.672  62.742  1.00  0.00     0.721 C  
HETATM   37  C   UNL     1     -11.065  13.653  64.603  1.00  0.00    -0.381 A  
HETATM   38  N   UNL     1     -12.759  12.535  63.181  1.00  0.00    -0.543 NA 
HETATM   39  C   UNL     1     -12.262  13.829  63.713  1.00  0.00    -0.311 C  
HETATM   40  S   UNL     1     -10.464  14.849  65.640  1.00  0.00    -0.379 SA 
ENDBRANCH  29  31
ENDBRANCH  10  27
ENDBRANCH   4   6
TORSDOF 6
ENDMDL
MODEL       66
REMARK 921   NORMALIZED FREE ENERGY PREDICTED BY IDOCK:    1.32 KCAL/MOL
REMARK 922        TOTAL FREE ENERGY PREDICTED BY IDOCK:    0.86 KCAL/MOL
REMARK 923 INTER-LIGAND FREE ENERGY PREDICTED BY IDOCK:   -1.61 KCAL/MOL
REMARK 924 INTRA-LIGAND FREE ENERGY PREDICTED BY IDOCK:    2.48 KCAL/MOL
REMARK 927      BINDING AFFINITY PREDICTED BY RF-SCORE:    0.00 PKD
ROOT
HETATM    1  C   UNL     1      -7.296   1.717  73.561  1.00  0.00    -0.028 C  
HETATM    2  N   UNL     1      -8.083   2.934  73.408  1.00  0.00    -0.067 N  
HETATM    3  C   UNL     1      -9.332   2.996  74.147  1.00  0.00    -0.081 C  
HETATM    4  C   UNL     1      -7.477   3.975  72.716  1.00  0.00    -0.073 C  
HETATM    5  O   UNL     1      -6.350   3.807  72.237  1.00  0.00    -0.013 OA 
ENDROOT
BRANCH   4   6
HETATM    6  C   UNL     1      -8.213   5.315  72.462  1.00  0.00    -0.114 C  
HETATM    7  C   UNL     1      -7.682   6.531  73.220  1.00  0.00    -0.092 C  
HETATM    8  C   UNL     1      -6.288   6.948  72.764  1.00  0.00    -0.054 C  
HETATM    9  C   UNL     1      -6.196   7.234  71.258  1.00  0.00    -0.036 C  
HETATM   10  C   UNL     1      -6.838   6.097  70.412  1.00  0.00    -0.054 C  
HETATM   11  C   UNL     1      -8.224   5.667  70.944  1.00  0.00    -0.120 C  
BRANCH   9  12
HETATM   12  N   UNL     1      -6.746   8.546  70.942  1.00  0.00    -0.042 N  
HETATM   13  O   UNL     1      -5.189   9.788  72.154  1.00  0.00    -0.077 OA 
HETATM   14  H   UNL     1      -7.598   8.610  70.386  1.00  0.00     0.000 HD 
HETATM   15  C   UNL     1      -6.136   9.704  71.382  1.00  0.00     0.001 C  
BRANCH  15  16
HETATM   16  C   UNL     1      -6.712  10.979  70.760  1.00  0.00     0.882 C  
HETATM   17  O   UNL     1      -7.882  10.959  70.412  1.00  0.00     0.517 OA 
HETATM   18  N   UNL     1      -5.757  11.960  70.622  1.00  0.00    -0.154 N  
HETATM   19  H   UNL     1      -4.829  11.785  71.008  1.00  0.00     0.000 HD 
BRANCH  18  20
HETATM   20  C   UNL     1      -5.985  13.175  69.985  1.00  0.00    -0.135 A  
HETATM   21  C   UNL     1      -6.148  15.567  70.114  1.00  0.00    -0.123 A  
HETATM   22 CL   UNL     1      -6.274  17.098  67.887  1.00  0.00    -0.143 Cl 
HETATM   23  C   UNL     1      -6.051  14.331  70.760  1.00  0.00    -0.174 A  
HETATM   24  C   UNL     1      -6.199  14.406  68.040  1.00  0.00    -0.155 A  
HETATM   25  N   UNL     1      -6.085  13.204  68.646  1.00  0.00    -0.075 NA 
HETATM   26  C   UNL     1      -6.211  15.605  68.726  1.00  0.00    -0.103 A  
ENDBRANCH  18  20
ENDBRANCH  15  16
ENDBRANCH   9  12
BRANCH  10  27
HETATM   27  N   UNL     1      -6.859   6.417  68.977  1.00  0.00    -0.063 N  
HETATM   28  O   UNL     1      -7.997   8.361  69.320  1.00  0.00    -0.108 OA 
HETATM   29  C   UNL     1      -7.427   7.608  68.530  1.00  0.00    -0.104 C  
HETATM   30  H   UNL     1      -6.457   5.763  68.305  1.00  0.00     0.000 HD 
BRANCH  29  31
HETATM   31  C   UNL     1      -7.281   7.893  67.103  1.00  0.00    -0.090 A  
HETATM   32  N   UNL     1      -7.959   7.289  66.136  1.00  0.00    -0.107 NA 
HETATM   33  C   UNL     1      -8.051   7.300  63.606  1.00  0.00    -0.005 C  
HETATM   34  C   UNL     1      -7.736  10.132  62.404  1.00  0.00    -0.135 C  
HETATM   35  C   UNL     1      -7.509   7.772  64.914  1.00  0.00    -0.094 A  
HETATM   36  C   UNL     1      -7.133   7.765  62.447  1.00  0.00    -0.082 C  
HETATM   37  C   UNL     1      -6.537   8.744  64.977  1.00  0.00    -0.068 A  
HETATM   38  N   UNL     1      -6.647   9.164  62.537  1.00  0.00    -0.094 NA 
HETATM   39  C   UNL     1      -5.879   9.381  63.788  1.00  0.00    -0.088 C  
HETATM   40  S   UNL     1      -6.133   9.079  66.587  1.00  0.00    -0.061 SA 
ENDBRANCH  29  31
ENDBRANCH  10  27
ENDBRANCH   4   6
TORSDOF 6
ENDMDL
MODEL       67
REMARK 921   NORMALIZED FREE ENERGY PREDICTED BY IDOCK:    3.82 KCAL/MOL
REMARK 922        TOTAL FREE ENERGY PREDICTED BY IDOCK:    4.24 KCAL/MOL
REMARK 923 INTER-LIGAND FREE ENERGY PREDICTED BY IDOCK:    3.53 KCAL/MOL
REMARK 924 INTRA-LIGAND FREE ENERGY PREDICTED BY IDOCK:    0.71 KCAL/MOL
REMARK 927      BINDING AFFINITY PREDICTED BY RF-SCORE:    0.00 PKD
ROOT
HETATM    1  C   UNL     1     -10.431  17.996  67.103  1.00  0.00    -0.367 C  
HETATM    2  N   UNL     1     -11.114  16.719  67.267  1.00  0.00    -0.026 N  
HETATM    3  C   UNL     1     -12.472  16.769  67.779  1.00  0.00     2.610 C  
HETATM    4  C   UNL     1     -10.463  15.604  66.753  1.00  0.00    -0.297 C  
HETATM    5  O   UNL     1      -9.347  15.740  66.237  1.00  0.00    -0.268 OA 
ENDROOT
BRANCH   4   6
HETATM    6  C   UNL     1     -11.067  14.183  66.881  1.00  0.00    -0.312 C  
HETATM    7  C   UNL     1     -11.158  13.369  65.590  1.00  0.00    -0.298 C  
HETATM    8  C   UNL     1      -9.791  12.985  65.036  1.00  0.00    -0.059 C  
HETATM    9  C   UNL     1      -8.919  12.213  66.038  1.00  0.00     0.020 C  
HETATM   10  C   UNL     1      -8.879  12.911  67.428  1.00  0.00    -0.199 C  
HETATM   11  C   UNL     1     -10.281  13.334  67.924  1.00  0.00    -0.233 C  
BRANCH   9  12
HETATM   12  N   UNL     1      -9.332  10.819  66.122  1.00  0.00    -0.177 N  
HETATM   13  O   UNL     1      -9.611  10.484  63.832  1.00  0.00    -0.261 OA 
HETATM   14  H   UNL     1      -9.442  10.384  67.037  1.00  0.00     0.000 HD 
HETATM   15  C   UNL     1      -9.579  10.075  64.986  1.00  0.00    -0.297 C  
BRANCH  15  16
HETATM   16  C   UNL     1      -9.767   8.579  65.256  1.00  0.00     0.726 C  
HETATM   17  O   UNL     1     -10.518   8.260  66.164  1.00  0.00     0.156 OA 
HETATM   18  N   UNL     1      -8.969   7.806  64.445  1.00  0.00     0.066 N  
HETATM   19  H   UNL     1      -8.425   8.273  63.719  1.00  0.00     0.000 HD 
BRANCH  18  20
HETATM   20  C   UNL     1      -8.861   6.424  64.558  1.00  0.00     0.509 A  
HETATM   21  C   UNL     1      -8.771   4.273  63.497  1.00  0.00    -0.121 A  
HETATM   22 CL   UNL     1      -8.078   2.046  64.868  1.00  0.00    -0.077 Cl 
HETATM   23  C   UNL     1      -9.008   5.648  63.411  1.00  0.00     0.430 A  
HETATM   24  C   UNL     1      -8.367   4.552  65.822  1.00  0.00    -0.114 A  
HETATM   25  N   UNL     1      -8.573   5.885  65.755  1.00  0.00    -0.150 NA 
HETATM   26  C   UNL     1      -8.432   3.716  64.724  1.00  0.00    -0.100 A  
ENDBRANCH  18  20
ENDBRANCH  15  16
ENDBRANCH   9  12
BRANCH  10  27
HETATM   27  N   UNL     1      -8.144  12.118  68.426  1.00  0.00    -0.159 N  
HETATM   28  O   UNL     1     -10.001  10.934  69.010  1.00  0.00    -0.205 OA 
HETATM   29  C   UNL     1      -8.790  11.111  69.139  1.00  0.00     0.073 C  
HETATM   30  H   UNL     1      -7.156  12.307  68.596  1.00  0.00     0.000 HD 
BRANCH  29  31
HETATM   31  C   UNL     1      -7.942  10.296  70.009  1.00  0.00    -0.000 A  
HETATM   32  N   UNL     1      -7.881  10.409  71.330  1.00  0.00     1.749 NA 
HETATM   33  C   UNL     1      -6.589   9.387  73.252  1.00  0.00     0.675 C  
HETATM   34  C   UNL     1      -6.132   6.348  72.914  1.00  0.00    -0.054 C  
HETATM   35  C   UNL     1      -6.926   9.519  71.804  1.00  0.00     0.509 A  
HETATM   36  C   UNL     1      -5.278   8.578  73.425  1.00  0.00    -0.058 C  
HETATM   37  C   UNL     1      -6.314   8.736  70.853  1.00  0.00    -0.049 A  
HETATM   38  N   UNL     1      -5.151   7.375  72.566  1.00  0.00    -0.036 NA 
HETATM   39  C   UNL     1      -5.229   7.736  71.128  1.00  0.00    -0.026 C  
HETATM   40  S   UNL     1      -6.906   9.102  69.309  1.00  0.00    -0.050 SA 
ENDBRANCH  29  31
ENDBRANCH  10  27
ENDBRANCH   4   6
TORSDOF 6
ENDMDL
MODEL       68
REMARK 921   NORMALIZED FREE ENERGY PREDICTED BY IDOCK:    3.92 KCAL/MOL
REMARK 922        TOTAL FREE ENERGY PREDICTED BY IDOCK:    4.38 KCAL/MOL
REMARK 923 INTER-LIGAND FREE ENERGY PREDICTED BY IDOCK:   -0.89 KCAL/MOL
REMARK 924 INTRA-LIGAND FREE ENERGY PREDICTED BY IDOCK:    5.27 KCAL/MOL
REMARK 927      BINDING AFFINITY PREDICTED BY RF-SCORE:    0.00 PKD
ROOT
HETATM    1  C   UNL     1      -5.884   5.482  62.961  1.00  0.00    -0.014 C  
HETATM    2  N   UNL     1      -6.219   6.648  63.769  1.00  0.00    -0.034 N  
HETATM    3  C   UNL     1      -7.107   7.625  63.163  1.00  0.00    -0.071 C  
HETATM    4  C   UNL     1      -5.799   6.620  65.094  1.00  0.00    -0.030 C  
HETATM    5  O   UNL     1      -5.141   5.654  65.498  1.00  0.00    -0.009 OA 
ENDROOT
BRANCH   4   6
HETATM    6  C   UNL     1      -6.069   7.805  66.054  1.00  0.00    -0.038 C  
HETATM    7  C   UNL     1      -6.865   8.975  65.476  1.00  0.00    -0.073 C  
HETATM    8  C   UNL     1      -8.310   8.606  65.160  1.00  0.00    -0.178 C  
HETATM    9  C   UNL     1      -9.077   8.043  66.367  1.00  0.00    -0.183 C  
HETATM   10  C   UNL     1      -8.271   6.930  67.096  1.00  0.00    -0.118 C  
HETATM   11  C   UNL     1      -6.798   7.323  67.344  1.00  0.00    -0.077 C  
BRANCH   9  12
HETATM   12  N   UNL     1      -9.493   9.113  67.264  1.00  0.00    -0.144 N  
HETATM   13  O   UNL     1      -7.354   9.725  67.961  1.00  0.00    -0.080 OA 
HETATM   14  H   UNL     1     -10.487   9.290  67.404  1.00  0.00     0.000 HD 
HETATM   15  C   UNL     1      -8.567   9.892  67.929  1.00  0.00    -0.125 C  
BRANCH  15  16
HETATM   16  C   UNL     1      -9.175  11.109  68.633  1.00  0.00    -0.171 C  
HETATM   17  O   UNL     1     -10.081  10.907  69.426  1.00  0.00    -0.189 OA 
HETATM   18  N   UNL     1      -8.628  12.288  68.184  1.00  0.00    -0.176 N  
HETATM   19  H   UNL     1      -7.849  12.238  67.528  1.00  0.00     0.000 HD 
BRANCH  18  20
HETATM   20  C   UNL     1      -9.076  13.546  68.576  1.00  0.00    -0.092 A  
HETATM   21  C   UNL     1      -8.570  15.791  69.258  1.00  0.00    -0.259 A  
HETATM   22 CL   UNL     1     -10.490  17.692  69.401  1.00  0.00    -0.106 Cl 
HETATM   23  C   UNL     1      -8.139  14.489  68.990  1.00  0.00    -0.085 A  
HETATM   24  C   UNL     1     -10.789  15.085  68.780  1.00  0.00    -0.249 A  
HETATM   25  N   UNL     1     -10.388  13.826  68.498  1.00  0.00    -0.242 NA 
HETATM   26  C   UNL     1      -9.921  16.097  69.138  1.00  0.00    -0.251 A  
ENDBRANCH  18  20
ENDBRANCH  15  16
ENDBRANCH   9  12
BRANCH  10  27
HETATM   27  N   UNL     1      -8.945   6.468  68.319  1.00  0.00    -0.122 N  
HETATM   28  O   UNL     1      -7.176   5.169  68.931  1.00  0.00    -0.059 OA 
HETATM   29  C   UNL     1      -8.289   5.617  69.205  1.00  0.00    -0.107 C  
HETATM   30  H   UNL     1      -9.898   6.773  68.519  1.00  0.00     0.000 HD 
BRANCH  29  31
HETATM   31  C   UNL     1      -8.994   5.321  70.453  1.00  0.00    -0.128 A  
HETATM   32  N   UNL     1     -10.128   5.893  70.836  1.00  0.00    -0.190 NA 
HETATM   33  C   UNL     1     -11.679   5.852  72.837  1.00  0.00    -0.090 C  
HETATM   34  C   UNL     1     -12.031   3.020  74.028  1.00  0.00     0.944 C  
HETATM   35  C   UNL     1     -10.460   5.412  72.096  1.00  0.00    -0.218 A  
HETATM   36  C   UNL     1     -11.594   5.406  74.319  1.00  0.00     2.388 C  
HETATM   37  C   UNL     1      -9.603   4.474  72.622  1.00  0.00    -0.137 A  
HETATM   38  N   UNL     1     -11.101   4.024  74.544  1.00  0.00     0.021 NA 
HETATM   39  C   UNL     1      -9.740   3.846  73.979  1.00  0.00    -0.105 C  
HETATM   40  S   UNL     1      -8.325   4.169  71.554  1.00  0.00    -0.092 SA 
ENDBRANCH  29  31
ENDBRANCH  10  27
ENDBRANCH   4   6
TORSDOF 6
ENDMDL
MODEL       69
REMARK 921   NORMALIZED FREE ENERGY PREDICTED BY IDOCK:    4.12 KCAL/MOL
REMARK 922        TOTAL FREE ENERGY PREDICTED BY IDOCK:    4.65 KCAL/MOL
REMARK 923 INTER-LIGAND FREE ENERGY PREDICTED BY IDOCK:    1.25 KCAL/MOL
REMARK 924 INTRA-LIGAND FREE ENERGY PREDICTED BY IDOCK:    3.40 KCAL/MOL
REMARK 927      BINDING AFFINITY PREDICTED BY RF-SCORE:    0.00 PKD
ROOT
HETATM    1  C   UNL     1     -12.558   5.681  72.979  1.00  0.00     0.887 C  
HETATM    2  N   UNL     1     -11.503   6.651  72.714  1.00  0.00    -0.185 N  
HETATM    3  C   UNL     1     -10.235   6.119  72.245  1.00  0.00    -0.185 C  
HETATM    4  C   UNL     1     -11.871   7.990  72.766  1.00  0.00    -0.243 C  
HETATM    5  O   UNL     1     -13.031   8.286  73.072  1.00  0.00    -0.022 OA 
ENDROOT
BRANCH   4   6
HETATM    6  C   UNL     1     -10.841   9.122  72.528  1.00  0.00     0.559 C  
HETATM    7  C   UNL     1      -9.372   8.756  72.744  1.00  0.00     0.106 C  
HETATM    8  C   UNL     1      -8.855   7.759  71.713  1.00  0.00    -0.150 C  
HETATM    9  C   UNL     1      -9.031   8.231  70.262  1.00  0.00    -0.142 C  
HETATM   10  C   UNL     1     -10.474   8.747  69.992  1.00  0.00    -0.212 C  
HETATM   11  C   UNL     1     -10.979   9.710  71.091  1.00  0.00    -0.430 C  
BRANCH   9  12
HETATM   12  N   UNL     1      -8.011   9.207  69.904  1.00  0.00    -0.093 N  
HETATM   13  O   UNL     1      -7.507   8.313  67.811  1.00  0.00    -0.091 OA 
HETATM   14  H   UNL     1      -7.748   9.926  70.578  1.00  0.00     0.000 HD 
HETATM   15  C   UNL     1      -7.392   9.178  68.671  1.00  0.00    -0.076 C  
BRANCH  15  16
HETATM   16  C   UNL     1      -6.529  10.410  68.383  1.00  0.00    -0.055 C  
HETATM   17  O   UNL     1      -5.374  10.222  68.036  1.00  0.00    -0.035 OA 
HETATM   18  N   UNL     1      -7.203  11.581  68.645  1.00  0.00    -0.095 N  
HETATM   19  H   UNL     1      -8.188  11.521  68.904  1.00  0.00     0.000 HD 
BRANCH  18  20
HETATM   20  C   UNL     1      -6.618  12.841  68.575  1.00  0.00    -0.086 A  
HETATM   21  C   UNL     1      -6.107  14.805  67.292  1.00  0.00     0.386 A  
HETATM   22 CL   UNL     1      -5.141  17.046  68.461  1.00  0.00    -0.118 Cl 
HETATM   23  C   UNL     1      -6.574  13.488  67.342  1.00  0.00    -0.014 A  
HETATM   24  C   UNL     1      -5.692  14.678  69.629  1.00  0.00    -0.099 A  
HETATM   25  N   UNL     1      -6.158  13.413  69.701  1.00  0.00    -0.117 NA 
HETATM   26  C   UNL     1      -5.669  15.415  68.461  1.00  0.00    -0.097 A  
ENDBRANCH  18  20
ENDBRANCH  15  16
ENDBRANCH   9  12
BRANCH  10  27
HETATM   27  N   UNL     1     -10.618   9.309  68.641  1.00  0.00    -0.295 N  
HETATM   28  O   UNL     1     -11.581  11.221  69.424  1.00  0.00    -0.261 OA 
HETATM   29  C   UNL     1     -11.146  10.586  68.463  1.00  0.00    -0.275 C  
HETATM   30  H   UNL     1     -10.331   8.761  67.830  1.00  0.00     0.000 HD 
BRANCH  29  31
HETATM   31  C   UNL     1     -11.126  11.104  67.095  1.00  0.00    -0.287 A  
HETATM   32  N   UNL     1     -10.803  10.396  66.021  1.00  0.00     0.026 NA 
HETATM   33  C   UNL     1     -10.512  10.767  63.534  1.00  0.00    -0.141 C  
HETATM   34  C   UNL     1     -12.637  12.674  62.346  1.00  0.00     2.466 C  
HETATM   35  C   UNL     1     -10.834  11.234  64.914  1.00  0.00    -0.229 A  
HETATM   36  C   UNL     1     -10.308  11.981  62.592  1.00  0.00     0.944 C  
HETATM   37  C   UNL     1     -11.208  12.535  65.161  1.00  0.00    -0.304 A  
HETATM   38  N   UNL     1     -11.291  13.083  62.745  1.00  0.00     0.850 NA 
HETATM   39  C   UNL     1     -11.275  13.622  64.128  1.00  0.00    -0.272 C  
HETATM   40  S   UNL     1     -11.520  12.763  66.809  1.00  0.00    -0.363 SA 
ENDBRANCH  29  31
ENDBRANCH  10  27
ENDBRANCH   4   6
TORSDOF 6
ENDMDL
MODEL       70
REMARK 921   NORMALIZED FREE ENERGY PREDICTED BY IDOCK:    4.48 KCAL/MOL
REMARK 922        TOTAL FREE ENERGY PREDICTED BY IDOCK:    5.14 KCAL/MOL
REMARK 923 INTER-LIGAND FREE ENERGY PREDICTED BY IDOCK:    2.73 KCAL/MOL
REMARK 924 INTRA-LIGAND FREE ENERGY PREDICTED BY IDOCK:    2.40 KCAL/MOL
REMARK 927      BINDING AFFINITY PREDICTED BY RF-SCORE:    0.00 PKD
ROOT
HETATM    1  C   UNL     1     -11.517  19.038  64.990  1.00  0.00     2.491 C  
HETATM    2  N   UNL     1     -10.770  17.787  65.006  1.00  0.00     0.287 N  
HETATM    3  C   UNL     1     -11.325  16.689  64.232  1.00  0.00     0.406 C  
HETATM    4  C   UNL     1      -9.519  17.824  65.611  1.00  0.00     0.489 C  
HETATM    5  O   UNL     1      -9.133  18.876  66.133  1.00  0.00    -0.434 OA 
ENDROOT
BRANCH   4   6
HETATM    6  C   UNL     1      -8.632  16.559  65.717  1.00  0.00     0.151 C  
HETATM    7  C   UNL     1      -7.227  16.765  66.282  1.00  0.00    -0.135 C  
HETATM    8  C   UNL     1      -7.235  17.160  67.755  1.00  0.00    -0.169 C  
HETATM    9  C   UNL     1      -7.981  16.161  68.653  1.00  0.00    -0.201 C  
HETATM   10  C   UNL     1      -9.378  15.794  68.076  1.00  0.00    -0.197 C  
HETATM   11  C   UNL     1      -9.331  15.456  66.568  1.00  0.00    -0.311 C  
BRANCH   9  12
HETATM   12  N   UNL     1      -7.159  14.988  68.920  1.00  0.00    -0.111 N  
HETATM   13  O   UNL     1      -8.786  13.778  70.071  1.00  0.00     1.678 OA 
HETATM   14  H   UNL     1      -6.181  14.985  68.631  1.00  0.00     0.000 HD 
HETATM   15  C   UNL     1      -7.678  13.878  69.558  1.00  0.00     0.439 C  
BRANCH  15  16
HETATM   16  C   UNL     1      -6.747  12.663  69.539  1.00  0.00     0.027 C  
HETATM   17  O   UNL     1      -5.576  12.853  69.251  1.00  0.00    -0.071 OA 
HETATM   18  N   UNL     1      -7.426  11.492  69.787  1.00  0.00    -0.261 N  
HETATM   19  H   UNL     1      -8.413  11.552  70.036  1.00  0.00     0.000 HD 
BRANCH  18  20
HETATM   20  C   UNL     1      -6.842  10.231  69.719  1.00  0.00    -0.120 A  
HETATM   21  C   UNL     1      -6.479   8.075  70.708  1.00  0.00    -0.037 A  
HETATM   22 CL   UNL     1      -5.350   6.050  69.313  1.00  0.00    -0.004 Cl 
HETATM   23  C   UNL     1      -6.949   9.387  70.820  1.00  0.00    -0.117 A  
HETATM   24  C   UNL     1      -5.772   8.586  68.497  1.00  0.00    -0.038 A  
HETATM   25  N   UNL     1      -6.238   9.851  68.580  1.00  0.00    -0.042 NA 
HETATM   26  C   UNL     1      -5.890   7.663  69.518  1.00  0.00    -0.023 A  
ENDBRANCH  18  20
ENDBRANCH  15  16
ENDBRANCH   9  12
BRANCH  10  27
HETATM   27  N   UNL     1     -10.048  14.750  68.866  1.00  0.00    -0.234 N  
HETATM   28  O   UNL     1     -11.951  14.880  67.619  1.00  0.00    -0.317 OA 
HETATM   29  C   UNL     1     -11.331  14.325  68.526  1.00  0.00    -0.282 C  
HETATM   30  H   UNL     1      -9.572  14.336  69.668  1.00  0.00     0.000 HD 
BRANCH  29  31
HETATM   31  C   UNL     1     -11.856  13.195  69.291  1.00  0.00    -0.323 A  
HETATM   32  N   UNL     1     -11.994  11.961  68.823  1.00  0.00    -0.320 NA 
HETATM   33  C   UNL     1     -12.893   9.732  69.619  1.00  0.00     1.210 C  
HETATM   34  C   UNL     1     -12.219   9.151  72.580  1.00  0.00     0.089 C  
HETATM   35  C   UNL     1     -12.582  11.178  69.810  1.00  0.00    -0.063 A  
HETATM   36  C   UNL     1     -13.831   9.233  70.747  1.00  0.00     0.294 C  
HETATM   37  C   UNL     1     -12.842  11.816  71.001  1.00  0.00    -0.215 A  
HETATM   38  N   UNL     1     -13.492   9.699  72.114  1.00  0.00    -0.443 NA 
HETATM   39  C   UNL     1     -13.504  11.182  72.190  1.00  0.00    -0.088 C  
HETATM   40  S   UNL     1     -12.373  13.441  70.923  1.00  0.00    -0.275 SA 
ENDBRANCH  29  31
ENDBRANCH  10  27
ENDBRANCH   4   6
TORSDOF 6
ENDMDL
MODEL       71
REMARK 921   NORMALIZED FREE ENERGY PREDICTED BY IDOCK:    5.53 KCAL/MOL
REMARK 922        TOTAL FREE ENERGY PREDICTED BY IDOCK:    6.56 KCAL/MOL
REMARK 923 INTER-LIGAND FREE ENERGY PREDICTED BY IDOCK:    4.30 KCAL/MOL
REMARK 924 INTRA-LIGAND FREE ENERGY PREDICTED BY IDOCK:    2.26 KCAL/MOL
REMARK 927      BINDING AFFINITY PREDICTED BY RF-SCORE:    0.00 PKD
ROOT
HETATM    1  C   UNL     1      -9.488  13.939  63.309  1.00  0.00     7.340 C  
HETATM    2  N   UNL     1     -10.107  12.971  64.206  1.00  0.00    -0.288 N  
HETATM    3  C   UNL     1     -11.098  13.488  65.134  1.00  0.00    -0.316 C  
HETATM    4  C   UNL     1      -9.817  11.634  63.964  1.00  0.00    -0.257 C  
HETATM    5  O   UNL     1      -9.033  11.342  63.053  1.00  0.00    -0.237 OA 
ENDROOT
BRANCH   4   6
HETATM    6  C   UNL     1     -10.390  10.506  64.858  1.00  0.00    -0.307 C  
HETATM    7  C   UNL     1      -9.401   9.428  65.302  1.00  0.00    -0.303 C  
HETATM    8  C   UNL     1      -8.340   9.959  66.259  1.00  0.00    -0.125 C  
HETATM    9  C   UNL     1      -8.926  10.630  67.511  1.00  0.00    -0.135 C  
HETATM   10  C   UNL     1     -10.041  11.653  67.152  1.00  0.00    -0.204 C  
HETATM   11  C   UNL     1     -11.061  11.092  66.135  1.00  0.00    -0.152 C  
BRANCH   9  12
HETATM   12  N   UNL     1      -9.370   9.633  68.476  1.00  0.00    -0.137 N  
HETATM   13  O   UNL     1      -8.055   7.882  67.676  1.00  0.00    -0.121 OA 
HETATM   14  H   UNL     1     -10.092   9.878  69.153  1.00  0.00     0.000 HD 
HETATM   15  C   UNL     1      -8.832   8.361  68.493  1.00  0.00    -0.136 C  
BRANCH  15  16
HETATM   16  C   UNL     1      -9.241   7.533  69.715  1.00  0.00    -0.147 C  
HETATM   17  O   UNL     1     -10.269   7.849  70.291  1.00  0.00    -0.195 OA 
HETATM   18  N   UNL     1      -8.304   6.573  70.021  1.00  0.00    -0.132 N  
HETATM   19  H   UNL     1      -7.515   6.452  69.386  1.00  0.00     0.000 HD 
BRANCH  18  20
HETATM   20  C   UNL     1      -8.374   5.758  71.146  1.00  0.00    -0.123 A  
HETATM   21  C   UNL     1      -9.347   3.869  72.263  1.00  0.00    -0.173 A  
HETATM   22 CL   UNL     1      -8.296   2.884  74.554  1.00  0.00    -0.068 Cl 
HETATM   23  C   UNL     1      -9.356   4.773  71.196  1.00  0.00    -0.206 A  
HETATM   24  C   UNL     1      -7.484   5.044  73.157  1.00  0.00    -0.088 A  
HETATM   25  N   UNL     1      -7.465   5.914  72.124  1.00  0.00    -0.094 NA 
HETATM   26  C   UNL     1      -8.383   4.001  73.256  1.00  0.00    -0.089 A  
ENDBRANCH  18  20
ENDBRANCH  15  16
ENDBRANCH   9  12
BRANCH  10  27
HETATM   27  N   UNL     1     -10.688  12.212  68.349  1.00  0.00    -0.220 N  
HETATM   28  O   UNL     1      -8.951  13.632  68.753  1.00  0.00    -0.075 OA 
HETATM   29  C   UNL     1     -10.077  13.242  69.062  1.00  0.00     0.145 C  
HETATM   30  H   UNL     1     -11.587  11.844  68.659  1.00  0.00     0.000 HD 
BRANCH  29  31
HETATM   31  C   UNL     1     -10.860  13.816  70.156  1.00  0.00     0.611 A  
HETATM   32  N   UNL     1     -10.446  14.794  70.952  1.00  0.00     0.429 NA 
HETATM   33  C   UNL     1     -11.288  16.062  72.975  1.00  0.00     0.394 C  
HETATM   34  C   UNL     1     -14.315  16.676  72.837  1.00  0.00     1.637 C  
HETATM   35  C   UNL     1     -11.427  15.029  71.908  1.00  0.00    -0.289 A  
HETATM   36  C   UNL     1     -12.370  15.855  74.065  1.00  0.00    -0.609 C  
HETATM   37  C   UNL     1     -12.562  14.260  71.800  1.00  0.00    -0.337 A  
HETATM   38  N   UNL     1     -13.733  15.548  73.564  1.00  0.00    -0.152 NA 
HETATM   39  C   UNL     1     -13.732  14.314  72.740  1.00  0.00    -0.350 C  
HETATM   40  S   UNL     1     -12.436  13.190  70.494  1.00  0.00    -0.190 SA 
ENDBRANCH  29  31
ENDBRANCH  10  27
ENDBRANCH   4   6
TORSDOF 6
ENDMDL
MODEL       72
REMARK 921   NORMALIZED FREE ENERGY PREDICTED BY IDOCK:    6.54 KCAL/MOL
REMARK 922        TOTAL FREE ENERGY PREDICTED BY IDOCK:    7.92 KCAL/MOL
REMARK 923 INTER-LIGAND FREE ENERGY PREDICTED BY IDOCK:    3.68 KCAL/MOL
REMARK 924 INTRA-LIGAND FREE ENERGY PREDICTED BY IDOCK:    4.24 KCAL/MOL
REMARK 927      BINDING AFFINITY PREDICTED BY RF-SCORE:    0.00 PKD
ROOT
HETATM    1  C   UNL     1      -8.682   2.481  63.064  1.00  0.00    -0.085 C  
HETATM    2  N   UNL     1      -7.763   3.481  63.593  1.00  0.00    -0.074 N  
HETATM    3  C   UNL     1      -6.412   3.034  63.882  1.00  0.00    -0.030 C  
HETATM    4  C   UNL     1      -8.221   4.793  63.601  1.00  0.00    -0.112 C  
HETATM    5  O   UNL     1      -9.369   5.035  63.212  1.00  0.00     0.067 OA 
ENDROOT
BRANCH   4   6
HETATM    6  C   UNL     1      -7.354   5.950  64.159  1.00  0.00    -0.064 C  
HETATM    7  C   UNL     1      -7.464   7.289  63.428  1.00  0.00    -0.101 C  
HETATM    8  C   UNL     1      -8.835   7.936  63.586  1.00  0.00     0.776 C  
HETATM    9  C   UNL     1      -9.249   8.145  65.050  1.00  0.00     0.575 C  
HETATM   10  C   UNL     1      -9.043   6.857  65.899  1.00  0.00    -0.009 C  
HETATM   11  C   UNL     1      -7.662   6.203  65.665  1.00  0.00    -0.092 C  
BRANCH   9  12
HETATM   12  N   UNL     1      -8.579   9.306  65.621  1.00  0.00    -0.144 N  
HETATM   13  O   UNL     1      -7.769   8.237  67.528  1.00  0.00    -0.096 OA 
HETATM   14  H   UNL     1      -8.652  10.207  65.149  1.00  0.00     0.000 HD 
HETATM   15  C   UNL     1      -7.847   9.210  66.787  1.00  0.00    -0.101 C  
BRANCH  15  16
HETATM   16  C   UNL     1      -7.024  10.462  67.104  1.00  0.00    -0.088 C  
HETATM   17  O   UNL     1      -5.845  10.307  67.382  1.00  0.00    -0.048 OA 
HETATM   18  N   UNL     1      -7.797  11.600  67.097  1.00  0.00    -0.156 N  
HETATM   19  H   UNL     1      -8.772  11.517  66.808  1.00  0.00     0.000 HD 
BRANCH  18  20
HETATM   20  C   UNL     1      -7.325  12.857  67.461  1.00  0.00    -0.154 A  
HETATM   21  C   UNL     1      -5.463  14.320  67.856  1.00  0.00    -0.084 A  
HETATM   22 CL   UNL     1      -5.804  16.983  68.193  1.00  0.00    -0.121 Cl 
HETATM   23  C   UNL     1      -5.952  13.032  67.620  1.00  0.00    -0.145 A  
HETATM   24  C   UNL     1      -7.707  15.104  67.848  1.00  0.00    -0.135 A  
HETATM   25  N   UNL     1      -8.197  13.869  67.600  1.00  0.00    -0.163 NA 
HETATM   26  C   UNL     1      -6.359  15.378  67.959  1.00  0.00    -0.139 A  
ENDBRANCH  18  20
ENDBRANCH  15  16
ENDBRANCH   9  12
BRANCH  10  27
HETATM   27  N   UNL     1      -9.325   7.082  67.325  1.00  0.00    -0.130 N  
HETATM   28  O   UNL     1     -11.580   7.023  66.995  1.00  0.00     0.174 OA 
HETATM   29  C   UNL     1     -10.640   7.101  67.787  1.00  0.00    -0.225 C  
HETATM   30  H   UNL     1      -8.556   7.224  67.979  1.00  0.00     0.000 HD 
BRANCH  29  31
HETATM   31  C   UNL     1     -10.809   7.200  69.236  1.00  0.00    -0.183 A  
HETATM   32  N   UNL     1     -10.436   6.272  70.108  1.00  0.00    -0.206 NA 
HETATM   33  C   UNL     1     -10.558   5.872  72.605  1.00  0.00    -0.255 C  
HETATM   34  C   UNL     1     -10.079   8.440  74.259  1.00  0.00     3.503 C  
HETATM   35  C   UNL     1     -10.815   6.684  71.379  1.00  0.00    -0.242 A  
HETATM   36  C   UNL     1     -11.381   6.426  73.796  1.00  0.00     0.755 C  
HETATM   37  C   UNL     1     -11.428   7.913  71.451  1.00  0.00    -0.260 A  
HETATM   38  N   UNL     1     -11.399   7.904  73.929  1.00  0.00     1.153 NA 
HETATM   39  C   UNL     1     -11.954   8.542  72.709  1.00  0.00    -0.089 C  
HETATM   40  S   UNL     1     -11.571   8.599  69.909  1.00  0.00     0.408 SA 
ENDBRANCH  29  31
ENDBRANCH  10  27
ENDBRANCH   4   6
TORSDOF 6
ENDMDL
MODEL       73
REMARK 921   NORMALIZED FREE ENERGY PREDICTED BY IDOCK:    7.14 KCAL/MOL
REMARK 922        TOTAL FREE ENERGY PREDICTED BY IDOCK:    8.73 KCAL/MOL
REMARK 923 INTER-LIGAND FREE ENERGY PREDICTED BY IDOCK:    5.18 KCAL/MOL
REMARK 924 INTRA-LIGAND FREE ENERGY PREDICTED BY IDOCK:    3.55 KCAL/MOL
REMARK 927      BINDING AFFINITY PREDICTED BY RF-SCORE:    0.00 PKD
ROOT
HETATM    1  C   UNL     1      -5.257   7.057  70.755  1.00  0.00    -0.023 C  
HETATM    2  N   UNL     1      -5.760   7.876  69.659  1.00  0.00    -0.023 N  
HETATM    3  C   UNL     1      -5.342   9.267  69.644  1.00  0.00    -0.034 C  
HETATM    4  C   UNL     1      -6.439   7.204  68.650  1.00  0.00    -0.036 C  
HETATM    5  O   UNL     1      -6.619   5.985  68.752  1.00  0.00    -0.050 OA 
ENDROOT
BRANCH   4   6
HETATM    6  C   UNL     1      -7.045   7.958  67.441  1.00  0.00    -0.083 C  
HETATM    7  C   UNL     1      -8.549   7.790  67.225  1.00  0.00    -0.128 C  
HETATM    8  C   UNL     1      -9.379   8.432  68.331  1.00  0.00    -0.137 C  
HETATM    9  C   UNL     1      -9.079   9.925  68.534  1.00  0.00    -0.125 C  
HETATM   10  C   UNL     1      -7.551  10.201  68.632  1.00  0.00    -0.086 C  
HETATM   11  C   UNL     1      -6.744   9.484  67.526  1.00  0.00    -0.067 C  
BRANCH   9  12
HETATM   12  N   UNL     1      -9.730  10.731  67.509  1.00  0.00    -0.165 N  
HETATM   13  O   UNL     1     -11.879   9.887  67.830  1.00  0.00     0.412 OA 
HETATM   14  H   UNL     1      -9.167  11.354  66.931  1.00  0.00     0.000 HD 
HETATM   15  C   UNL     1     -11.094  10.668  67.306  1.00  0.00    -0.243 C  
BRANCH  15  16
HETATM   16  C   UNL     1     -11.628  11.749  66.362  1.00  0.00    -0.162 C  
HETATM   17  O   UNL     1     -12.438  11.408  65.515  1.00  0.00     0.739 OA 
HETATM   18  N   UNL     1     -11.029  12.967  66.585  1.00  0.00    -0.275 N  
HETATM   19  H   UNL     1     -10.387  13.050  67.373  1.00  0.00     0.000 HD 
BRANCH  18  20
HETATM   20  C   UNL     1     -11.248  14.091  65.795  1.00  0.00    -0.303 A  
HETATM   21  C   UNL     1     -12.659  15.289  64.267  1.00  0.00     0.165 A  
HETATM   22 CL   UNL     1     -12.170  17.869  63.614  1.00  0.00     8.718 Cl 
HETATM   23  C   UNL     1     -12.363  14.112  64.961  1.00  0.00    -0.452 A  
HETATM   24  C   UNL     1     -10.702  16.258  65.203  1.00  0.00    -0.331 A  
HETATM   25  N   UNL     1     -10.410  15.137  65.897  1.00  0.00    -0.305 NA 
HETATM   26  C   UNL     1     -11.819  16.387  64.401  1.00  0.00     0.339 A  
ENDBRANCH  18  20
ENDBRANCH  15  16
ENDBRANCH   9  12
BRANCH  10  27
HETATM   27  N   UNL     1      -7.250  11.638  68.708  1.00  0.00    -0.110 N  
HETATM   28  O   UNL     1      -7.743  11.966  66.508  1.00  0.00    -0.043 OA 
HETATM   29  C   UNL     1      -7.425  12.454  67.592  1.00  0.00    -0.138 C  
HETATM   30  H   UNL     1      -6.912  12.040  69.583  1.00  0.00     0.000 HD 
BRANCH  29  31
HETATM   31  C   UNL     1      -7.224  13.887  67.807  1.00  0.00    -0.164 A  
HETATM   32  N   UNL     1      -6.116  14.551  67.507  1.00  0.00    -0.346 NA 
HETATM   33  C   UNL     1      -5.206  16.903  67.733  1.00  0.00    -0.129 C  
HETATM   34  C   UNL     1      -7.340  19.074  67.193  1.00  0.00    -0.216 C  
HETATM   35  C   UNL     1      -6.270  15.871  67.910  1.00  0.00    -0.136 A  
HETATM   36  C   UNL     1      -5.539  18.164  68.570  1.00  0.00    -0.171 C  
HETATM   37  C   UNL     1      -7.487  16.187  68.468  1.00  0.00    -0.167 A  
HETATM   38  N   UNL     1      -6.955  18.606  68.524  1.00  0.00    -0.256 NA 
HETATM   39  C   UNL     1      -7.864  17.536  69.007  1.00  0.00    -0.118 C  
HETATM   40  S   UNL     1      -8.488  14.822  68.526  1.00  0.00    -0.164 SA 
ENDBRANCH  29  31
ENDBRANCH  10  27
ENDBRANCH   4   6
TORSDOF 6
ENDMDL
MODEL       74
REMARK 921   NORMALIZED FREE ENERGY PREDICTED BY IDOCK:    7.15 KCAL/MOL
REMARK 922        TOTAL FREE ENERGY PREDICTED BY IDOCK:    8.74 KCAL/MOL
REMARK 923 INTER-LIGAND FREE ENERGY PREDICTED BY IDOCK:    5.85 KCAL/MOL
REMARK 924 INTRA-LIGAND FREE ENERGY PREDICTED BY IDOCK:    2.88 KCAL/MOL
REMARK 927      BINDING AFFINITY PREDICTED BY RF-SCORE:    0.00 PKD
ROOT
HETATM    1  C   UNL     1      -5.125   5.966  73.392  1.00  0.00    -0.023 C  
HETATM    2  N   UNL     1      -6.014   6.975  72.830  1.00  0.00    -0.042 N  
HETATM    3  C   UNL     1      -5.429   7.892  71.867  1.00  0.00    -0.035 C  
HETATM    4  C   UNL     1      -7.364   6.846  73.136  1.00  0.00    -0.074 C  
HETATM    5  O   UNL     1      -7.727   5.934  73.888  1.00  0.00    -0.096 OA 
ENDROOT
BRANCH   4   6
HETATM    6  C   UNL     1      -8.412   7.864  72.623  1.00  0.00    -0.203 C  
HETATM    7  C   UNL     1      -7.931   9.306  72.463  1.00  0.00     1.081 C  
HETATM    8  C   UNL     1      -6.899   9.464  71.352  1.00  0.00     0.065 C  
HETATM    9  C   UNL     1      -7.387   8.958  69.986  1.00  0.00    -0.056 C  
HETATM   10  C   UNL     1      -8.016   7.539  70.085  1.00  0.00    -0.111 C  
HETATM   11  C   UNL     1      -9.012   7.408  71.259  1.00  0.00    -0.140 C  
BRANCH   9  12
HETATM   12  N   UNL     1      -8.280   9.925  69.362  1.00  0.00    -0.132 N  
HETATM   13  O   UNL     1      -7.200   9.994  67.297  1.00  0.00    -0.085 OA 
HETATM   14  H   UNL     1      -9.036  10.334  69.910  1.00  0.00     0.000 HD 
HETATM   15  C   UNL     1      -8.124  10.298  68.042  1.00  0.00    -0.106 C  
BRANCH  15  16
HETATM   16  C   UNL     1      -9.286  11.132  67.494  1.00  0.00    -0.168 C  
HETATM   17  O   UNL     1     -10.249  11.305  68.224  1.00  0.00    -0.173 OA 
HETATM   18  N   UNL     1      -9.079  11.503  66.186  1.00  0.00    -0.210 N  
HETATM   19  H   UNL     1      -8.181  11.278  65.758  1.00  0.00     0.000 HD 
BRANCH  18  20
HETATM   20  C   UNL     1     -10.025  12.169  65.413  1.00  0.00    -0.246 A  
HETATM   21  C   UNL     1     -10.586  14.016  63.986  1.00  0.00     0.568 A  
HETATM   22 CL   UNL     1     -12.903  14.072  62.589  1.00  0.00     1.833 Cl 
HETATM   23  C   UNL     1      -9.689  13.406  64.868  1.00  0.00     0.107 A  
HETATM   24  C   UNL     1     -12.072  12.195  64.339  1.00  0.00    -0.357 A  
HETATM   25  N   UNL     1     -11.210  11.581  65.178  1.00  0.00    -0.201 NA 
HETATM   26  C   UNL     1     -11.796  13.391  63.707  1.00  0.00    -0.431 A  
ENDBRANCH  18  20
ENDBRANCH  15  16
ENDBRANCH   9  12
BRANCH  10  27
HETATM   27  N   UNL     1      -8.591   7.096  68.806  1.00  0.00    -0.125 N  
HETATM   28  O   UNL     1      -6.697   5.971  68.222  1.00  0.00    -0.056 OA 
HETATM   29  C   UNL     1      -7.862   6.267  67.956  1.00  0.00    -0.104 C  
HETATM   30  H   UNL     1      -9.529   7.398  68.539  1.00  0.00     0.000 HD 
BRANCH  29  31
HETATM   31  C   UNL     1      -8.571   5.778  66.773  1.00  0.00    -0.112 A  
HETATM   32  N   UNL     1      -9.653   5.012  66.801  1.00  0.00    -0.142 NA 
HETATM   33  C   UNL     1     -11.175   3.838  65.154  1.00  0.00     1.098 C  
HETATM   34  C   UNL     1     -11.724   5.516  62.615  1.00  0.00     4.240 C  
HETATM   35  C   UNL     1     -10.004   4.697  65.494  1.00  0.00    -0.183 A  
HETATM   36  C   UNL     1     -11.105   3.401  63.668  1.00  0.00     0.079 C  
HETATM   37  C   UNL     1      -9.212   5.249  64.514  1.00  0.00     0.223 A  
HETATM   38  N   UNL     1     -10.714   4.462  62.707  1.00  0.00     0.069 NA 
HETATM   39  C   UNL     1      -9.379   5.017  63.040  1.00  0.00     0.223 C  
HETATM   40  S   UNL     1      -7.975   6.179  65.200  1.00  0.00    -0.122 SA 
ENDBRANCH  29  31
ENDBRANCH  10  27
ENDBRANCH   4   6
TORSDOF 6
ENDMDL
MODEL       75
REMARK 921   NORMALIZED FREE ENERGY PREDICTED BY IDOCK:    7.41 KCAL/MOL
REMARK 922        TOTAL FREE ENERGY PREDICTED BY IDOCK:    9.09 KCAL/MOL
REMARK 923 INTER-LIGAND FREE ENERGY PREDICTED BY IDOCK:   -0.94 KCAL/MOL
REMARK 924 INTRA-LIGAND FREE ENERGY PREDICTED BY IDOCK:   10.03 KCAL/MOL
REMARK 927      BINDING AFFINITY PREDICTED BY RF-SCORE:    0.00 PKD
ROOT
HETATM    1  C   UNL     1      -6.747   6.172  65.857  1.00  0.00    -0.048 C  
HETATM    2  N   UNL     1      -7.028   7.602  65.817  1.00  0.00    -0.059 N  
HETATM    3  C   UNL     1      -8.138   8.069  66.629  1.00  0.00    -0.103 C  
HETATM    4  C   UNL     1      -6.100   8.393  65.150  1.00  0.00    -0.049 C  
HETATM    5  O   UNL     1      -5.133   7.854  64.598  1.00  0.00    -0.028 OA 
ENDROOT
BRANCH   4   6
HETATM    6  C   UNL     1      -6.289   9.924  65.013  1.00  0.00    -0.104 C  
HETATM    7  C   UNL     1      -6.875  10.416  63.689  1.00  0.00    -0.005 C  
HETATM    8  C   UNL     1      -8.325   9.989  63.491  1.00  0.00    -0.171 C  
HETATM    9  C   UNL     1      -9.256  10.432  64.630  1.00  0.00    -0.240 C  
HETATM   10  C   UNL     1      -8.666  10.084  66.028  1.00  0.00    -0.138 C  
HETATM   11  C   UNL     1      -7.179  10.482  66.164  1.00  0.00    -0.136 C  
BRANCH   9  12
HETATM   12  N   UNL     1      -9.600  11.842  64.503  1.00  0.00    -0.428 N  
HETATM   13  O   UNL     1      -9.798  12.276  66.785  1.00  0.00    -0.202 OA 
HETATM   14  H   UNL     1      -9.713  12.247  63.575  1.00  0.00     0.000 HD 
HETATM   15  C   UNL     1      -9.777  12.640  65.616  1.00  0.00    -0.139 C  
BRANCH  15  16
HETATM   16  C   UNL     1      -9.897  14.132  65.292  1.00  0.00    -0.164 C  
HETATM   17  O   UNL     1     -10.014  14.448  64.119  1.00  0.00     0.467 OA 
HETATM   18  N   UNL     1      -9.773  14.913  66.418  1.00  0.00    -0.269 N  
HETATM   19  H   UNL     1      -9.708  14.446  67.323  1.00  0.00     0.000 HD 
BRANCH  18  20
HETATM   20  C   UNL     1      -9.733  16.303  66.393  1.00  0.00    -0.288 A  
HETATM   21  C   UNL     1     -10.806  18.384  65.864  1.00  0.00    -0.047 A  
HETATM   22 CL   UNL     1      -9.802  20.750  66.711  1.00  0.00    -0.355 Cl 
HETATM   23  C   UNL     1     -10.776  16.989  65.777  1.00  0.00    -0.146 A  
HETATM   24  C   UNL     1      -8.754  18.289  67.059  1.00  0.00    -0.263 A  
HETATM   25  N   UNL     1      -8.718  16.940  67.003  1.00  0.00    -0.201 NA 
HETATM   26  C   UNL     1      -9.781  19.046  66.530  1.00  0.00    -0.357 A  
ENDBRANCH  18  20
ENDBRANCH  15  16
ENDBRANCH   9  12
BRANCH  10  27
HETATM   27  N   UNL     1      -9.493  10.608  67.125  1.00  0.00    -0.155 N  
HETATM   28  O   UNL     1     -11.261   9.283  66.567  1.00  0.00     0.504 OA 
HETATM   29  C   UNL     1     -10.773  10.105  67.343  1.00  0.00    -0.277 C  
HETATM   30  H   UNL     1      -9.127  11.344  67.729  1.00  0.00     0.000 HD 
BRANCH  29  31
HETATM   31  C   UNL     1     -11.462  10.597  68.536  1.00  0.00    -0.265 A  
HETATM   32  N   UNL     1     -11.589   9.922  69.671  1.00  0.00    -0.108 NA 
HETATM   33  C   UNL     1     -12.705  10.215  71.925  1.00  0.00    -0.493 C  
HETATM   34  C   UNL     1     -12.510  13.109  72.996  1.00  0.00     1.802 C  
HETATM   35  C   UNL     1     -12.355  10.678  70.550  1.00  0.00    -0.359 A  
HETATM   36  C   UNL     1     -13.824  11.106  72.521  1.00  0.00     0.863 C  
HETATM   37  C   UNL     1     -12.759  11.907  70.084  1.00  0.00     0.177 A  
HETATM   38  N   UNL     1     -13.671  12.564  72.293  1.00  0.00    -0.408 NA 
HETATM   39  C   UNL     1     -13.622  12.874  70.842  1.00  0.00     0.860 C  
HETATM   40  S   UNL     1     -12.205  12.158  68.504  1.00  0.00     0.395 SA 
ENDBRANCH  29  31
ENDBRANCH  10  27
ENDBRANCH   4   6
TORSDOF 6
ENDMDL
MODEL       76
REMARK 921   NORMALIZED FREE ENERGY PREDICTED BY IDOCK:   11.13 KCAL/MOL
REMARK 922        TOTAL FREE ENERGY PREDICTED BY IDOCK:   14.11 KCAL/MOL
REMARK 923 INTER-LIGAND FREE ENERGY PREDICTED BY IDOCK:   12.57 KCAL/MOL
REMARK 924 INTRA-LIGAND FREE ENERGY PREDICTED BY IDOCK:    1.55 KCAL/MOL
REMARK 927      BINDING AFFINITY PREDICTED BY RF-SCORE:    0.00 PKD
ROOT
HETATM    1  C   UNL     1      -8.684   5.010  72.869  1.00  0.00    -0.118 C  
HETATM    2  N   UNL     1      -7.862   5.948  72.115  1.00  0.00    -0.102 N  
HETATM    3  C   UNL     1      -6.830   5.372  71.270  1.00  0.00    -0.053 C  
HETATM    4  C   UNL     1      -8.262   7.278  72.144  1.00  0.00    -0.101 C  
HETATM    5  O   UNL     1      -9.241   7.599  72.827  1.00  0.00    -0.145 OA 
ENDROOT
BRANCH   4   6
HETATM    6  C   UNL     1      -7.463   8.381  71.406  1.00  0.00    -0.102 C  
HETATM    7  C   UNL     1      -7.206   8.146  69.917  1.00  0.00    -0.060 C  
HETATM    8  C   UNL     1      -8.481   8.193  69.084  1.00  0.00    -0.135 C  
HETATM    9  C   UNL     1      -9.268   9.503  69.242  1.00  0.00    -0.169 C  
HETATM   10  C   UNL     1      -9.460   9.886  70.738  1.00  0.00     0.309 C  
HETATM   11  C   UNL     1      -8.155   9.768  71.556  1.00  0.00     1.384 C  
BRANCH   9  12
HETATM   12  N   UNL     1      -8.659  10.574  68.463  1.00  0.00    -0.128 N  
HETATM   13  O   UNL     1     -10.434  12.075  68.638  1.00  0.00    -0.223 OA 
HETATM   14  H   UNL     1      -7.746  10.423  68.034  1.00  0.00     0.000 HD 
HETATM   15  C   UNL     1      -9.294  11.788  68.294  1.00  0.00    -0.193 C  
BRANCH  15  16
HETATM   16  C   UNL     1      -8.409  12.864  67.657  1.00  0.00    -0.176 C  
HETATM   17  O   UNL     1      -7.377  12.498  67.116  1.00  0.00    -0.137 OA 
HETATM   18  N   UNL     1      -8.906  14.129  67.869  1.00  0.00    -0.173 N  
HETATM   19  H   UNL     1      -9.813  14.219  68.328  1.00  0.00     0.000 HD 
BRANCH  18  20
HETATM   20  C   UNL     1      -8.242  15.292  67.494  1.00  0.00    -0.173 A  
HETATM   21  C   UNL     1      -6.180  16.412  66.986  1.00  0.00    -0.155 A  
HETATM   22 CL   UNL     1      -6.146  18.877  65.870  1.00  0.00    -0.207 Cl 
HETATM   23  C   UNL     1      -6.849  15.291  67.487  1.00  0.00    -0.218 A  
HETATM   24  C   UNL     1      -8.295  17.441  66.643  1.00  0.00    -0.263 A  
HETATM   25  N   UNL     1      -8.959  16.360  67.105  1.00  0.00    -0.197 NA 
HETATM   26  C   UNL     1      -6.918  17.503  66.544  1.00  0.00    -0.252 A  
ENDBRANCH  18  20
ENDBRANCH  15  16
ENDBRANCH   9  12
BRANCH  10  27
HETATM   27  N   UNL     1     -10.109  11.197  70.896  1.00  0.00     2.440 N  
HETATM   28  O   UNL     1     -12.036  10.267  71.680  1.00  0.00    -0.332 OA 
HETATM   29  C   UNL     1     -11.394  11.286  71.425  1.00  0.00     1.911 C  
HETATM   30  H   UNL     1      -9.615  12.045  70.617  1.00  0.00     0.000 HD 
BRANCH  29  31
HETATM   31  C   UNL     1     -11.898  12.639  71.664  1.00  0.00     1.698 A  
HETATM   32  N   UNL     1     -12.675  12.990  72.679  1.00  0.00     0.074 NA 
HETATM   33  C   UNL     1     -13.875  15.060  73.508  1.00  0.00     1.103 C  
HETATM   34  C   UNL     1     -12.217  17.643  73.134  1.00  0.00     2.188 C  
HETATM   35  C   UNL     1     -13.002  14.333  72.541  1.00  0.00    -0.419 A  
HETATM   36  C   UNL     1     -14.320  16.420  72.912  1.00  0.00     0.895 C  
HETATM   37  C   UNL     1     -12.446  14.974  71.457  1.00  0.00    -0.333 A  
HETATM   38  N   UNL     1     -13.259  17.189  72.214  1.00  0.00     3.731 NA 
HETATM   39  C   UNL     1     -12.688  16.409  71.088  1.00  0.00     1.187 C  
HETATM   40  S   UNL     1     -11.498  13.902  70.552  1.00  0.00     0.210 SA 
ENDBRANCH  29  31
ENDBRANCH  10  27
ENDBRANCH   4   6
TORSDOF 6
ENDMDL
MODEL       77
REMARK 921   NORMALIZED FREE ENERGY PREDICTED BY IDOCK:   11.13 KCAL/MOL
REMARK 922        TOTAL FREE ENERGY PREDICTED BY IDOCK:   14.12 KCAL/MOL
REMARK 923 INTER-LIGAND FREE ENERGY PREDICTED BY IDOCK:   -1.71 KCAL/MOL
REMARK 924 INTRA-LIGAND FREE ENERGY PREDICTED BY IDOCK:   15.83 KCAL/MOL
REMARK 927      BINDING AFFINITY PREDICTED BY RF-SCORE:    0.00 PKD
ROOT
HETATM    1  C   UNL     1      -7.528   3.234  74.294  1.00  0.00    -0.053 C  
HETATM    2  N   UNL     1      -7.616   3.819  72.962  1.00  0.00    -0.068 N  
HETATM    3  C   UNL     1      -8.562   3.207  72.045  1.00  0.00    -0.077 C  
HETATM    4  C   UNL     1      -6.918   5.004  72.763  1.00  0.00    -0.081 C  
HETATM    5  O   UNL     1      -6.239   5.467  73.687  1.00  0.00    -0.054 OA 
ENDROOT
BRANCH   4   6
HETATM    6  C   UNL     1      -6.907   5.717  71.388  1.00  0.00    -0.063 C  
HETATM    7  C   UNL     1      -7.548   4.955  70.228  1.00  0.00    -0.062 C  
HETATM    8  C   UNL     1      -9.055   4.795  70.388  1.00  0.00    -0.170 C  
HETATM    9  C   UNL     1      -9.798   6.127  70.565  1.00  0.00    -0.178 C  
HETATM   10  C   UNL     1      -9.127   7.025  71.644  1.00  0.00    -0.138 C  
HETATM   11  C   UNL     1      -7.593   7.113  71.477  1.00  0.00    -0.088 C  
BRANCH   9  12
HETATM   12  N   UNL     1      -9.956   6.809  69.287  1.00  0.00    -0.158 N  
HETATM   13  O   UNL     1      -8.973   8.822  69.935  1.00  0.00    -0.143 OA 
HETATM   14  H   UNL     1     -10.440   6.337  68.525  1.00  0.00     0.000 HD 
HETATM   15  C   UNL     1      -9.463   8.083  69.089  1.00  0.00    -0.155 C  
BRANCH  15  16
HETATM   16  C   UNL     1      -9.507   8.543  67.628  1.00  0.00    -0.145 C  
HETATM   17  O   UNL     1      -8.877   7.890  66.812  1.00  0.00    -0.127 OA 
HETATM   18  N   UNL     1     -10.222   9.709  67.479  1.00  0.00    -0.205 N  
HETATM   19  H   UNL     1     -10.703  10.086  68.295  1.00  0.00     0.000 HD 
BRANCH  18  20
HETATM   20  C   UNL     1     -10.326  10.401  66.277  1.00  0.00    -0.203 A  
HETATM   21  C   UNL     1     -10.104  10.420  63.887  1.00  0.00    -0.172 A  
HETATM   22 CL   UNL     1     -11.072  12.457  62.392  1.00  0.00     2.081 Cl 
HETATM   23  C   UNL     1      -9.881   9.783  65.111  1.00  0.00    -0.294 A  
HETATM   24  C   UNL     1     -11.081  12.229  65.079  1.00  0.00    -0.316 A  
HETATM   25  N   UNL     1     -10.893  11.619  66.270  1.00  0.00    -0.277 NA 
HETATM   26  C   UNL     1     -10.728  11.662  63.871  1.00  0.00    -0.398 A  
ENDBRANCH  18  20
ENDBRANCH  15  16
ENDBRANCH   9  12
BRANCH  10  27
HETATM   27  N   UNL     1      -9.761   8.349  71.737  1.00  0.00    -0.211 N  
HETATM   28  O   UNL     1     -11.348   7.815  70.191  1.00  0.00    -0.225 OA 
HETATM   29  C   UNL     1     -10.907   8.634  70.997  1.00  0.00    -0.247 C  
HETATM   30  H   UNL     1      -9.359   9.063  72.345  1.00  0.00     0.000 HD 
BRANCH  29  31
HETATM   31  C   UNL     1     -11.534   9.929  71.259  1.00  0.00    -0.361 A  
HETATM   32  N   UNL     1     -12.537  10.129  72.104  1.00  0.00    -0.256 NA 
HETATM   33  C   UNL     1     -14.017  12.041  72.856  1.00  0.00     1.661 C  
HETATM   34  C   UNL     1     -12.482  14.710  73.142  1.00  0.00    -0.318 C  
HETATM   35  C   UNL     1     -12.908  11.466  72.039  1.00  0.00    -0.159 A  
HETATM   36  C   UNL     1     -14.403  13.444  72.322  1.00  0.00    -0.182 C  
HETATM   37  C   UNL     1     -12.169  12.250  71.183  1.00  0.00     0.004 A  
HETATM   38  N   UNL     1     -13.266  14.329  71.968  1.00  0.00    -0.357 NA 
HETATM   39  C   UNL     1     -12.413  13.709  70.924  1.00  0.00    -0.371 C  
HETATM   40  S   UNL     1     -10.980  11.328  70.407  1.00  0.00     0.856 SA 
ENDBRANCH  29  31
ENDBRANCH  10  27
ENDBRANCH   4   6
TORSDOF 6
ENDMDL
MODEL       78
REMARK 921   NORMALIZED FREE ENERGY PREDICTED BY IDOCK:   11.29 KCAL/MOL
REMARK 922        TOTAL FREE ENERGY PREDICTED BY IDOCK:   14.33 KCAL/MOL
REMARK 923 INTER-LIGAND FREE ENERGY PREDICTED BY IDOCK:   13.21 KCAL/MOL
REMARK 924 INTRA-LIGAND FREE ENERGY PREDICTED BY IDOCK:    1.12 KCAL/MOL
REMARK 927      BINDING AFFINITY PREDICTED BY RF-SCORE:    0.00 PKD
ROOT
HETATM    1  C   UNL     1     -14.234   6.510  72.206  1.00  0.00     0.285 C  
HETATM    2  N   UNL     1     -12.897   6.873  71.755  1.00  0.00    -0.352 N  
HETATM    3  C   UNL     1     -11.907   5.810  71.736  1.00  0.00     0.117 C  
HETATM    4  C   UNL     1     -12.752   8.149  71.225  1.00  0.00    -0.206 C  
HETATM    5  O   UNL     1     -13.727   8.909  71.205  1.00  0.00    -0.302 OA 
ENDROOT
BRANCH   4   6
HETATM    6  C   UNL     1     -11.379   8.670  70.731  1.00  0.00    -0.299 C  
HETATM    7  C   UNL     1     -11.003   8.322  69.291  1.00  0.00     0.031 C  
HETATM    8  C   UNL     1     -11.892   9.017  68.265  1.00  0.00     2.156 C  
HETATM    9  C   UNL     1     -11.912  10.546  68.408  1.00  0.00     0.327 C  
HETATM   10  C   UNL     1     -12.159  10.987  69.879  1.00  0.00    -0.361 C  
HETATM   11  C   UNL     1     -11.279  10.217  70.889  1.00  0.00    -0.383 C  
BRANCH   9  12
HETATM   12  N   UNL     1     -10.708  11.138  67.840  1.00  0.00    -0.202 N  
HETATM   13  O   UNL     1     -11.756  12.234  66.070  1.00  0.00    -0.399 OA 
HETATM   14  H   UNL     1      -9.801  10.924  68.256  1.00  0.00     0.000 HD 
HETATM   15  C   UNL     1     -10.769  11.982  66.750  1.00  0.00    -0.243 C  
BRANCH  15  16
HETATM   16  C   UNL     1      -9.447  12.691  66.443  1.00  0.00    -0.231 C  
HETATM   17  O   UNL     1      -8.489  11.995  66.146  1.00  0.00    -0.006 OA 
HETATM   18  N   UNL     1      -9.538  14.051  66.631  1.00  0.00    -0.280 N  
HETATM   19  H   UNL     1     -10.452  14.445  66.856  1.00  0.00     0.000 HD 
BRANCH  18  20
HETATM   20  C   UNL     1      -8.455  14.919  66.530  1.00  0.00    -0.005 A  
HETATM   21  C   UNL     1      -7.541  16.983  65.714  1.00  0.00     0.367 A  
HETATM   22 CL   UNL     1      -5.145  17.905  66.569  1.00  0.00    -0.171 Cl 
HETATM   23  C   UNL     1      -8.575  16.042  65.716  1.00  0.00     0.287 A  
HETATM   24  C   UNL     1      -6.353  15.585  67.225  1.00  0.00     0.028 A  
HETATM   25  N   UNL     1      -7.351  14.674  67.255  1.00  0.00    -0.162 NA 
HETATM   26  C   UNL     1      -6.414  16.755  66.495  1.00  0.00    -0.058 A  
ENDBRANCH  18  20
ENDBRANCH  15  16
ENDBRANCH   9  12
BRANCH  10  27
HETATM   27  N   UNL     1     -12.063  12.445  70.045  1.00  0.00    -0.296 N  
HETATM   28  O   UNL     1      -9.795  12.427  69.818  1.00  0.00     1.249 OA 
HETATM   29  C   UNL     1     -10.828  13.084  69.950  1.00  0.00     0.644 C  
HETATM   30  H   UNL     1     -12.904  12.992  70.231  1.00  0.00     0.000 HD 
BRANCH  29  31
HETATM   31  C   UNL     1     -10.856  14.546  69.999  1.00  0.00     0.007 A  
HETATM   32  N   UNL     1     -10.678  15.271  71.095  1.00  0.00    -0.101 NA 
HETATM   33  C   UNL     1     -10.713  17.712  71.768  1.00  0.00     2.863 C  
HETATM   34  C   UNL     1      -9.450  19.565  69.639  1.00  0.00     0.225 C  
HETATM   35  C   UNL     1     -10.837  16.612  70.767  1.00  0.00     0.370 A  
HETATM   36  C   UNL     1     -11.268  19.035  71.181  1.00  0.00     5.203 C  
HETATM   37  C   UNL     1     -11.097  16.875  69.442  1.00  0.00     0.032 A  
HETATM   38  N   UNL     1     -10.885  19.322  69.776  1.00  0.00     1.460 NA 
HETATM   39  C   UNL     1     -11.342  18.241  68.868  1.00  0.00     1.947 C  
HETATM   40  S   UNL     1     -11.169  15.438  68.551  1.00  0.00    -0.335 SA 
ENDBRANCH  29  31
ENDBRANCH  10  27
ENDBRANCH   4   6
TORSDOF 6
ENDMDL
MODEL       79
REMARK 921   NORMALIZED FREE ENERGY PREDICTED BY IDOCK:   11.94 KCAL/MOL
REMARK 922        TOTAL FREE ENERGY PREDICTED BY IDOCK:   15.21 KCAL/MOL
REMARK 923 INTER-LIGAND FREE ENERGY PREDICTED BY IDOCK:   13.48 KCAL/MOL
REMARK 924 INTRA-LIGAND FREE ENERGY PREDICTED BY IDOCK:    1.73 KCAL/MOL
REMARK 927      BINDING AFFINITY PREDICTED BY RF-SCORE:    0.00 PKD
ROOT
HETATM    1  C   UNL     1      -8.906  18.376  65.992  1.00  0.00     0.040 C  
HETATM    2  N   UNL     1      -8.499  17.037  65.584  1.00  0.00     0.291 N  
HETATM    3  C   UNL     1      -7.957  16.904  64.243  1.00  0.00    10.175 C  
HETATM    4  C   UNL     1      -8.507  16.063  66.575  1.00  0.00    -0.313 C  
HETATM    5  O   UNL     1      -8.892  16.361  67.712  1.00  0.00    -0.187 OA 
ENDROOT
BRANCH   4   6
HETATM    6  C   UNL     1      -8.119  14.595  66.271  1.00  0.00     0.998 C  
HETATM    7  C   UNL     1      -6.678  14.197  66.590  1.00  0.00     2.223 C  
HETATM    8  C   UNL     1      -6.381  14.204  68.085  1.00  0.00    -0.132 C  
HETATM    9  C   UNL     1      -7.326  13.310  68.902  1.00  0.00    -0.023 C  
HETATM   10  C   UNL     1      -8.818  13.561  68.539  1.00  0.00    -0.086 C  
HETATM   11  C   UNL     1      -9.063  13.602  67.014  1.00  0.00    -0.254 C  
BRANCH   9  12
HETATM   12  N   UNL     1      -6.948  11.908  68.783  1.00  0.00    -0.098 N  
HETATM   13  O   UNL     1      -6.379  11.593  71.021  1.00  0.00    -0.062 OA 
HETATM   14  H   UNL     1      -6.965  11.461  67.866  1.00  0.00     0.000 HD 
HETATM   15  C   UNL     1      -6.567  11.171  69.886  1.00  0.00    -0.129 C  
BRANCH  15  16
HETATM   16  C   UNL     1      -6.439   9.670  69.613  1.00  0.00    -0.046 C  
HETATM   17  O   UNL     1      -5.994   9.330  68.528  1.00  0.00    -0.044 OA 
HETATM   18  N   UNL     1      -6.935   8.915  70.650  1.00  0.00    -0.055 N  
HETATM   19  H   UNL     1      -7.242   9.399  71.494  1.00  0.00     0.000 HD 
BRANCH  18  20
HETATM   20  C   UNL     1      -7.043   7.528  70.613  1.00  0.00    -0.059 A  
HETATM   21  C   UNL     1      -7.180   5.509  69.323  1.00  0.00    -0.065 A  
HETATM   22 CL   UNL     1      -6.942   3.073  70.478  1.00  0.00    -0.033 Cl 
HETATM   23  C   UNL     1      -7.204   6.905  69.378  1.00  0.00    -0.089 A  
HETATM   24  C   UNL     1      -6.939   5.484  71.688  1.00  0.00    -0.068 A  
HETATM   25  N   UNL     1      -6.940   6.833  71.758  1.00  0.00    -0.070 NA 
HETATM   26  C   UNL     1      -7.032   4.785  70.501  1.00  0.00    -0.037 A  
ENDBRANCH  18  20
ENDBRANCH  15  16
ENDBRANCH   9  12
BRANCH  10  27
HETATM   27  N   UNL     1      -9.721  12.628  69.230  1.00  0.00    -0.026 N  
HETATM   28  O   UNL     1      -8.934  10.836  68.063  1.00  0.00    -0.133 OA 
HETATM   29  C   UNL     1      -9.669  11.264  68.953  1.00  0.00    -0.127 C  
HETATM   30  H   UNL     1     -10.389  12.982  69.916  1.00  0.00     0.000 HD 
BRANCH  29  31
HETATM   31  C   UNL     1     -10.514  10.407  69.785  1.00  0.00    -0.240 A  
HETATM   32  N   UNL     1     -11.721   9.974  69.446  1.00  0.00    -0.030 NA 
HETATM   33  C   UNL     1     -13.593   8.613  70.473  1.00  0.00     0.966 C  
HETATM   34  C   UNL     1     -12.567   6.216  72.135  1.00  0.00     0.116 C  
HETATM   35  C   UNL     1     -12.241   9.243  70.508  1.00  0.00     0.050 A  
HETATM   36  C   UNL     1     -14.014   8.170  71.897  1.00  0.00    -0.380 C  
HETATM   37  C   UNL     1     -11.418   9.111  71.602  1.00  0.00    -0.381 A  
HETATM   38  N   UNL     1     -12.956   7.508  72.700  1.00  0.00     0.347 NA 
HETATM   39  C   UNL     1     -11.782   8.400  72.873  1.00  0.00     0.021 C  
HETATM   40  S   UNL     1      -9.952   9.920  71.346  1.00  0.00     1.416 SA 
ENDBRANCH  29  31
ENDBRANCH  10  27
ENDBRANCH   4   6
TORSDOF 6
ENDMDL
MODEL       80
REMARK 921   NORMALIZED FREE ENERGY PREDICTED BY IDOCK:   16.12 KCAL/MOL
REMARK 922        TOTAL FREE ENERGY PREDICTED BY IDOCK:   20.85 KCAL/MOL
REMARK 923 INTER-LIGAND FREE ENERGY PREDICTED BY IDOCK:    9.37 KCAL/MOL
REMARK 924 INTRA-LIGAND FREE ENERGY PREDICTED BY IDOCK:   11.48 KCAL/MOL
REMARK 927      BINDING AFFINITY PREDICTED BY RF-SCORE:    0.00 PKD
ROOT
HETATM    1  C   UNL     1     -13.377   4.906  72.924  1.00  0.00     1.974 C  
HETATM    2  N   UNL     1     -12.731   5.791  71.962  1.00  0.00     0.491 N  
HETATM    3  C   UNL     1     -13.608   6.565  71.101  1.00  0.00     0.692 C  
HETATM    4  C   UNL     1     -11.354   5.934  72.086  1.00  0.00    -0.288 C  
HETATM    5  O   UNL     1     -10.755   5.287  72.952  1.00  0.00    -0.216 OA 
ENDROOT
BRANCH   4   6
HETATM    6  C   UNL     1     -10.542   6.825  71.113  1.00  0.00    -0.252 C  
HETATM    7  C   UNL     1     -10.966   6.782  69.645  1.00  0.00    -0.336 C  
HETATM    8  C   UNL     1     -12.344   7.389  69.411  1.00  0.00     1.743 C  
HETATM    9  C   UNL     1     -12.470   8.835  69.912  1.00  0.00     1.418 C  
HETATM   10  C   UNL     1     -11.934   8.993  71.364  1.00  0.00    -0.332 C  
HETATM   11  C   UNL     1     -10.561   8.314  71.571  1.00  0.00    -0.296 C  
BRANCH   9  12
HETATM   12  N   UNL     1     -11.847   9.766  68.980  1.00  0.00    -0.222 N  
HETATM   13  O   UNL     1     -10.350   8.243  68.044  1.00  0.00    -0.209 OA 
HETATM   14  H   UNL     1     -12.130  10.745  68.986  1.00  0.00     0.000 HD 
HETATM   15  C   UNL     1     -10.880   9.347  68.088  1.00  0.00    -0.119 C  
BRANCH  15  16
HETATM   16  C   UNL     1     -10.514  10.397  67.035  1.00  0.00    -0.251 C  
HETATM   17  O   UNL     1      -9.385  10.362  66.572  1.00  0.00    -0.158 OA 
HETATM   18  N   UNL     1     -11.537  11.293  66.827  1.00  0.00    -0.015 N  
HETATM   19  H   UNL     1     -12.425  11.128  67.301  1.00  0.00     0.000 HD 
BRANCH  18  20
HETATM   20  C   UNL     1     -11.429  12.411  66.006  1.00  0.00    -0.382 A  
HETATM   21  C   UNL     1     -12.501  14.121  64.706  1.00  0.00    -0.395 A  
HETATM   22 CL   UNL     1     -11.122  16.241  63.746  1.00  0.00     1.076 Cl 
HETATM   23  C   UNL     1     -12.585  12.923  65.423  1.00  0.00    -0.440 A  
HETATM   24  C   UNL     1     -10.162  14.134  65.128  1.00  0.00    -0.384 A  
HETATM   25  N   UNL     1     -10.227  12.988  65.841  1.00  0.00    -0.288 NA 
HETATM   26  C   UNL     1     -11.267  14.744  64.567  1.00  0.00    -0.274 A  
ENDBRANCH  18  20
ENDBRANCH  15  16
ENDBRANCH   9  12
BRANCH  10  27
HETATM   27  N   UNL     1     -11.942  10.395  71.809  1.00  0.00    -0.082 N  
HETATM   28  O   UNL     1     -12.123  11.181  69.678  1.00  0.00    -0.319 OA 
HETATM   29  C   UNL     1     -12.089  11.426  70.884  1.00  0.00    -0.277 C  
HETATM   30  H   UNL     1     -11.838  10.614  72.800  1.00  0.00     0.000 HD 
BRANCH  29  31
HETATM   31  C   UNL     1     -12.216  12.774  71.439  1.00  0.00     0.248 A  
HETATM   32  N   UNL     1     -12.157  13.894  70.730  1.00  0.00    -0.342 NA 
HETATM   33  C   UNL     1     -12.212  16.391  71.143  1.00  0.00     0.289 C  
HETATM   34  C   UNL     1     -14.233  17.204  73.338  1.00  0.00     3.241 C  
HETATM   35  C   UNL     1     -12.252  14.972  71.602  1.00  0.00    -0.347 A  
HETATM   36  C   UNL     1     -12.002  17.339  72.352  1.00  0.00     1.513 C  
HETATM   37  C   UNL     1     -12.413  14.653  72.930  1.00  0.00    -0.296 A  
HETATM   38  N   UNL     1     -12.800  17.018  73.562  1.00  0.00     0.372 NA 
HETATM   39  C   UNL     1     -12.499  15.649  74.050  1.00  0.00    -0.651 C  
HETATM   40  S   UNL     1     -12.433  12.973  73.143  1.00  0.00     3.483 SA 
ENDBRANCH  29  31
ENDBRANCH  10  27
ENDBRANCH   4   6
TORSDOF 6
ENDMDL
MODEL       81
REMARK 921   NORMALIZED FREE ENERGY PREDICTED BY IDOCK:   16.40 KCAL/MOL
REMARK 922        TOTAL FREE ENERGY PREDICTED BY IDOCK:   21.24 KCAL/MOL
REMARK 923 INTER-LIGAND FREE ENERGY PREDICTED BY IDOCK:   16.27 KCAL/MOL
REMARK 924 INTRA-LIGAND FREE ENERGY PREDICTED BY IDOCK:    4.96 KCAL/MOL
REMARK 927      BINDING AFFINITY PREDICTED BY RF-SCORE:    0.00 PKD
ROOT
HETATM    1  C   UNL     1      -8.313   5.125  67.206  1.00  0.00    -0.106 C  
HETATM    2  N   UNL     1      -8.297   6.321  66.374  1.00  0.00    -0.114 N  
HETATM    3  C   UNL     1      -7.203   6.437  65.425  1.00  0.00    -0.070 C  
HETATM    4  C   UNL     1      -9.420   7.137  66.448  1.00  0.00    -0.123 C  
HETATM    5  O   UNL     1     -10.331   6.841  67.229  1.00  0.00    -0.187 OA 
ENDROOT
BRANCH   4   6
HETATM    6  C   UNL     1      -9.521   8.451  65.633  1.00  0.00     0.015 C  
HETATM    7  C   UNL     1     -10.934   8.943  65.318  1.00  0.00     4.590 C  
HETATM    8  C   UNL     1     -11.694   9.388  66.562  1.00  0.00     3.758 C  
HETATM    9  C   UNL     1     -10.967  10.476  67.368  1.00  0.00    -0.288 C  
HETATM   10  C   UNL     1      -9.476  10.111  67.619  1.00  0.00    -0.148 C  
HETATM   11  C   UNL     1      -8.761   9.610  66.344  1.00  0.00    -0.148 C  
BRANCH   9  12
HETATM   12  N   UNL     1     -11.126  11.781  66.741  1.00  0.00    -0.292 N  
HETATM   13  O   UNL     1     -11.699  10.994  64.623  1.00  0.00     0.311 OA 
HETATM   14  H   UNL     1     -10.927  12.623  67.281  1.00  0.00     0.000 HD 
HETATM   15  C   UNL     1     -11.542  11.902  65.430  1.00  0.00    -0.223 C  
BRANCH  15  16
HETATM   16  C   UNL     1     -11.882  13.338  65.019  1.00  0.00    -0.352 C  
HETATM   17  O   UNL     1     -12.661  13.490  64.092  1.00  0.00    -0.650 OA 
HETATM   18  N   UNL     1     -11.165  14.262  65.744  1.00  0.00    -0.312 N  
HETATM   19  H   UNL     1     -10.577  13.924  66.506  1.00  0.00     0.000 HD 
BRANCH  18  20
HETATM   20  C   UNL     1     -11.199  15.630  65.497  1.00  0.00    -0.140 A  
HETATM   21  C   UNL     1     -11.090  17.877  66.337  1.00  0.00     0.510 A  
HETATM   22 CL   UNL     1     -10.861  19.999  64.674  1.00  0.00     1.127 Cl 
HETATM   23  C   UNL     1     -11.189  16.504  66.582  1.00  0.00     0.364 A  
HETATM   24  C   UNL     1     -11.115  17.398  64.009  1.00  0.00     3.438 A  
HETATM   25  N   UNL     1     -11.191  16.067  64.226  1.00  0.00    -0.576 NA 
HETATM   26  C   UNL     1     -11.039  18.331  65.024  1.00  0.00     1.385 A  
ENDBRANCH  18  20
ENDBRANCH  15  16
ENDBRANCH   9  12
BRANCH  10  27
HETATM   27  N   UNL     1      -8.743  11.197  68.286  1.00  0.00    -0.144 N  
HETATM   28  O   UNL     1      -9.218  12.681  66.623  1.00  0.00    -0.225 OA 
HETATM   29  C   UNL     1      -8.712  12.472  67.726  1.00  0.00    -0.178 C  
HETATM   30  H   UNL     1      -8.256  11.017  69.164  1.00  0.00     0.000 HD 
BRANCH  29  31
HETATM   31  C   UNL     1      -8.070  13.512  68.530  1.00  0.00    -0.108 A  
HETATM   32  N   UNL     1      -6.773  13.564  68.806  1.00  0.00    -0.099 NA 
HETATM   33  C   UNL     1      -5.190  15.002  70.161  1.00  0.00    -0.107 C  
HETATM   34  C   UNL     1      -5.865  18.015  70.001  1.00  0.00    -0.214 C  
HETATM   35  C   UNL     1      -6.544  14.649  69.643  1.00  0.00    -0.155 A  
HETATM   36  C   UNL     1      -5.309  16.031  71.314  1.00  0.00     0.048 C  
HETATM   37  C   UNL     1      -7.649  15.407  69.954  1.00  0.00     0.005 A  
HETATM   38  N   UNL     1      -6.280  17.132  71.090  1.00  0.00     1.391 NA 
HETATM   39  C   UNL     1      -7.647  16.599  70.867  1.00  0.00     4.242 C  
HETATM   40  S   UNL     1      -9.035  14.772  69.216  1.00  0.00     0.049 SA 
ENDBRANCH  29  31
ENDBRANCH  10  27
ENDBRANCH   4   6
TORSDOF 6
ENDMDL
MODEL       82
REMARK 921   NORMALIZED FREE ENERGY PREDICTED BY IDOCK:   17.15 KCAL/MOL
REMARK 922        TOTAL FREE ENERGY PREDICTED BY IDOCK:   22.24 KCAL/MOL
REMARK 923 INTER-LIGAND FREE ENERGY PREDICTED BY IDOCK:   15.29 KCAL/MOL
REMARK 924 INTRA-LIGAND FREE ENERGY PREDICTED BY IDOCK:    6.95 KCAL/MOL
REMARK 927      BINDING AFFINITY PREDICTED BY RF-SCORE:    0.00 PKD
ROOT
HETATM    1  C   UNL     1      -7.939  19.925  69.914  1.00  0.00     0.687 C  
HETATM    2  N   UNL     1      -7.770  18.487  69.749  1.00  0.00     0.578 N  
HETATM    3  C   UNL     1      -8.898  17.760  69.192  1.00  0.00     0.131 C  
HETATM    4  C   UNL     1      -6.493  17.988  69.975  1.00  0.00     0.174 C  
HETATM    5  O   UNL     1      -5.598  18.760  70.339  1.00  0.00    -0.226 OA 
ENDROOT
BRANCH   4   6
HETATM    6  C   UNL     1      -6.182  16.475  69.857  1.00  0.00    -0.159 C  
HETATM    7  C   UNL     1      -6.574  15.610  71.055  1.00  0.00     1.124 C  
HETATM    8  C   UNL     1      -8.084  15.517  71.246  1.00  0.00     3.772 C  
HETATM    9  C   UNL     1      -8.828  14.999  70.006  1.00  0.00     0.442 C  
HETATM   10  C   UNL     1      -8.386  15.743  68.713  1.00  0.00    -0.195 C  
HETATM   11  C   UNL     1      -6.851  15.864  68.589  1.00  0.00    -0.125 C  
BRANCH   9  12
HETATM   12  N   UNL     1      -8.703  13.552  69.891  1.00  0.00     1.408 N  
HETATM   13  O   UNL     1     -10.903  13.046  70.471  1.00  0.00     1.295 OA 
HETATM   14  H   UNL     1      -7.795  13.144  69.666  1.00  0.00     0.000 HD 
HETATM   15  C   UNL     1      -9.789  12.721  70.079  1.00  0.00     2.814 C  
BRANCH  15  16
HETATM   16  C   UNL     1      -9.528  11.264  69.686  1.00  0.00     0.776 C  
HETATM   17  O   UNL     1      -8.531  10.727  70.142  1.00  0.00     0.469 OA 
HETATM   18  N   UNL     1     -10.459  10.800  68.785  1.00  0.00    -0.187 N  
HETATM   19  H   UNL     1     -11.242  11.408  68.548  1.00  0.00     0.000 HD 
BRANCH  18  20
HETATM   20  C   UNL     1     -10.391   9.549  68.180  1.00  0.00    -0.208 A  
HETATM   21  C   UNL     1      -9.759   8.207  66.293  1.00  0.00    -0.223 A  
HETATM   22 CL   UNL     1      -9.765   5.504  66.414  1.00  0.00    -0.173 Cl 
HETATM   23  C   UNL     1      -9.953   9.470  66.861  1.00  0.00    -0.278 A  
HETATM   24  C   UNL     1     -10.527   7.246  68.327  1.00  0.00    -0.199 A  
HETATM   25  N   UNL     1     -10.702   8.457  68.899  1.00  0.00    -0.131 NA 
HETATM   26  C   UNL     1     -10.040   7.073  67.046  1.00  0.00    -0.229 A  
ENDBRANCH  18  20
ENDBRANCH  15  16
ENDBRANCH   9  12
BRANCH  10  27
HETATM   27  N   UNL     1      -9.006  15.174  67.507  1.00  0.00    -0.176 N  
HETATM   28  O   UNL     1      -8.091  13.120  67.876  1.00  0.00    -0.132 OA 
HETATM   29  C   UNL     1      -8.836  13.827  67.197  1.00  0.00    -0.231 C  
HETATM   30  H   UNL     1      -9.564  15.769  66.894  1.00  0.00     0.000 HD 
BRANCH  29  31
HETATM   31  C   UNL     1      -9.598  13.330  66.051  1.00  0.00    -0.160 A  
HETATM   32  N   UNL     1      -9.606  12.071  65.634  1.00  0.00    -0.224 NA 
HETATM   33  C   UNL     1     -10.609  10.716  63.745  1.00  0.00     0.070 C  
HETATM   34  C   UNL     1     -13.502  11.567  63.059  1.00  0.00     1.701 C  
HETATM   35  C   UNL     1     -10.388  11.991  64.489  1.00  0.00    -0.296 A  
HETATM   36  C   UNL     1     -11.230  11.008  62.355  1.00  0.00     1.954 C  
HETATM   37  C   UNL     1     -10.977  13.166  64.084  1.00  0.00    -0.390 A  
HETATM   38  N   UNL     1     -12.313  12.022  62.339  1.00  0.00     1.610 NA 
HETATM   39  C   UNL     1     -11.830  13.326  62.859  1.00  0.00     0.669 C  
HETATM   40  S   UNL     1     -10.554  14.434  65.125  1.00  0.00    -0.435 SA 
ENDBRANCH  29  31
ENDBRANCH  10  27
ENDBRANCH   4   6
TORSDOF 6
ENDMDL
MODEL       83
REMARK 921   NORMALIZED FREE ENERGY PREDICTED BY IDOCK:   18.04 KCAL/MOL
REMARK 922        TOTAL FREE ENERGY PREDICTED BY IDOCK:   23.46 KCAL/MOL
REMARK 923 INTER-LIGAND FREE ENERGY PREDICTED BY IDOCK:   20.62 KCAL/MOL
REMARK 924 INTRA-LIGAND FREE ENERGY PREDICTED BY IDOCK:    2.84 KCAL/MOL
REMARK 927      BINDING AFFINITY PREDICTED BY RF-SCORE:    0.00 PKD
ROOT
HETATM    1  C   UNL     1     -11.828   4.715  67.191  1.00  0.00     6.585 C  
HETATM    2  N   UNL     1     -11.375   5.946  66.557  1.00  0.00     0.190 N  
HETATM    3  C   UNL     1     -12.408   6.841  66.066  1.00  0.00     7.007 C  
HETATM    4  C   UNL     1     -10.016   6.220  66.646  1.00  0.00    -0.153 C  
HETATM    5  O   UNL     1      -9.271   5.405  67.202  1.00  0.00    -0.111 OA 
ENDROOT
BRANCH   4   6
HETATM    6  C   UNL     1      -9.400   7.484  65.995  1.00  0.00    -0.061 C  
HETATM    7  C   UNL     1     -10.361   8.373  65.206  1.00  0.00     2.674 C  
HETATM    8  C   UNL     1     -11.395   9.056  66.093  1.00  0.00     2.947 C  
HETATM    9  C   UNL     1     -10.777   9.891  67.225  1.00  0.00    -0.238 C  
HETATM   10  C   UNL     1      -9.686   9.097  68.000  1.00  0.00    -0.154 C  
HETATM   11  C   UNL     1      -8.694   8.374  67.061  1.00  0.00    -0.132 C  
BRANCH   9  12
HETATM   12  N   UNL     1     -10.289  11.169  66.723  1.00  0.00    -0.232 N  
HETATM   13  O   UNL     1     -12.262  11.808  65.657  1.00  0.00    -0.289 OA 
HETATM   14  H   UNL     1      -9.317  11.432  66.883  1.00  0.00     0.000 HD 
HETATM   15  C   UNL     1     -11.118  12.032  66.033  1.00  0.00    -0.320 C  
BRANCH  15  16
HETATM   16  C   UNL     1     -10.507  13.416  65.795  1.00  0.00    -0.290 C  
HETATM   17  O   UNL     1     -10.463  13.822  64.644  1.00  0.00    -0.416 OA 
HETATM   18  N   UNL     1     -10.020  13.969  66.956  1.00  0.00    -0.252 N  
HETATM   19  H   UNL     1     -10.183  13.472  67.831  1.00  0.00     0.000 HD 
BRANCH  18  20
HETATM   20  C   UNL     1      -9.316  15.168  67.004  1.00  0.00    -0.230 A  
HETATM   21  C   UNL     1      -9.315  17.541  67.369  1.00  0.00    -0.249 A  
HETATM   22 CL   UNL     1      -7.009  18.937  67.593  1.00  0.00    -0.216 Cl 
HETATM   23  C   UNL     1     -10.027  16.351  67.189  1.00  0.00    -0.260 A  
HETATM   24  C   UNL     1      -7.305  16.307  67.075  1.00  0.00    -0.229 A  
HETATM   25  N   UNL     1      -7.975  15.144  66.919  1.00  0.00    -0.184 NA 
HETATM   26  C   UNL     1      -7.927  17.515  67.323  1.00  0.00    -0.205 A  
ENDBRANCH  18  20
ENDBRANCH  15  16
ENDBRANCH   9  12
BRANCH  10  27
HETATM   27  N   UNL     1      -9.007   9.926  69.007  1.00  0.00    -0.150 N  
HETATM   28  O   UNL     1      -6.998   9.759  67.945  1.00  0.00    -0.076 OA 
HETATM   29  C   UNL     1      -7.658  10.243  68.864  1.00  0.00    -0.094 C  
HETATM   30  H   UNL     1      -9.527  10.270  69.815  1.00  0.00     0.000 HD 
BRANCH  29  31
HETATM   31  C   UNL     1      -7.111  11.178  69.847  1.00  0.00     0.086 A  
HETATM   32  N   UNL     1      -7.065  12.495  69.696  1.00  0.00     0.254 NA 
HETATM   33  C   UNL     1      -6.187  14.508  70.956  1.00  0.00     0.016 C  
HETATM   34  C   UNL     1      -6.613  14.295  74.011  1.00  0.00     1.800 C  
HETATM   35  C   UNL     1      -6.422  13.043  70.799  1.00  0.00     0.903 A  
HETATM   36  C   UNL     1      -5.171  14.769  72.097  1.00  0.00    -0.098 C  
HETATM   37  C   UNL     1      -6.030  12.148  71.767  1.00  0.00     1.540 A  
HETATM   38  N   UNL     1      -5.366  13.957  73.325  1.00  0.00    -0.412 NA 
HETATM   39  C   UNL     1      -5.289  12.506  73.022  1.00  0.00     0.693 C  
HETATM   40  S   UNL     1      -6.439  10.567  71.318  1.00  0.00     0.977 SA 
ENDBRANCH  29  31
ENDBRANCH  10  27
ENDBRANCH   4   6
TORSDOF 6
ENDMDL
MODEL       84
REMARK 921   NORMALIZED FREE ENERGY PREDICTED BY IDOCK:   18.46 KCAL/MOL
REMARK 922        TOTAL FREE ENERGY PREDICTED BY IDOCK:   24.02 KCAL/MOL
REMARK 923 INTER-LIGAND FREE ENERGY PREDICTED BY IDOCK:   23.37 KCAL/MOL
REMARK 924 INTRA-LIGAND FREE ENERGY PREDICTED BY IDOCK:    0.65 KCAL/MOL
REMARK 927      BINDING AFFINITY PREDICTED BY RF-SCORE:    0.00 PKD
ROOT
HETATM    1  C   UNL     1      -7.074   1.959  72.984  1.00  0.00    -0.027 C  
HETATM    2  N   UNL     1      -7.950   3.117  73.106  1.00  0.00    -0.064 N  
HETATM    3  C   UNL     1      -9.157   2.939  73.896  1.00  0.00    -0.077 C  
HETATM    4  C   UNL     1      -7.457   4.317  72.606  1.00  0.00    -0.074 C  
HETATM    5  O   UNL     1      -6.351   4.332  72.056  1.00  0.00    -0.019 OA 
ENDROOT
BRANCH   4   6
HETATM    6  C   UNL     1      -8.296   5.618  72.651  1.00  0.00    -0.117 C  
HETATM    7  C   UNL     1      -7.724   6.761  73.491  1.00  0.00    -0.092 C  
HETATM    8  C   UNL     1      -6.440   7.338  72.905  1.00  0.00    -0.060 C  
HETATM    9  C   UNL     1      -6.593   7.827  71.457  1.00  0.00    -0.045 C  
HETATM   10  C   UNL     1      -7.291   6.766  70.559  1.00  0.00    -0.081 C  
HETATM   11  C   UNL     1      -8.555   6.166  71.216  1.00  0.00    -0.129 C  
BRANCH   9  12
HETATM   12  N   UNL     1      -7.256   9.123  71.412  1.00  0.00    -0.045 N  
HETATM   13  O   UNL     1      -5.403  10.393  72.036  1.00  0.00    -0.275 OA 
HETATM   14  H   UNL     1      -8.252   9.168  71.200  1.00  0.00     0.000 HD 
HETATM   15  C   UNL     1      -6.562  10.292  71.650  1.00  0.00     1.111 C  
BRANCH  15  16
HETATM   16  C   UNL     1      -7.358  11.560  71.327  1.00  0.00     5.331 C  
HETATM   17  O   UNL     1      -7.128  12.556  71.995  1.00  0.00     5.570 OA 
HETATM   18  N   UNL     1      -8.295  11.341  70.344  1.00  0.00     1.977 N  
HETATM   19  H   UNL     1      -8.307  10.430  69.886  1.00  0.00     0.000 HD 
BRANCH  18  20
HETATM   20  C   UNL     1      -9.225  12.293  69.939  1.00  0.00     2.835 A  
HETATM   21  C   UNL     1     -11.431  12.806  69.144  1.00  0.00    -0.361 A  
HETATM   22 CL   UNL     1     -12.351  15.350  69.064  1.00  0.00    -0.137 Cl 
HETATM   23  C   UNL     1     -10.445  11.857  69.428  1.00  0.00     0.157 A  
HETATM   24  C   UNL     1      -9.898  14.501  69.798  1.00  0.00     0.390 A  
HETATM   25  N   UNL     1      -8.940  13.597  70.098  1.00  0.00     2.678 NA 
HETATM   26  C   UNL     1     -11.156  14.153  69.345  1.00  0.00    -0.221 A  
ENDBRANCH  18  20
ENDBRANCH  15  16
ENDBRANCH   9  12
BRANCH  10  27
HETATM   27  N   UNL     1      -7.547   7.270  69.201  1.00  0.00    -0.100 N  
HETATM   28  O   UNL     1      -9.751   6.700  69.290  1.00  0.00    -0.146 OA 
HETATM   29  C   UNL     1      -8.834   7.235  68.668  1.00  0.00    -0.129 C  
HETATM   30  H   UNL     1      -6.778   7.647  68.646  1.00  0.00     0.000 HD 
BRANCH  29  31
HETATM   31  C   UNL     1      -9.007   7.878  67.366  1.00  0.00    -0.127 A  
HETATM   32  N   UNL     1      -8.082   7.930  66.417  1.00  0.00    -0.105 NA 
HETATM   33  C   UNL     1      -7.797   8.942  64.114  1.00  0.00    -0.135 C  
HETATM   34  C   UNL     1     -10.367   8.780  62.402  1.00  0.00     4.831 C  
HETATM   35  C   UNL     1      -8.581   8.674  65.355  1.00  0.00    -0.181 A  
HETATM   36  C   UNL     1      -8.479  10.057  63.280  1.00  0.00    -0.183 C  
HETATM   37  C   UNL     1      -9.868   9.136  65.502  1.00  0.00     0.006 A  
HETATM   38  N   UNL     1      -9.956   9.957  63.166  1.00  0.00     0.499 NA 
HETATM   39  C   UNL     1     -10.597   9.988  64.504  1.00  0.00     1.150 C  
HETATM   40  S   UNL     1     -10.502   8.667  67.001  1.00  0.00    -0.232 SA 
ENDBRANCH  29  31
ENDBRANCH  10  27
ENDBRANCH   4   6
TORSDOF 6
ENDMDL
MODEL       85
REMARK 921   NORMALIZED FREE ENERGY PREDICTED BY IDOCK:   22.33 KCAL/MOL
REMARK 922        TOTAL FREE ENERGY PREDICTED BY IDOCK:   29.24 KCAL/MOL
REMARK 923 INTER-LIGAND FREE ENERGY PREDICTED BY IDOCK:   26.50 KCAL/MOL
REMARK 924 INTRA-LIGAND FREE ENERGY PREDICTED BY IDOCK:    2.74 KCAL/MOL
REMARK 927      BINDING AFFINITY PREDICTED BY RF-SCORE:    0.00 PKD
ROOT
HETATM    1  C   UNL     1     -12.785  12.001  74.079  1.00  0.00    12.370 C  
HETATM    2  N   UNL     1     -12.233  13.089  73.282  1.00  0.00     3.103 N  
HETATM    3  C   UNL     1     -10.955  13.627  73.714  1.00  0.00     6.836 C  
HETATM    4  C   UNL     1     -12.896  13.380  72.096  1.00  0.00    -0.211 C  
HETATM    5  O   UNL     1     -13.920  12.750  71.806  1.00  0.00     0.034 OA 
ENDROOT
BRANCH   4   6
HETATM    6  C   UNL     1     -12.428  14.529  71.167  1.00  0.00    -0.411 C  
HETATM    7  C   UNL     1     -11.472  15.549  71.785  1.00  0.00    -0.504 C  
HETATM    8  C   UNL     1     -10.108  14.954  72.115  1.00  0.00     3.250 C  
HETATM    9  C   UNL     1      -9.414  14.304  70.908  1.00  0.00     3.654 C  
HETATM   10  C   UNL     1     -10.368  13.344  70.141  1.00  0.00     1.843 C  
HETATM   11  C   UNL     1     -11.758  13.967  69.878  1.00  0.00    -0.368 C  
BRANCH   9  12
HETATM   12  N   UNL     1      -8.820  15.315  70.043  1.00  0.00    -0.282 N  
HETATM   13  O   UNL     1      -6.602  14.676  70.368  1.00  0.00    -0.179 OA 
HETATM   14  H   UNL     1      -9.421  16.007  69.597  1.00  0.00     0.000 HD 
HETATM   15  C   UNL     1      -7.460  15.353  69.814  1.00  0.00    -0.108 C  
BRANCH  15  16
HETATM   16  C   UNL     1      -7.047  16.322  68.701  1.00  0.00    -0.155 C  
HETATM   17  O   UNL     1      -5.891  16.275  68.313  1.00  0.00    -0.099 OA 
HETATM   18  N   UNL     1      -8.071  17.174  68.357  1.00  0.00    -0.245 N  
HETATM   19  H   UNL     1      -8.984  17.028  68.788  1.00  0.00     0.000 HD 
BRANCH  18  20
HETATM   20  C   UNL     1      -7.931  18.223  67.454  1.00  0.00    -0.231 A  
HETATM   21  C   UNL     1      -6.509  19.562  66.060  1.00  0.00    -0.221 A  
HETATM   22 CL   UNL     1      -7.528  21.282  64.236  1.00  0.00     0.846 Cl 
HETATM   23  C   UNL     1      -6.649  18.599  67.064  1.00  0.00    -0.201 A  
HETATM   24  C   UNL     1      -8.878  19.749  65.998  1.00  0.00    -0.258 A  
HETATM   25  N   UNL     1      -9.033  18.806  66.952  1.00  0.00    -0.288 NA 
HETATM   26  C   UNL     1      -7.647  20.138  65.507  1.00  0.00    -0.097 A  
ENDBRANCH  18  20
ENDBRANCH  15  16
ENDBRANCH   9  12
BRANCH  10  27
HETATM   27  N   UNL     1      -9.750  12.809  68.918  1.00  0.00    -0.405 N  
HETATM   28  O   UNL     1     -10.243  10.657  69.484  1.00  0.00    -0.218 OA 
HETATM   29  C   UNL     1      -9.781  11.441  68.655  1.00  0.00    -0.176 C  
HETATM   30  H   UNL     1      -9.296  13.442  68.259  1.00  0.00     0.000 HD 
BRANCH  29  31
HETATM   31  C   UNL     1      -9.257  11.026  67.354  1.00  0.00    -0.151 A  
HETATM   32  N   UNL     1      -8.541   9.930  67.140  1.00  0.00    -0.125 NA 
HETATM   33  C   UNL     1      -7.343   8.806  65.213  1.00  0.00    -0.085 C  
HETATM   34  C   UNL     1      -8.897   9.008  62.548  1.00  0.00    -0.143 C  
HETATM   35  C   UNL     1      -8.168   9.901  65.802  1.00  0.00    -0.125 A  
HETATM   36  C   UNL     1      -6.819   9.222  63.815  1.00  0.00    -0.092 C  
HETATM   37  C   UNL     1      -8.628  10.943  65.031  1.00  0.00    -0.053 A  
HETATM   38  N   UNL     1      -7.806   9.901  62.939  1.00  0.00    -0.129 NA 
HETATM   39  C   UNL     1      -8.320  11.139  63.575  1.00  0.00     0.341 C  
HETATM   40  S   UNL     1      -9.542  12.019  65.967  1.00  0.00    -0.215 SA 
ENDBRANCH  29  31
ENDBRANCH  10  27
ENDBRANCH   4   6
TORSDOF 6
ENDMDL
MODEL       86
REMARK 921   NORMALIZED FREE ENERGY PREDICTED BY IDOCK:   26.64 KCAL/MOL
REMARK 922        TOTAL FREE ENERGY PREDICTED BY IDOCK:   35.07 KCAL/MOL
REMARK 923 INTER-LIGAND FREE ENERGY PREDICTED BY IDOCK:   21.86 KCAL/MOL
REMARK 924 INTRA-LIGAND FREE ENERGY PREDICTED BY IDOCK:   13.21 KCAL/MOL
REMARK 927      BINDING AFFINITY PREDICTED BY RF-SCORE:    0.00 PKD
ROOT
HETATM    1  C   UNL     1      -9.168  20.139  69.329  1.00  0.00     0.423 C  
HETATM    2  N   UNL     1      -8.956  18.698  69.382  1.00  0.00     0.223 N  
HETATM    3  C   UNL     1     -10.010  17.866  68.828  1.00  0.00    -0.376 C  
HETATM    4  C   UNL     1      -7.697  18.277  69.793  1.00  0.00     0.866 C  
HETATM    5  O   UNL     1      -6.858  19.120  70.129  1.00  0.00     0.049 OA 
ENDROOT
BRANCH   4   6
HETATM    6  C   UNL     1      -7.347  16.772  69.916  1.00  0.00     0.731 C  
HETATM    7  C   UNL     1      -7.863  16.059  71.166  1.00  0.00     4.249 C  
HETATM    8  C   UNL     1      -9.383  15.941  71.193  1.00  0.00     3.179 C  
HETATM    9  C   UNL     1      -9.965  15.240  69.956  1.00  0.00    -0.107 C  
HETATM   10  C   UNL     1      -9.387  15.823  68.635  1.00  0.00    -0.206 C  
HETATM   11  C   UNL     1      -7.850  15.979  68.673  1.00  0.00    -0.179 C  
BRANCH   9  12
HETATM   12  N   UNL     1      -9.801  13.796  70.051  1.00  0.00     0.915 N  
HETATM   13  O   UNL     1     -11.901  13.347  70.958  1.00  0.00    -0.096 OA 
HETATM   14  H   UNL     1      -8.911  13.375  69.787  1.00  0.00     0.000 HD 
HETATM   15  C   UNL     1     -10.828  12.985  70.492  1.00  0.00     2.093 C  
BRANCH  15  16
HETATM   16  C   UNL     1     -10.560  11.489  70.300  1.00  0.00     1.266 C  
HETATM   17  O   UNL     1     -10.204  11.118  69.193  1.00  0.00    -0.208 OA 
HETATM   18  N   UNL     1     -10.846  10.767  71.436  1.00  0.00     1.065 N  
HETATM   19  H   UNL     1     -11.109  11.278  72.278  1.00  0.00     0.000 HD 
BRANCH  18  20
HETATM   20  C   UNL     1     -10.798   9.378  71.499  1.00  0.00    -0.328 A  
HETATM   21  C   UNL     1     -11.959   7.277  71.533  1.00  0.00    -0.349 A  
HETATM   22 CL   UNL     1     -10.644   4.929  71.256  1.00  0.00    -0.162 Cl 
HETATM   23  C   UNL     1     -11.995   8.673  71.601  1.00  0.00    -0.388 A  
HETATM   24  C   UNL     1      -9.591   7.410  71.367  1.00  0.00    -0.159 A  
HETATM   25  N   UNL     1      -9.608   8.760  71.412  1.00  0.00    -0.240 NA 
HETATM   26  C   UNL     1     -10.734   6.634  71.400  1.00  0.00    -0.229 A  
ENDBRANCH  18  20
ENDBRANCH  15  16
ENDBRANCH   9  12
BRANCH  10  27
HETATM   27  N   UNL     1      -9.849  15.080  67.452  1.00  0.00    -0.224 N  
HETATM   28  O   UNL     1     -10.891  13.500  68.721  1.00  0.00    -0.248 OA 
HETATM   29  C   UNL     1     -10.643  13.946  67.600  1.00  0.00    -0.245 C  
HETATM   30  H   UNL     1      -9.586  15.397  66.519  1.00  0.00     0.000 HD 
BRANCH  29  31
HETATM   31  C   UNL     1     -11.158  13.357  66.364  1.00  0.00    -0.299 A  
HETATM   32  N   UNL     1     -10.724  12.225  65.826  1.00  0.00    -0.255 NA 
HETATM   33  C   UNL     1     -11.151  10.838  63.751  1.00  0.00     0.575 C  
HETATM   34  C   UNL     1     -14.140  10.740  62.963  1.00  0.00     6.360 C  
HETATM   35  C   UNL     1     -11.399  12.019  64.629  1.00  0.00    -0.318 A  
HETATM   36  C   UNL     1     -11.795  11.061  62.359  1.00  0.00     2.401 C  
HETATM   37  C   UNL     1     -12.342  12.966  64.305  1.00  0.00    -0.385 A  
HETATM   38  N   UNL     1     -13.158  11.648  62.371  1.00  0.00     1.229 NA 
HETATM   39  C   UNL     1     -13.163  12.969  63.048  1.00  0.00     1.686 C  
HETATM   40  S   UNL     1     -12.407  14.173  65.490  1.00  0.00    -0.449 SA 
ENDBRANCH  29  31
ENDBRANCH  10  27
ENDBRANCH   4   6
TORSDOF 6
ENDMDL
MODEL       87
REMARK 921   NORMALIZED FREE ENERGY PREDICTED BY IDOCK:   27.21 KCAL/MOL
REMARK 922        TOTAL FREE ENERGY PREDICTED BY IDOCK:   35.84 KCAL/MOL
REMARK 923 INTER-LIGAND FREE ENERGY PREDICTED BY IDOCK:   33.83 KCAL/MOL
REMARK 924 INTRA-LIGAND FREE ENERGY PREDICTED BY IDOCK:    2.01 KCAL/MOL
REMARK 927      BINDING AFFINITY PREDICTED BY RF-SCORE:    0.00 PKD
ROOT
HETATM    1  C   UNL     1     -10.494   4.508  73.512  1.00  0.00    -0.209 C  
HETATM    2  N   UNL     1      -9.925   5.170  72.345  1.00  0.00    -0.173 N  
HETATM    3  C   UNL     1      -9.970   4.432  71.094  1.00  0.00    -0.173 C  
HETATM    4  C   UNL     1      -9.561   6.501  72.509  1.00  0.00    -0.151 C  
HETATM    5  O   UNL     1      -9.691   7.030  73.619  1.00  0.00    -0.194 OA 
ENDROOT
BRANCH   4   6
HETATM    6  C   UNL     1      -8.924   7.314  71.355  1.00  0.00    -0.139 C  
HETATM    7  C   UNL     1      -9.069   6.724  69.952  1.00  0.00    -0.144 C  
HETATM    8  C   UNL     1     -10.511   6.723  69.459  1.00  0.00    -0.248 C  
HETATM    9  C   UNL     1     -11.164   8.113  69.473  1.00  0.00     0.162 C  
HETATM   10  C   UNL     1     -10.947   8.841  70.830  1.00  0.00    -0.262 C  
HETATM   11  C   UNL     1      -9.483   8.768  71.320  1.00  0.00    -0.320 C  
BRANCH   9  12
HETATM   12  N   UNL     1     -10.722   8.907  68.334  1.00  0.00    -0.417 N  
HETATM   13  O   UNL     1     -12.045   7.844  66.736  1.00  0.00     3.899 OA 
HETATM   14  H   UNL     1      -9.997   9.612  68.467  1.00  0.00     0.000 HD 
HETATM   15  C   UNL     1     -11.265   8.725  67.078  1.00  0.00     0.963 C  
BRANCH  15  16
HETATM   16  C   UNL     1     -10.857   9.799  66.066  1.00  0.00     0.483 C  
HETATM   17  O   UNL     1      -9.688   9.828  65.715  1.00  0.00    -0.234 OA 
HETATM   18  N   UNL     1     -11.902  10.640  65.760  1.00  0.00     1.747 N  
HETATM   19  H   UNL     1     -12.822  10.424  66.145  1.00  0.00     0.000 HD 
BRANCH  18  20
HETATM   20  C   UNL     1     -11.776  11.767  64.954  1.00  0.00    -0.118 A  
HETATM   21  C   UNL     1     -12.819  13.504  63.667  1.00  0.00     0.370 A  
HETATM   22 CL   UNL     1     -11.409  15.621  62.744  1.00  0.00     4.983 Cl 
HETATM   23  C   UNL     1     -12.921  12.299  64.367  1.00  0.00    -0.166 A  
HETATM   24  C   UNL     1     -10.483  13.487  64.108  1.00  0.00    -0.081 A  
HETATM   25  N   UNL     1     -10.566  12.333  64.806  1.00  0.00    -0.284 NA 
HETATM   26  C   UNL     1     -11.577  14.116  63.545  1.00  0.00     0.592 A  
ENDBRANCH  18  20
ENDBRANCH  15  16
ENDBRANCH   9  12
BRANCH  10  27
HETATM   27  N   UNL     1     -11.467  10.217  70.811  1.00  0.00    -0.340 N  
HETATM   28  O   UNL     1      -9.402  11.115  71.163  1.00  0.00     4.405 OA 
HETATM   29  C   UNL     1     -10.599  11.299  70.940  1.00  0.00     2.661 C  
HETATM   30  H   UNL     1     -12.468  10.380  70.704  1.00  0.00     0.000 HD 
BRANCH  29  31
HETATM   31  C   UNL     1     -11.196  12.624  70.777  1.00  0.00     1.829 A  
HETATM   32  N   UNL     1     -10.512  13.748  70.605  1.00  0.00     1.960 NA 
HETATM   33  C   UNL     1     -10.981  16.225  70.375  1.00  0.00    -0.282 C  
HETATM   34  C   UNL     1     -13.502  16.821  68.686  1.00  0.00     5.968 C  
HETATM   35  C   UNL     1     -11.410  14.807  70.553  1.00  0.00    -0.195 A  
HETATM   36  C   UNL     1     -12.158  17.183  70.693  1.00  0.00     3.304 C  
HETATM   37  C   UNL     1     -12.739  14.468  70.652  1.00  0.00    -0.360 A  
HETATM   38  N   UNL     1     -13.477  16.779  70.147  1.00  0.00     4.749 NA 
HETATM   39  C   UNL     1     -13.879  15.445  70.659  1.00  0.00     0.145 C  
HETATM   40  S   UNL     1     -12.916  12.794  70.834  1.00  0.00     0.100 SA 
ENDBRANCH  29  31
ENDBRANCH  10  27
ENDBRANCH   4   6
TORSDOF 6
ENDMDL
MODEL       88
REMARK 921   NORMALIZED FREE ENERGY PREDICTED BY IDOCK:   27.54 KCAL/MOL
REMARK 922        TOTAL FREE ENERGY PREDICTED BY IDOCK:   36.29 KCAL/MOL
REMARK 923 INTER-LIGAND FREE ENERGY PREDICTED BY IDOCK:   23.61 KCAL/MOL
REMARK 924 INTRA-LIGAND FREE ENERGY PREDICTED BY IDOCK:   12.68 KCAL/MOL
REMARK 927      BINDING AFFINITY PREDICTED BY RF-SCORE:    0.00 PKD
ROOT
HETATM    1  C   UNL     1     -12.899   7.161  66.970  1.00  0.00    10.713 C  
HETATM    2  N   UNL     1     -11.721   7.982  67.221  1.00  0.00     2.142 N  
HETATM    3  C   UNL     1     -10.834   7.539  68.282  1.00  0.00     0.008 C  
HETATM    4  C   UNL     1     -11.476   9.001  66.308  1.00  0.00     3.380 C  
HETATM    5  O   UNL     1     -12.272   9.184  65.380  1.00  0.00     8.892 OA 
ENDROOT
BRANCH   4   6
HETATM    6  C   UNL     1     -10.272   9.962  66.470  1.00  0.00    -0.292 C  
HETATM    7  C   UNL     1     -10.046  10.960  65.334  1.00  0.00    -0.336 C  
HETATM    8  C   UNL     1     -11.155  12.001  65.234  1.00  0.00    -0.367 C  
HETATM    9  C   UNL     1     -11.378  12.786  66.535  1.00  0.00    -0.322 C  
HETATM   10  C   UNL     1     -11.487  11.844  67.769  1.00  0.00    -0.319 C  
HETATM   11  C   UNL     1     -10.377  10.769  67.799  1.00  0.00    -0.226 C  
BRANCH   9  12
HETATM   12  N   UNL     1     -10.359  13.814  66.704  1.00  0.00    -0.275 N  
HETATM   13  O   UNL     1     -11.793  15.643  66.523  1.00  0.00     0.273 OA 
HETATM   14  H   UNL     1      -9.382  13.539  66.796  1.00  0.00     0.000 HD 
HETATM   15  C   UNL     1     -10.691  15.153  66.742  1.00  0.00    -0.311 C  
BRANCH  15  16
HETATM   16  C   UNL     1      -9.534  16.065  67.161  1.00  0.00    -0.216 C  
HETATM   17  O   UNL     1      -9.001  15.841  68.236  1.00  0.00    -0.177 OA 
HETATM   18  N   UNL     1      -9.323  17.077  66.254  1.00  0.00    -0.262 N  
HETATM   19  H   UNL     1      -9.868  17.071  65.391  1.00  0.00     0.000 HD 
BRANCH  18  20
HETATM   20  C   UNL     1      -8.409  18.108  66.446  1.00  0.00    -0.245 A  
HETATM   21  C   UNL     1      -7.987  20.442  66.815  1.00  0.00    -0.295 A  
HETATM   22 CL   UNL     1      -5.530  21.345  67.501  1.00  0.00    -0.374 Cl 
HETATM   23  C   UNL     1      -8.881  19.417  66.492  1.00  0.00    -0.382 A  
HETATM   24  C   UNL     1      -6.259  18.813  66.921  1.00  0.00    -0.178 A  
HETATM   25  N   UNL     1      -7.112  17.808  66.629  1.00  0.00    -0.202 NA 
HETATM   26  C   UNL     1      -6.652  20.131  67.047  1.00  0.00    -0.213 A  
ENDBRANCH  18  20
ENDBRANCH  15  16
ENDBRANCH   9  12
BRANCH  10  27
HETATM   27  N   UNL     1     -11.582  12.591  69.032  1.00  0.00    -0.294 N  
HETATM   28  O   UNL     1     -11.146  14.581  68.009  1.00  0.00    -0.259 OA 
HETATM   29  C   UNL     1     -11.441  13.977  69.041  1.00  0.00    -0.296 C  
HETATM   30  H   UNL     1     -11.751  12.093  69.905  1.00  0.00     0.000 HD 
BRANCH  29  31
HETATM   31  C   UNL     1     -11.683  14.639  70.323  1.00  0.00    -0.297 A  
HETATM   32  N   UNL     1     -11.168  15.808  70.682  1.00  0.00    -0.346 NA 
HETATM   33  C   UNL     1     -11.157  17.320  72.712  1.00  0.00     2.013 C  
HETATM   34  C   UNL     1     -13.897  17.435  74.141  1.00  0.00     3.753 C  
HETATM   35  C   UNL     1     -11.565  16.083  71.984  1.00  0.00    -0.414 A  
HETATM   36  C   UNL     1     -11.469  17.180  74.224  1.00  0.00     0.916 C  
HETATM   37  C   UNL     1     -12.387  15.148  72.568  1.00  0.00    -0.370 A  
HETATM   38  N   UNL     1     -12.785  16.578  74.552  1.00  0.00    -0.688 NA 
HETATM   39  C   UNL     1     -12.907  15.216  73.975  1.00  0.00    -0.185 C  
HETATM   40  S   UNL     1     -12.684  13.866  71.502  1.00  0.00    -0.343 SA 
ENDBRANCH  29  31
ENDBRANCH  10  27
ENDBRANCH   4   6
TORSDOF 6
ENDMDL
MODEL       89
REMARK 921   NORMALIZED FREE ENERGY PREDICTED BY IDOCK:   34.17 KCAL/MOL
REMARK 922        TOTAL FREE ENERGY PREDICTED BY IDOCK:   45.24 KCAL/MOL
REMARK 923 INTER-LIGAND FREE ENERGY PREDICTED BY IDOCK:   41.08 KCAL/MOL
REMARK 924 INTRA-LIGAND FREE ENERGY PREDICTED BY IDOCK:    4.16 KCAL/MOL
REMARK 927      BINDING AFFINITY PREDICTED BY RF-SCORE:    0.00 PKD
ROOT
HETATM    1  C   UNL     1      -8.738  15.699  63.028  1.00  0.00    22.122 C  
HETATM    2  N   UNL     1      -9.450  14.628  63.713  1.00  0.00     5.482 N  
HETATM    3  C   UNL     1     -10.619  15.015  64.484  1.00  0.00     0.040 C  
HETATM    4  C   UNL     1      -9.045  13.332  63.416  1.00  0.00     5.194 C  
HETATM    5  O   UNL     1      -8.097  13.158  62.643  1.00  0.00     6.370 OA 
ENDROOT
BRANCH   4   6
HETATM    6  C   UNL     1      -9.703  12.103  64.092  1.00  0.00    -0.089 C  
HETATM    7  C   UNL     1      -8.797  10.893  64.322  1.00  0.00    -0.059 C  
HETATM    8  C   UNL     1      -7.704  11.161  65.351  1.00  0.00     0.338 C  
HETATM    9  C   UNL     1      -8.245  11.630  66.710  1.00  0.00    -0.161 C  
HETATM   10  C   UNL     1      -9.281  12.780  66.556  1.00  0.00    -0.189 C  
HETATM   11  C   UNL     1     -10.335  12.491  65.463  1.00  0.00    -0.303 C  
BRANCH   9  12
HETATM   12  N   UNL     1      -8.764  10.507  67.479  1.00  0.00    -0.125 N  
HETATM   13  O   UNL     1      -8.215   8.848  65.935  1.00  0.00    -0.111 OA 
HETATM   14  H   UNL     1      -9.232  10.683  68.368  1.00  0.00     0.000 HD 
HETATM   15  C   UNL     1      -8.635   9.208  67.028  1.00  0.00    -0.123 C  
BRANCH  15  16
HETATM   16  C   UNL     1      -9.021   8.152  68.068  1.00  0.00    -0.134 C  
HETATM   17  O   UNL     1     -10.128   8.238  68.576  1.00  0.00    -0.186 OA 
HETATM   18  N   UNL     1      -7.986   7.284  68.326  1.00  0.00    -0.122 N  
HETATM   19  H   UNL     1      -7.138   7.366  67.765  1.00  0.00     0.000 HD 
BRANCH  18  20
HETATM   20  C   UNL     1      -8.031   6.300  69.308  1.00  0.00    -0.109 A  
HETATM   21  C   UNL     1      -6.935   4.521  70.491  1.00  0.00    -0.037 A  
HETATM   22 CL   UNL     1      -8.000   3.448  72.735  1.00  0.00    -0.067 Cl 
HETATM   23  C   UNL     1      -6.953   5.425  69.424  1.00  0.00    -0.059 A  
HETATM   24  C   UNL     1      -9.057   5.360  71.155  1.00  0.00    -0.141 A  
HETATM   25  N   UNL     1      -9.084   6.254  70.142  1.00  0.00    -0.152 NA 
HETATM   26  C   UNL     1      -8.002   4.498  71.381  1.00  0.00    -0.087 A  
ENDBRANCH  18  20
ENDBRANCH  15  16
ENDBRANCH   9  12
BRANCH  10  27
HETATM   27  N   UNL     1      -9.890  13.154  67.841  1.00  0.00    -0.224 N  
HETATM   28  O   UNL     1     -10.927  14.973  66.941  1.00  0.00    -0.314 OA 
HETATM   29  C   UNL     1     -10.744  14.252  67.921  1.00  0.00    -0.240 C  
HETATM   30  H   UNL     1      -9.685  12.608  68.678  1.00  0.00     0.000 HD 
BRANCH  29  31
HETATM   31  C   UNL     1     -11.400  14.462  69.212  1.00  0.00    -0.284 A  
HETATM   32  N   UNL     1     -12.605  14.993  69.373  1.00  0.00    -0.020 NA 
HETATM   33  C   UNL     1     -14.134  15.657  71.279  1.00  0.00    -0.141 C  
HETATM   34  C   UNL     1     -14.073  13.646  73.627  1.00  0.00     4.564 C  
HETATM   35  C   UNL     1     -12.864  15.092  70.734  1.00  0.00    -0.416 A  
HETATM   36  C   UNL     1     -13.987  15.941  72.795  1.00  0.00    -0.391 C  
HETATM   37  C   UNL     1     -11.880  14.611  71.566  1.00  0.00    -0.280 A  
HETATM   38  N   UNL     1     -13.299  14.886  73.580  1.00  0.00    -0.395 NA 
HETATM   39  C   UNL     1     -11.927  14.649  73.067  1.00  0.00    -0.022 C  
HETATM   40  S   UNL     1     -10.571  14.026  70.666  1.00  0.00     1.952 SA 
ENDBRANCH  29  31
ENDBRANCH  10  27
ENDBRANCH   4   6
TORSDOF 6
ENDMDL
MODEL       90
REMARK 921   NORMALIZED FREE ENERGY PREDICTED BY IDOCK:   37.56 KCAL/MOL
REMARK 922        TOTAL FREE ENERGY PREDICTED BY IDOCK:   49.82 KCAL/MOL
REMARK 923 INTER-LIGAND FREE ENERGY PREDICTED BY IDOCK:   49.53 KCAL/MOL
REMARK 924 INTRA-LIGAND FREE ENERGY PREDICTED BY IDOCK:    0.30 KCAL/MOL
REMARK 927      BINDING AFFINITY PREDICTED BY RF-SCORE:    0.00 PKD
ROOT
HETATM    1  C   UNL     1      -9.266   5.360  73.088  1.00  0.00    -0.132 C  
HETATM    2  N   UNL     1      -8.698   6.169  72.017  1.00  0.00    -0.135 N  
HETATM    3  C   UNL     1      -8.042   5.451  70.938  1.00  0.00    -0.112 C  
HETATM    4  C   UNL     1      -8.995   7.526  72.048  1.00  0.00    -0.125 C  
HETATM    5  O   UNL     1      -9.669   7.976  72.982  1.00  0.00    -0.259 OA 
ENDROOT
BRANCH   4   6
HETATM    6  C   UNL     1      -8.435   8.502  70.983  1.00  0.00    -0.185 C  
HETATM    7  C   UNL     1      -8.811   8.205  69.532  1.00  0.00    -0.143 C  
HETATM    8  C   UNL     1     -10.298   8.396  69.255  1.00  0.00    -0.220 C  
HETATM    9  C   UNL     1     -10.812   9.799  69.615  1.00  0.00    -0.250 C  
HETATM   10  C   UNL     1     -10.359  10.235  71.038  1.00  0.00     0.813 C  
HETATM   11  C   UNL     1      -8.858   9.970  71.294  1.00  0.00     1.867 C  
BRANCH   9  12
HETATM   12  N   UNL     1     -10.445  10.766  68.589  1.00  0.00    -0.181 N  
HETATM   13  O   UNL     1     -11.855  12.475  69.316  1.00  0.00    -0.304 OA 
HETATM   14  H   UNL     1      -9.788  10.495  67.858  1.00  0.00     0.000 HD 
HETATM   15  C   UNL     1     -10.970  12.043  68.587  1.00  0.00    -0.240 C  
BRANCH  15  16
HETATM   16  C   UNL     1     -10.296  12.986  67.586  1.00  0.00    -0.222 C  
HETATM   17  O   UNL     1      -9.523  12.494  66.780  1.00  0.00    -0.218 OA 
HETATM   18  N   UNL     1     -10.629  14.301  67.816  1.00  0.00    -0.251 N  
HETATM   19  H   UNL     1     -11.326  14.503  68.533  1.00  0.00     0.000 HD 
BRANCH  18  20
HETATM   20  C   UNL     1     -10.071  15.371  67.124  1.00  0.00    -0.245 A  
HETATM   21  C   UNL     1      -9.886  16.638  65.094  1.00  0.00     0.661 A  
HETATM   22 CL   UNL     1      -8.636  19.038  65.032  1.00  0.00     2.146 Cl 
HETATM   23  C   UNL     1     -10.336  15.496  65.763  1.00  0.00    -0.384 A  
HETATM   24  C   UNL     1      -8.893  17.361  67.129  1.00  0.00    -0.232 A  
HETATM   25  N   UNL     1      -9.336  16.274  67.797  1.00  0.00    -0.215 NA 
HETATM   26  C   UNL     1      -9.161  17.595  65.795  1.00  0.00     0.292 A  
ENDBRANCH  18  20
ENDBRANCH  15  16
ENDBRANCH   9  12
BRANCH  10  27
HETATM   27  N   UNL     1     -10.746  11.620  71.343  1.00  0.00     3.890 N  
HETATM   28  O   UNL     1     -11.865  11.002  73.230  1.00  0.00     5.982 OA 
HETATM   29  C   UNL     1     -11.467  11.910  72.500  1.00  0.00     7.052 C  
HETATM   30  H   UNL     1     -10.487  12.373  70.705  1.00  0.00     0.000 HD 
BRANCH  29  31
HETATM   31  C   UNL     1     -11.689  13.329  72.779  1.00  0.00     3.638 A  
HETATM   32  N   UNL     1     -10.729  14.230  72.934  1.00  0.00     3.247 NA 
HETATM   33  C   UNL     1     -10.524  16.689  73.500  1.00  0.00     6.269 C  
HETATM   34  C   UNL     1     -12.726  18.415  72.182  1.00  0.00    13.022 C  
HETATM   35  C   UNL     1     -11.315  15.450  73.249  1.00  0.00     0.384 A  
HETATM   36  C   UNL     1     -11.421  17.776  74.146  1.00  0.00     0.913 C  
HETATM   37  C   UNL     1     -12.690  15.457  73.293  1.00  0.00    -0.508 A  
HETATM   38  N   UNL     1     -12.776  17.919  73.557  1.00  0.00     2.995 NA 
HETATM   39  C   UNL     1     -13.534  16.647  73.648  1.00  0.00     0.681 C  
HETATM   40  S   UNL     1     -13.306  13.916  72.956  1.00  0.00     0.235 SA 
ENDBRANCH  29  31
ENDBRANCH  10  27
ENDBRANCH   4   6
TORSDOF 6
ENDMDL
MODEL       91
REMARK 921   NORMALIZED FREE ENERGY PREDICTED BY IDOCK:   41.19 KCAL/MOL
REMARK 922        TOTAL FREE ENERGY PREDICTED BY IDOCK:   54.73 KCAL/MOL
REMARK 923 INTER-LIGAND FREE ENERGY PREDICTED BY IDOCK:   52.07 KCAL/MOL
REMARK 924 INTRA-LIGAND FREE ENERGY PREDICTED BY IDOCK:    2.66 KCAL/MOL
REMARK 927      BINDING AFFINITY PREDICTED BY RF-SCORE:    0.00 PKD
ROOT
HETATM    1  C   UNL     1      -8.773  18.053  69.548  1.00  0.00     0.715 C  
HETATM    2  N   UNL     1      -8.258  16.698  69.704  1.00  0.00     0.346 N  
HETATM    3  C   UNL     1      -7.861  16.010  68.488  1.00  0.00    -0.160 C  
HETATM    4  C   UNL     1      -8.034  16.272  71.008  1.00  0.00     4.543 C  
HETATM    5  O   UNL     1      -8.319  17.024  71.946  1.00  0.00    10.354 OA 
ENDROOT
BRANCH   4   6
HETATM    6  C   UNL     1      -7.511  14.847  71.315  1.00  0.00     2.233 C  
HETATM    7  C   UNL     1      -8.215  14.098  72.447  1.00  0.00     8.391 C  
HETATM    8  C   UNL     1      -9.658  13.741  72.109  1.00  0.00    10.677 C  
HETATM    9  C   UNL     1      -9.801  12.921  70.818  1.00  0.00     6.820 C  
HETATM   10  C   UNL     1      -8.999  13.548  69.642  1.00  0.00     1.618 C  
HETATM   11  C   UNL     1      -7.561  13.947  70.045  1.00  0.00     0.950 C  
BRANCH   9  12
HETATM   12  N   UNL     1      -9.456  11.524  71.049  1.00  0.00     6.024 N  
HETATM   13  O   UNL     1     -11.510  10.631  70.403  1.00  0.00    -0.306 OA 
HETATM   14  H   UNL     1      -8.542  11.291  71.437  1.00  0.00     0.000 HD 
HETATM   15  C   UNL     1     -10.343  10.508  70.753  1.00  0.00     0.921 C  
BRANCH  15  16
HETATM   16  C   UNL     1      -9.728   9.108  70.834  1.00  0.00    -0.284 C  
HETATM   17  O   UNL     1      -9.117   8.703  69.858  1.00  0.00    -0.145 OA 
HETATM   18  N   UNL     1     -10.040   8.478  72.017  1.00  0.00    -0.287 N  
HETATM   19  H   UNL     1     -10.547   9.009  72.725  1.00  0.00     0.000 HD 
BRANCH  18  20
HETATM   20  C   UNL     1      -9.702   7.159  72.301  1.00  0.00    -0.153 A  
HETATM   21  C   UNL     1      -8.056   5.563  73.012  1.00  0.00    -0.111 A  
HETATM   22 CL   UNL     1      -8.730   3.017  73.635  1.00  0.00    -0.073 Cl 
HETATM   23  C   UNL     1      -8.375   6.859  72.598  1.00  0.00    -0.117 A  
HETATM   24  C   UNL     1     -10.339   4.974  72.710  1.00  0.00    -0.195 A  
HETATM   25  N   UNL     1     -10.670   6.226  72.327  1.00  0.00    -0.220 NA 
HETATM   26  C   UNL     1      -9.061   4.605  73.081  1.00  0.00    -0.116 A  
ENDBRANCH  18  20
ENDBRANCH  15  16
ENDBRANCH   9  12
BRANCH  10  27
HETATM   27  N   UNL     1      -9.033  12.707  68.436  1.00  0.00    -0.320 N  
HETATM   28  O   UNL     1      -8.755  14.496  67.052  1.00  0.00    -0.219 OA 
HETATM   29  C   UNL     1      -8.853  13.275  67.177  1.00  0.00    -0.222 C  
HETATM   30  H   UNL     1      -9.190  11.703  68.522  1.00  0.00     0.000 HD 
BRANCH  29  31
HETATM   31  C   UNL     1      -8.774  12.339  66.055  1.00  0.00     0.244 A  
HETATM   32  N   UNL     1      -7.682  11.675  65.698  1.00  0.00     0.576 NA 
HETATM   33  C   UNL     1      -6.961  10.073  63.875  1.00  0.00    -0.124 C  
HETATM   34  C   UNL     1      -9.151   8.014  63.147  1.00  0.00     1.284 C  
HETATM   35  C   UNL     1      -7.969  10.936  64.557  1.00  0.00     0.311 A  
HETATM   36  C   UNL     1      -7.474   9.657  62.472  1.00  0.00    -0.110 C  
HETATM   37  C   UNL     1      -9.263  11.026  64.098  1.00  0.00    -0.151 A  
HETATM   38  N   UNL     1      -8.900   9.251  62.407  1.00  0.00    -0.241 NA 
HETATM   39  C   UNL     1      -9.788  10.348  62.866  1.00  0.00    -0.106 C  
HETATM   40  S   UNL     1     -10.173  12.065  65.077  1.00  0.00    -0.280 SA 
ENDBRANCH  29  31
ENDBRANCH  10  27
ENDBRANCH   4   6
TORSDOF 6
ENDMDL
MODEL       92
REMARK 921   NORMALIZED FREE ENERGY PREDICTED BY IDOCK:   41.57 KCAL/MOL
REMARK 922        TOTAL FREE ENERGY PREDICTED BY IDOCK:   55.23 KCAL/MOL
REMARK 923 INTER-LIGAND FREE ENERGY PREDICTED BY IDOCK:   52.74 KCAL/MOL
REMARK 924 INTRA-LIGAND FREE ENERGY PREDICTED BY IDOCK:    2.49 KCAL/MOL
REMARK 927      BINDING AFFINITY PREDICTED BY RF-SCORE:    0.00 PKD
ROOT
HETATM    1  C   UNL     1      -8.773  18.053  69.548  1.00  0.00     0.715 C  
HETATM    2  N   UNL     1      -8.258  16.698  69.704  1.00  0.00     0.346 N  
HETATM    3  C   UNL     1      -7.861  16.010  68.488  1.00  0.00    -0.160 C  
HETATM    4  C   UNL     1      -8.034  16.272  71.008  1.00  0.00     4.543 C  
HETATM    5  O   UNL     1      -8.319  17.024  71.946  1.00  0.00    10.354 OA 
ENDROOT
BRANCH   4   6
HETATM    6  C   UNL     1      -7.511  14.847  71.315  1.00  0.00     2.233 C  
HETATM    7  C   UNL     1      -8.215  14.098  72.447  1.00  0.00     8.391 C  
HETATM    8  C   UNL     1      -9.658  13.741  72.109  1.00  0.00    10.677 C  
HETATM    9  C   UNL     1      -9.801  12.921  70.818  1.00  0.00     6.820 C  
HETATM   10  C   UNL     1      -8.999  13.548  69.642  1.00  0.00     1.618 C  
HETATM   11  C   UNL     1      -7.561  13.947  70.045  1.00  0.00     0.950 C  
BRANCH   9  12
HETATM   12  N   UNL     1      -9.456  11.524  71.049  1.00  0.00     6.024 N  
HETATM   13  O   UNL     1     -11.510  10.631  70.403  1.00  0.00    -0.306 OA 
HETATM   14  H   UNL     1      -8.542  11.291  71.437  1.00  0.00     0.000 HD 
HETATM   15  C   UNL     1     -10.343  10.508  70.753  1.00  0.00     0.921 C  
BRANCH  15  16
HETATM   16  C   UNL     1      -9.728   9.108  70.834  1.00  0.00    -0.284 C  
HETATM   17  O   UNL     1     -10.149   8.356  71.699  1.00  0.00    -0.199 OA 
HETATM   18  N   UNL     1      -8.706   8.943  69.927  1.00  0.00    -0.132 N  
HETATM   19  H   UNL     1      -8.526   9.696  69.264  1.00  0.00     0.000 HD 
BRANCH  18  20
HETATM   20  C   UNL     1      -7.905   7.807  69.866  1.00  0.00    -0.105 A  
HETATM   21  C   UNL     1      -7.707   5.448  69.470  1.00  0.00    -0.077 A  
HETATM   22 CL   UNL     1      -5.292   4.251  69.231  1.00  0.00    -0.011 Cl 
HETATM   23  C   UNL     1      -8.516   6.572  69.664  1.00  0.00    -0.131 A  
HETATM   24  C   UNL     1      -5.807   6.840  69.783  1.00  0.00    -0.019 A  
HETATM   25  N   UNL     1      -6.571   7.941  69.953  1.00  0.00    -0.037 NA 
HETATM   26  C   UNL     1      -6.325   5.588  69.518  1.00  0.00    -0.033 A  
ENDBRANCH  18  20
ENDBRANCH  15  16
ENDBRANCH   9  12
BRANCH  10  27
HETATM   27  N   UNL     1      -9.033  12.707  68.436  1.00  0.00    -0.320 N  
HETATM   28  O   UNL     1      -8.755  14.496  67.052  1.00  0.00    -0.219 OA 
HETATM   29  C   UNL     1      -8.853  13.275  67.177  1.00  0.00    -0.222 C  
HETATM   30  H   UNL     1      -9.190  11.703  68.522  1.00  0.00     0.000 HD 
BRANCH  29  31
HETATM   31  C   UNL     1      -8.774  12.339  66.055  1.00  0.00     0.244 A  
HETATM   32  N   UNL     1      -7.682  11.675  65.698  1.00  0.00     0.576 NA 
HETATM   33  C   UNL     1      -6.961  10.074  63.874  1.00  0.00    -0.124 C  
HETATM   34  C   UNL     1      -9.150   8.014  63.147  1.00  0.00     1.284 C  
HETATM   35  C   UNL     1      -7.969  10.936  64.557  1.00  0.00     0.311 A  
HETATM   36  C   UNL     1      -7.474   9.658  62.472  1.00  0.00    -0.110 C  
HETATM   37  C   UNL     1      -9.263  11.026  64.098  1.00  0.00    -0.151 A  
HETATM   38  N   UNL     1      -8.900   9.250  62.407  1.00  0.00    -0.241 NA 
HETATM   39  C   UNL     1      -9.788  10.347  62.866  1.00  0.00    -0.106 C  
HETATM   40  S   UNL     1     -10.173  12.064  65.078  1.00  0.00    -0.280 SA 
ENDBRANCH  29  31
ENDBRANCH  10  27
ENDBRANCH   4   6
TORSDOF 6
ENDMDL
MODEL       93
REMARK 921   NORMALIZED FREE ENERGY PREDICTED BY IDOCK:   43.21 KCAL/MOL
REMARK 922        TOTAL FREE ENERGY PREDICTED BY IDOCK:   57.44 KCAL/MOL
REMARK 923 INTER-LIGAND FREE ENERGY PREDICTED BY IDOCK:   55.60 KCAL/MOL
REMARK 924 INTRA-LIGAND FREE ENERGY PREDICTED BY IDOCK:    1.84 KCAL/MOL
REMARK 927      BINDING AFFINITY PREDICTED BY RF-SCORE:    0.00 PKD
ROOT
HETATM    1  C   UNL     1     -13.775  21.249  64.393  1.00  0.00    14.673 C  
HETATM    2  N   UNL     1     -12.700  20.909  65.317  1.00  0.00     6.549 N  
HETATM    3  C   UNL     1     -13.053  20.831  66.724  1.00  0.00     6.720 C  
HETATM    4  C   UNL     1     -11.495  20.523  64.742  1.00  0.00     2.055 C  
HETATM    5  O   UNL     1     -11.382  20.532  63.511  1.00  0.00     3.284 OA 
ENDROOT
BRANCH   4   6
HETATM    6  C   UNL     1     -10.264  20.159  65.610  1.00  0.00    -0.294 C  
HETATM    7  C   UNL     1     -10.415  20.369  67.117  1.00  0.00    -0.192 C  
HETATM    8  C   UNL     1     -11.426  19.417  67.747  1.00  0.00     0.741 C  
HETATM    9  C   UNL     1     -11.115  17.935  67.489  1.00  0.00     0.094 C  
HETATM   10  C   UNL     1     -10.818  17.658  65.987  1.00  0.00     0.037 C  
HETATM   11  C   UNL     1      -9.833  18.680  65.376  1.00  0.00     0.982 C  
BRANCH   9  12
HETATM   12  N   UNL     1     -10.051  17.466  68.367  1.00  0.00    -0.325 N  
HETATM   13  O   UNL     1     -11.115  15.508  69.054  1.00  0.00    -0.235 OA 
HETATM   14  H   UNL     1      -9.223  18.045  68.503  1.00  0.00     0.000 HD 
HETATM   15  C   UNL     1     -10.142  16.252  69.018  1.00  0.00    -0.259 C  
BRANCH  15  16
HETATM   16  C   UNL     1      -8.841  15.818  69.700  1.00  0.00    -0.062 C  
HETATM   17  O   UNL     1      -7.804  15.941  69.067  1.00  0.00    -0.186 OA 
HETATM   18  N   UNL     1      -9.070  15.268  70.940  1.00  0.00     1.133 N  
HETATM   19  H   UNL     1     -10.023  15.283  71.304  1.00  0.00     0.000 HD 
BRANCH  18  20
HETATM   20  C   UNL     1      -8.076  14.692  71.725  1.00  0.00     4.926 A  
HETATM   21  C   UNL     1      -7.156  14.275  73.902  1.00  0.00     3.788 A  
HETATM   22 CL   UNL     1      -5.157  12.491  74.276  1.00  0.00     0.054 Cl 
HETATM   23  C   UNL     1      -8.071  14.954  73.092  1.00  0.00     8.409 A  
HETATM   24  C   UNL     1      -6.295  13.234  71.947  1.00  0.00     2.053 A  
HETATM   25  N   UNL     1      -7.185  13.866  71.151  1.00  0.00     1.745 NA 
HETATM   26  C   UNL     1      -6.259  13.388  73.319  1.00  0.00     1.896 A  
ENDBRANCH  18  20
ENDBRANCH  15  16
ENDBRANCH   9  12
BRANCH  10  27
HETATM   27  N   UNL     1     -10.405  16.267  65.751  1.00  0.00    -0.364 N  
HETATM   28  O   UNL     1     -12.554  15.567  65.461  1.00  0.00     0.788 OA 
HETATM   29  C   UNL     1     -11.354  15.294  65.446  1.00  0.00    -0.253 C  
HETATM   30  H   UNL     1      -9.419  16.012  65.810  1.00  0.00     0.000 HD 
BRANCH  29  31
HETATM   31  C   UNL     1     -10.831  13.972  65.100  1.00  0.00    -0.369 A  
HETATM   32  N   UNL     1     -10.431  13.609  63.888  1.00  0.00     0.043 NA 
HETATM   33  C   UNL     1      -9.567  11.528  62.732  1.00  0.00    -0.212 C  
HETATM   34  C   UNL     1      -7.622   9.893  64.494  1.00  0.00    -0.139 C  
HETATM   35  C   UNL     1     -10.061  12.270  63.929  1.00  0.00    -0.347 A  
HETATM   36  C   UNL     1      -9.561  10.004  63.012  1.00  0.00    -0.056 C  
HETATM   37  C   UNL     1     -10.154  11.663  65.160  1.00  0.00    -0.262 A  
HETATM   38  N   UNL     1      -9.047   9.601  64.345  1.00  0.00    -0.243 NA 
HETATM   39  C   UNL     1      -9.844  10.219  65.433  1.00  0.00    -0.296 C  
HETATM   40  S   UNL     1     -10.731  12.752  66.321  1.00  0.00    -0.274 SA 
ENDBRANCH  29  31
ENDBRANCH  10  27
ENDBRANCH   4   6
TORSDOF 6
ENDMDL
MODEL       94
REMARK 921   NORMALIZED FREE ENERGY PREDICTED BY IDOCK:   47.08 KCAL/MOL
REMARK 922        TOTAL FREE ENERGY PREDICTED BY IDOCK:   62.68 KCAL/MOL
REMARK 923 INTER-LIGAND FREE ENERGY PREDICTED BY IDOCK:   57.92 KCAL/MOL
REMARK 924 INTRA-LIGAND FREE ENERGY PREDICTED BY IDOCK:    4.76 KCAL/MOL
REMARK 927      BINDING AFFINITY PREDICTED BY RF-SCORE:    0.00 PKD
ROOT
HETATM    1  C   UNL     1      -5.466   6.767  69.905  1.00  0.00    -0.015 C  
HETATM    2  N   UNL     1      -5.995   7.825  69.053  1.00  0.00    -0.033 N  
HETATM    3  C   UNL     1      -5.699   9.190  69.452  1.00  0.00    -0.035 C  
HETATM    4  C   UNL     1      -6.574   7.418  67.857  1.00  0.00    -0.054 C  
HETATM    5  O   UNL     1      -6.652   6.211  67.603  1.00  0.00    -0.051 OA 
ENDROOT
BRANCH   4   6
HETATM    6  C   UNL     1      -7.196   8.438  66.870  1.00  0.00    -0.079 C  
HETATM    7  C   UNL     1      -8.599   8.112  66.357  1.00  0.00    -0.150 C  
HETATM    8  C   UNL     1      -9.658   8.180  67.451  1.00  0.00    -0.204 C  
HETATM    9  C   UNL     1      -9.706   9.535  68.174  1.00  0.00    -0.147 C  
HETATM   10  C   UNL     1      -8.290  10.006  68.616  1.00  0.00    -0.116 C  
HETATM   11  C   UNL     1      -7.237   9.865  67.494  1.00  0.00    -0.089 C  
BRANCH   9  12
HETATM   12  N   UNL     1     -10.401  10.530  67.369  1.00  0.00    -0.210 N  
HETATM   13  O   UNL     1     -11.876   9.052  66.331  1.00  0.00     3.480 OA 
HETATM   14  H   UNL     1     -10.093  11.502  67.399  1.00  0.00     0.000 HD 
HETATM   15  C   UNL     1     -11.470  10.184  66.567  1.00  0.00     1.213 C  
BRANCH  15  16
HETATM   16  C   UNL     1     -12.221  11.386  65.986  1.00  0.00     1.711 C  
HETATM   17  O   UNL     1     -13.440  11.329  65.958  1.00  0.00     6.612 OA 
HETATM   18  N   UNL     1     -11.360  12.343  65.501  1.00  0.00    -0.332 N  
HETATM   19  H   UNL     1     -10.360  12.210  65.649  1.00  0.00     0.000 HD 
BRANCH  18  20
HETATM   20  C   UNL     1     -11.777  13.483  64.821  1.00  0.00    -0.370 A  
HETATM   21  C   UNL     1     -11.568  15.844  64.439  1.00  0.00    -0.234 A  
HETATM   22 CL   UNL     1     -12.789  17.053  62.349  1.00  0.00    14.226 Cl 
HETATM   23  C   UNL     1     -11.253  14.716  65.203  1.00  0.00    -0.374 A  
HETATM   24  C   UNL     1     -12.940  14.460  63.078  1.00  0.00     2.600 A  
HETATM   25  N   UNL     1     -12.631  13.356  63.792  1.00  0.00    -0.708 NA 
HETATM   26  C   UNL     1     -12.418  15.710  63.348  1.00  0.00     1.868 A  
ENDBRANCH  18  20
ENDBRANCH  15  16
ENDBRANCH   9  12
BRANCH  10  27
HETATM   27  N   UNL     1      -8.312  11.354  69.204  1.00  0.00    -0.377 N  
HETATM   28  O   UNL     1      -9.385  12.238  67.398  1.00  0.00    -0.175 OA 
HETATM   29  C   UNL     1      -8.931  12.405  68.530  1.00  0.00    -0.058 C  
HETATM   30  H   UNL     1      -7.872  11.521  70.109  1.00  0.00     0.000 HD 
BRANCH  29  31
HETATM   31  C   UNL     1      -9.014  13.672  69.255  1.00  0.00     0.687 A  
HETATM   32  N   UNL     1      -8.253  14.733  69.017  1.00  0.00    -0.158 NA 
HETATM   33  C   UNL     1      -7.899  17.052  69.969  1.00  0.00     1.628 C  
HETATM   34  C   UNL     1     -10.538  18.417  70.826  1.00  0.00     2.413 C  
HETATM   35  C   UNL     1      -8.572  15.720  69.941  1.00  0.00     0.317 A  
HETATM   36  C   UNL     1      -8.224  17.788  71.294  1.00  0.00     8.569 C  
HETATM   37  C   UNL     1      -9.576  15.407  70.827  1.00  0.00     1.298 A  
HETATM   38  N   UNL     1      -9.638  17.711  71.738  1.00  0.00     7.801 NA 
HETATM   39  C   UNL     1     -10.060  16.301  71.932  1.00  0.00     4.087 C  
HETATM   40  S   UNL     1     -10.153  13.840  70.545  1.00  0.00     3.379 SA 
ENDBRANCH  29  31
ENDBRANCH  10  27
ENDBRANCH   4   6
TORSDOF 6
ENDMDL
MODEL       95
REMARK 921   NORMALIZED FREE ENERGY PREDICTED BY IDOCK:   49.09 KCAL/MOL
REMARK 922        TOTAL FREE ENERGY PREDICTED BY IDOCK:   65.40 KCAL/MOL
REMARK 923 INTER-LIGAND FREE ENERGY PREDICTED BY IDOCK:   59.78 KCAL/MOL
REMARK 924 INTRA-LIGAND FREE ENERGY PREDICTED BY IDOCK:    5.61 KCAL/MOL
REMARK 927      BINDING AFFINITY PREDICTED BY RF-SCORE:    0.00 PKD
ROOT
HETATM    1  C   UNL     1      -8.811  18.001  69.555  1.00  0.00     0.690 C  
HETATM    2  N   UNL     1      -8.808  16.544  69.613  1.00  0.00     0.258 N  
HETATM    3  C   UNL     1      -8.713  15.844  68.343  1.00  0.00    -0.183 C  
HETATM    4  C   UNL     1      -8.717  15.979  70.879  1.00  0.00     3.482 C  
HETATM    5  O   UNL     1      -8.691  16.718  71.870  1.00  0.00     9.402 OA 
ENDROOT
BRANCH   4   6
HETATM    6  C   UNL     1      -8.727  14.444  71.083  1.00  0.00     4.378 C  
HETATM    7  C   UNL     1      -9.494  13.930  72.302  1.00  0.00    10.365 C  
HETATM    8  C   UNL     1     -10.998  14.153  72.189  1.00  0.00     2.821 C  
HETATM    9  C   UNL     1     -11.617  13.535  70.927  1.00  0.00     0.519 C  
HETATM   10  C   UNL     1     -10.812  13.903  69.647  1.00  0.00     0.079 C  
HETATM   11  C   UNL     1      -9.288  13.716  69.825  1.00  0.00     1.693 C  
BRANCH   9  12
HETATM   12  N   UNL     1     -11.791  12.097  71.084  1.00  0.00     0.007 N  
HETATM   13  O   UNL     1     -12.108  11.617  68.824  1.00  0.00    -0.402 OA 
HETATM   14  H   UNL     1     -11.789  11.691  72.019  1.00  0.00     0.000 HD 
HETATM   15  C   UNL     1     -11.960  11.271  69.990  1.00  0.00    -0.368 C  
BRANCH  15  16
HETATM   16  C   UNL     1     -11.888   9.778  70.326  1.00  0.00    -0.144 C  
HETATM   17  O   UNL     1     -12.821   9.294  70.946  1.00  0.00    -0.192 OA 
HETATM   18  N   UNL     1     -10.699   9.218  69.920  1.00  0.00    -0.227 N  
HETATM   19  H   UNL     1     -10.052   9.797  69.384  1.00  0.00     0.000 HD 
BRANCH  18  20
HETATM   20  C   UNL     1     -10.328   7.906  70.200  1.00  0.00    -0.215 A  
HETATM   21  C   UNL     1     -10.010   6.158  71.813  1.00  0.00    -0.197 A  
HETATM   22 CL   UNL     1      -9.573   3.597  71.056  1.00  0.00    -0.238 Cl 
HETATM   23  C   UNL     1     -10.253   7.505  71.532  1.00  0.00    -0.208 A  
HETATM   24  C   UNL     1      -9.851   5.764  69.475  1.00  0.00    -0.178 A  
HETATM   25  N   UNL     1     -10.103   7.058  69.183  1.00  0.00    -0.175 NA 
HETATM   26  C   UNL     1      -9.818   5.268  70.763  1.00  0.00    -0.196 A  
ENDBRANCH  18  20
ENDBRANCH  15  16
ENDBRANCH   9  12
BRANCH  10  27
HETATM   27  N   UNL     1     -11.328  13.221  68.451  1.00  0.00    -0.271 N  
HETATM   28  O   UNL     1     -10.558  14.851  67.058  1.00  0.00    -0.278 OA 
HETATM   29  C   UNL     1     -11.106  13.757  67.185  1.00  0.00    -0.302 C  
HETATM   30  H   UNL     1     -11.851  12.350  68.549  1.00  0.00     0.000 HD 
BRANCH  29  31
HETATM   31  C   UNL     1     -11.544  12.937  66.055  1.00  0.00    -0.375 A  
HETATM   32  N   UNL     1     -10.990  11.787  65.693  1.00  0.00    -0.300 NA 
HETATM   33  C   UNL     1     -11.250  10.064  63.856  1.00  0.00     4.063 C  
HETATM   34  C   UNL     1     -14.204   9.540  63.107  1.00  0.00    14.083 C  
HETATM   35  C   UNL     1     -11.628  11.333  64.545  1.00  0.00     0.181 A  
HETATM   36  C   UNL     1     -11.898  10.006  62.449  1.00  0.00     5.899 C  
HETATM   37  C   UNL     1     -12.659  12.117  64.085  1.00  0.00    -0.365 A  
HETATM   38  N   UNL     1     -13.314  10.444  62.379  1.00  0.00     5.273 NA 
HETATM   39  C   UNL     1     -13.462  11.845  62.846  1.00  0.00     1.568 C  
HETATM   40  S   UNL     1     -12.861  13.478  65.073  1.00  0.00    -0.165 SA 
ENDBRANCH  29  31
ENDBRANCH  10  27
ENDBRANCH   4   6
TORSDOF 6
ENDMDL
MODEL       96
REMARK 921   NORMALIZED FREE ENERGY PREDICTED BY IDOCK:   52.81 KCAL/MOL
REMARK 922        TOTAL FREE ENERGY PREDICTED BY IDOCK:   70.42 KCAL/MOL
REMARK 923 INTER-LIGAND FREE ENERGY PREDICTED BY IDOCK:   52.72 KCAL/MOL
REMARK 924 INTRA-LIGAND FREE ENERGY PREDICTED BY IDOCK:   17.70 KCAL/MOL
REMARK 927      BINDING AFFINITY PREDICTED BY RF-SCORE:    0.00 PKD
ROOT
HETATM    1  C   UNL     1      -5.129   5.987  73.391  1.00  0.00    -0.023 C  
HETATM    2  N   UNL     1      -5.929   7.122  72.949  1.00  0.00    -0.048 N  
HETATM    3  C   UNL     1      -5.281   8.063  72.052  1.00  0.00    -0.035 C  
HETATM    4  C   UNL     1      -7.277   7.094  73.286  1.00  0.00    -0.072 C  
HETATM    5  O   UNL     1      -7.710   6.156  73.966  1.00  0.00    -0.090 OA 
ENDROOT
BRANCH   4   6
HETATM    6  C   UNL     1      -8.233   8.249  72.898  1.00  0.00    -0.227 C  
HETATM    7  C   UNL     1      -7.633   9.655  72.907  1.00  0.00     2.373 C  
HETATM    8  C   UNL     1      -6.583   9.855  71.820  1.00  0.00     0.669 C  
HETATM    9  C   UNL     1      -7.101   9.555  70.406  1.00  0.00    -0.120 C  
HETATM   10  C   UNL     1      -7.847   8.192  70.339  1.00  0.00    -0.090 C  
HETATM   11  C   UNL     1      -8.859   8.008  71.492  1.00  0.00    -0.178 C  
BRANCH   9  12
HETATM   12  N   UNL     1      -7.906  10.660  69.902  1.00  0.00    -0.356 N  
HETATM   13  O   UNL     1      -6.811  10.878  67.855  1.00  0.00    -0.067 OA 
HETATM   14  H   UNL     1      -8.629  11.064  70.496  1.00  0.00     0.000 HD 
HETATM   15  C   UNL     1      -7.710  11.170  68.634  1.00  0.00    -0.135 C  
BRANCH  15  16
HETATM   16  C   UNL     1      -8.795  12.156  68.190  1.00  0.00    -0.187 C  
HETATM   17  O   UNL     1      -9.742  12.328  68.941  1.00  0.00    -0.036 OA 
HETATM   18  N   UNL     1      -8.553  12.654  66.931  1.00  0.00    -0.322 N  
HETATM   19  H   UNL     1      -7.676  12.402  66.475  1.00  0.00     0.000 HD 
BRANCH  18  20
HETATM   20  C   UNL     1      -9.436  13.481  66.244  1.00  0.00    -0.184 A  
HETATM   21  C   UNL     1     -11.676  14.278  65.917  1.00  0.00    -0.375 A  
HETATM   22 CL   UNL     1     -12.199  16.434  64.367  1.00  0.00     0.620 Cl 
HETATM   23  C   UNL     1     -10.799  13.362  66.505  1.00  0.00    -0.286 A  
HETATM   24  C   UNL     1      -9.812  15.261  64.818  1.00  0.00     0.477 A  
HETATM   25  N   UNL     1      -8.947  14.397  65.392  1.00  0.00     1.008 NA 
HETATM   26  C   UNL     1     -11.170  15.255  65.067  1.00  0.00    -0.403 A  
ENDBRANCH  18  20
ENDBRANCH  15  16
ENDBRANCH   9  12
BRANCH  10  27
HETATM   27  N   UNL     1      -8.447   7.952  69.018  1.00  0.00    -0.130 N  
HETATM   28  O   UNL     1      -8.809  10.173  68.662  1.00  0.00    -0.125 OA 
HETATM   29  C   UNL     1      -8.858   9.023  68.227  1.00  0.00    -0.134 C  
HETATM   30  H   UNL     1      -8.563   6.997  68.679  1.00  0.00     0.000 HD 
BRANCH  29  31
HETATM   31  C   UNL     1      -9.320   8.686  66.881  1.00  0.00    -0.170 A  
HETATM   32  N   UNL     1      -8.574   8.116  65.944  1.00  0.00    -0.144 NA 
HETATM   33  C   UNL     1      -8.796   7.421  63.519  1.00  0.00     0.969 C  
HETATM   34  C   UNL     1     -11.565   6.212  62.863  1.00  0.00     8.802 C  
HETATM   35  C   UNL     1      -9.329   8.011  64.782  1.00  0.00     1.193 A  
HETATM   36  C   UNL     1      -9.741   7.749  62.335  1.00  0.00     3.102 C  
HETATM   37  C   UNL     1     -10.624   8.465  64.869  1.00  0.00     5.469 A  
HETATM   38  N   UNL     1     -11.191   7.604  62.615  1.00  0.00    12.972 NA 
HETATM   39  C   UNL     1     -11.607   8.485  63.735  1.00  0.00    17.676 C  
HETATM   40  S   UNL     1     -10.943   9.064  66.420  1.00  0.00     1.322 SA 
ENDBRANCH  29  31
ENDBRANCH  10  27
ENDBRANCH   4   6
TORSDOF 6
ENDMDL
MODEL       97
REMARK 921   NORMALIZED FREE ENERGY PREDICTED BY IDOCK:   59.28 KCAL/MOL
REMARK 922        TOTAL FREE ENERGY PREDICTED BY IDOCK:   79.15 KCAL/MOL
REMARK 923 INTER-LIGAND FREE ENERGY PREDICTED BY IDOCK:   73.78 KCAL/MOL
REMARK 924 INTRA-LIGAND FREE ENERGY PREDICTED BY IDOCK:    5.38 KCAL/MOL
REMARK 927      BINDING AFFINITY PREDICTED BY RF-SCORE:    0.00 PKD
ROOT
HETATM    1  C   UNL     1      -5.129   5.987  73.391  1.00  0.00    -0.023 C  
HETATM    2  N   UNL     1      -5.929   7.122  72.949  1.00  0.00    -0.048 N  
HETATM    3  C   UNL     1      -5.281   8.063  72.052  1.00  0.00    -0.035 C  
HETATM    4  C   UNL     1      -7.277   7.094  73.286  1.00  0.00    -0.072 C  
HETATM    5  O   UNL     1      -7.710   6.156  73.966  1.00  0.00    -0.090 OA 
ENDROOT
BRANCH   4   6
HETATM    6  C   UNL     1      -8.233   8.249  72.898  1.00  0.00    -0.227 C  
HETATM    7  C   UNL     1      -7.633   9.655  72.907  1.00  0.00     2.373 C  
HETATM    8  C   UNL     1      -6.583   9.855  71.820  1.00  0.00     0.669 C  
HETATM    9  C   UNL     1      -7.101   9.555  70.406  1.00  0.00    -0.120 C  
HETATM   10  C   UNL     1      -7.847   8.192  70.339  1.00  0.00    -0.090 C  
HETATM   11  C   UNL     1      -8.859   8.008  71.492  1.00  0.00    -0.178 C  
BRANCH   9  12
HETATM   12  N   UNL     1      -7.906  10.660  69.902  1.00  0.00    -0.356 N  
HETATM   13  O   UNL     1      -6.598  12.373  70.790  1.00  0.00     0.351 OA 
HETATM   14  H   UNL     1      -8.767  10.460  69.392  1.00  0.00     0.000 HD 
HETATM   15  C   UNL     1      -7.527  11.973  70.100  1.00  0.00     1.872 C  
BRANCH  15  16
HETATM   16  C   UNL     1      -8.358  12.983  69.302  1.00  0.00     0.811 C  
HETATM   17  O   UNL     1      -9.193  12.541  68.529  1.00  0.00    -0.168 OA 
HETATM   18  N   UNL     1      -7.960  14.278  69.542  1.00  0.00    -0.346 N  
HETATM   19  H   UNL     1      -7.250  14.438  70.257  1.00  0.00     0.000 HD 
BRANCH  18  20
HETATM   20  C   UNL     1      -8.471  15.380  68.865  1.00  0.00    -0.205 A  
HETATM   21  C   UNL     1      -9.562  16.280  66.926  1.00  0.00    -0.244 A  
HETATM   22 CL   UNL     1     -10.505  18.816  66.881  1.00  0.00    -0.444 Cl 
HETATM   23  C   UNL     1      -8.928  15.208  67.561  1.00  0.00    -0.187 A  
HETATM   24  C   UNL     1      -9.151  17.590  68.866  1.00  0.00    -0.148 A  
HETATM   25  N   UNL     1      -8.554  16.560  69.503  1.00  0.00     0.106 NA 
HETATM   26  C   UNL     1      -9.687  17.491  67.597  1.00  0.00    -0.275 A  
ENDBRANCH  18  20
ENDBRANCH  15  16
ENDBRANCH   9  12
BRANCH  10  27
HETATM   27  N   UNL     1      -8.447   7.952  69.018  1.00  0.00    -0.130 N  
HETATM   28  O   UNL     1     -10.568   8.156  69.827  1.00  0.00    -0.229 OA 
HETATM   29  C   UNL     1      -9.830   8.002  68.854  1.00  0.00    -0.175 C  
HETATM   30  H   UNL     1      -7.848   7.747  68.218  1.00  0.00     0.000 HD 
BRANCH  29  31
HETATM   31  C   UNL     1     -10.318   7.880  67.480  1.00  0.00    -0.259 A  
HETATM   32  N   UNL     1     -10.043   8.730  66.500  1.00  0.00    -0.289 NA 
HETATM   33  C   UNL     1     -10.657   9.066  64.067  1.00  0.00     5.927 C  
HETATM   34  C   UNL     1     -10.830   6.409  62.493  1.00  0.00     6.574 C  
HETATM   35  C   UNL     1     -10.730   8.328  65.362  1.00  0.00     4.167 A  
HETATM   36  C   UNL     1     -11.773   8.577  63.108  1.00  0.00    18.770 C  
HETATM   37  C   UNL     1     -11.475   7.178  65.489  1.00  0.00     6.488 A  
HETATM   38  N   UNL     1     -11.981   7.108  63.064  1.00  0.00    17.052 NA 
HETATM   39  C   UNL     1     -12.325   6.578  64.407  1.00  0.00    12.603 C  
HETATM   40  S   UNL     1     -11.356   6.562  67.062  1.00  0.00     0.355 SA 
ENDBRANCH  29  31
ENDBRANCH  10  27
ENDBRANCH   4   6
TORSDOF 6
ENDMDL
MODEL       98
REMARK 921   NORMALIZED FREE ENERGY PREDICTED BY IDOCK:   70.76 KCAL/MOL
REMARK 922        TOTAL FREE ENERGY PREDICTED BY IDOCK:   94.66 KCAL/MOL
REMARK 923 INTER-LIGAND FREE ENERGY PREDICTED BY IDOCK:   86.00 KCAL/MOL
REMARK 924 INTRA-LIGAND FREE ENERGY PREDICTED BY IDOCK:    8.66 KCAL/MOL
REMARK 927      BINDING AFFINITY PREDICTED BY RF-SCORE:    0.00 PKD
ROOT
HETATM    1  C   UNL     1      -5.900   5.488  63.011  1.00  0.00    -0.014 C  
HETATM    2  N   UNL     1      -6.159   6.572  63.951  1.00  0.00    -0.033 N  
HETATM    3  C   UNL     1      -6.966   7.677  63.461  1.00  0.00    -0.060 C  
HETATM    4  C   UNL     1      -5.759   6.356  65.264  1.00  0.00    -0.022 C  
HETATM    5  O   UNL     1      -5.179   5.304  65.553  1.00  0.00    -0.011 OA 
ENDROOT
BRANCH   4   6
HETATM    6  C   UNL     1      -5.954   7.436  66.358  1.00  0.00    -0.036 C  
HETATM    7  C   UNL     1      -6.353   8.829  65.868  1.00  0.00    -0.056 C  
HETATM    8  C   UNL     1      -7.753   8.863  65.265  1.00  0.00    -0.100 C  
HETATM    9  C   UNL     1      -8.843   8.349  66.217  1.00  0.00    -0.159 C  
HETATM   10  C   UNL     1      -8.453   6.989  66.865  1.00  0.00    -0.119 C  
HETATM   11  C   UNL     1      -7.007   6.981  67.411  1.00  0.00    -0.079 C  
BRANCH   9  12
HETATM   12  N   UNL     1      -9.190   9.362  67.206  1.00  0.00    -0.129 N  
HETATM   13  O   UNL     1      -9.921   7.886  68.855  1.00  0.00    -0.180 OA 
HETATM   14  H   UNL     1      -9.097  10.348  66.965  1.00  0.00     0.000 HD 
HETATM   15  C   UNL     1      -9.641   9.012  68.462  1.00  0.00    -0.153 C  
BRANCH  15  16
HETATM   16  C   UNL     1      -9.726  10.189  69.438  1.00  0.00    -0.229 C  
HETATM   17  O   UNL     1     -10.708  10.912  69.365  1.00  0.00    -0.224 OA 
HETATM   18  N   UNL     1      -8.600  10.288  70.223  1.00  0.00    -0.221 N  
HETATM   19  H   UNL     1      -7.895   9.555  70.146  1.00  0.00     0.000 HD 
BRANCH  18  20
HETATM   20  C   UNL     1      -8.370  11.332  71.114  1.00  0.00     7.133 A  
HETATM   21  C   UNL     1      -8.267  12.118  73.379  1.00  0.00    20.947 A  
HETATM   22 CL   UNL     1      -7.209  14.532  73.992  1.00  0.00     3.733 Cl 
HETATM   23  C   UNL     1      -8.620  11.119  72.467  1.00  0.00    15.789 A  
HETATM   24  C   UNL     1      -7.553  13.451  71.545  1.00  0.00     6.843 A  
HETATM   25  N   UNL     1      -7.870  12.490  70.651  1.00  0.00     4.104 NA 
HETATM   26  C   UNL     1      -7.710  13.302  72.909  1.00  0.00    11.194 A  
ENDBRANCH  18  20
ENDBRANCH  15  16
ENDBRANCH   9  12
BRANCH  10  27
HETATM   27  N   UNL     1      -9.436   6.549  67.865  1.00  0.00    -0.121 N  
HETATM   28  O   UNL     1      -7.962   5.106  68.834  1.00  0.00    -0.084 OA 
HETATM   29  C   UNL     1      -9.077   5.629  68.848  1.00  0.00    -0.115 C  
HETATM   30  H   UNL     1     -10.387   6.918  67.840  1.00  0.00     0.000 HD 
BRANCH  29  31
HETATM   31  C   UNL     1     -10.085   5.356  69.872  1.00  0.00    -0.252 A  
HETATM   32  N   UNL     1     -11.384   5.222  69.639  1.00  0.00     0.958 NA 
HETATM   33  C   UNL     1     -13.510   4.858  70.966  1.00  0.00     9.182 C  
HETATM   34  C   UNL     1     -13.138   2.880  73.314  1.00  0.00     1.388 C  
HETATM   35  C   UNL     1     -12.032   5.035  70.854  1.00  0.00     3.337 A  
HETATM   36  C   UNL     1     -13.957   5.010  72.442  1.00  0.00     2.791 C  
HETATM   37  C   UNL     1     -11.221   4.998  71.964  1.00  0.00     0.141 A  
HETATM   38  N   UNL     1     -13.094   4.336  73.445  1.00  0.00     0.994 NA 
HETATM   39  C   UNL     1     -11.702   4.845  73.378  1.00  0.00     0.027 C  
HETATM   40  S   UNL     1      -9.600   5.216  71.525  1.00  0.00    -0.162 SA 
ENDBRANCH  29  31
ENDBRANCH  10  27
ENDBRANCH   4   6
TORSDOF 6
ENDMDL
MODEL       99
REMARK 921   NORMALIZED FREE ENERGY PREDICTED BY IDOCK:   82.14 KCAL/MOL
REMARK 922        TOTAL FREE ENERGY PREDICTED BY IDOCK:  110.04 KCAL/MOL
REMARK 923 INTER-LIGAND FREE ENERGY PREDICTED BY IDOCK:  110.04 KCAL/MOL
REMARK 924 INTRA-LIGAND FREE ENERGY PREDICTED BY IDOCK:   -0.00 KCAL/MOL
REMARK 927      BINDING AFFINITY PREDICTED BY RF-SCORE:    0.00 PKD
ROOT
HETATM    1  C   UNL     1      -8.456   3.270  66.230  1.00  0.00    -0.108 C  
HETATM    2  N   UNL     1      -9.501   3.976  66.960  1.00  0.00    -0.187 N  
HETATM    3  C   UNL     1     -10.709   3.225  67.255  1.00  0.00     3.606 C  
HETATM    4  C   UNL     1      -9.167   5.233  67.450  1.00  0.00    -0.113 C  
HETATM    5  O   UNL     1      -8.046   5.696  67.210  1.00  0.00    -0.102 OA 
ENDROOT
BRANCH   4   6
HETATM    6  C   UNL     1     -10.192   6.100  68.222  1.00  0.00    -0.207 C  
HETATM    7  C   UNL     1     -10.169   5.978  69.746  1.00  0.00    -0.265 C  
HETATM    8  C   UNL     1      -8.891   6.535  70.363  1.00  0.00    -0.151 C  
HETATM    9  C   UNL     1      -8.616   7.999  69.987  1.00  0.00    -0.134 C  
HETATM   10  C   UNL     1      -8.751   8.239  68.456  1.00  0.00    -0.133 C  
HETATM   11  C   UNL     1     -10.032   7.608  67.863  1.00  0.00    -0.208 C  
BRANCH   9  12
HETATM   12  N   UNL     1      -9.448   8.902  70.771  1.00  0.00    -0.207 N  
HETATM   13  O   UNL     1      -9.123   7.849  72.826  1.00  0.00    -0.167 OA 
HETATM   14  H   UNL     1      -9.955   9.651  70.301  1.00  0.00     0.000 HD 
HETATM   15  C   UNL     1      -9.565   8.763  72.140  1.00  0.00    -0.254 C  
BRANCH  15  16
HETATM   16  C   UNL     1     -10.280   9.934  72.821  1.00  0.00     5.201 C  
HETATM   17  O   UNL     1     -11.431   9.755  73.187  1.00  0.00     2.994 OA 
HETATM   18  N   UNL     1      -9.501  11.068  72.844  1.00  0.00    14.441 N  
HETATM   19  H   UNL     1      -8.541  10.999  72.506  1.00  0.00     0.000 HD 
BRANCH  18  20
HETATM   20  C   UNL     1      -9.949  12.302  73.304  1.00  0.00    23.395 A  
HETATM   21  C   UNL     1      -9.909  14.697  73.140  1.00  0.00     6.656 A  
HETATM   22 CL   UNL     1     -11.700  16.235  74.461  1.00  0.00     0.232 Cl 
HETATM   23  C   UNL     1      -9.373  13.457  72.780  1.00  0.00    15.980 A  
HETATM   24  C   UNL     1     -11.444  13.552  74.549  1.00  0.00     7.631 A  
HETATM   25  N   UNL     1     -10.952  12.344  74.197  1.00  0.00    14.942 NA 
HETATM   26  C   UNL     1     -10.974  14.744  74.033  1.00  0.00     2.709 A  
ENDBRANCH  18  20
ENDBRANCH  15  16
ENDBRANCH   9  12
BRANCH  10  27
HETATM   27  N   UNL     1      -8.606   9.659  68.102  1.00  0.00    -0.119 N  
HETATM   28  O   UNL     1      -6.428   9.393  67.489  1.00  0.00    -0.061 OA 
HETATM   29  C   UNL     1      -7.406  10.134  67.577  1.00  0.00    -0.089 C  
HETATM   30  H   UNL     1      -9.388  10.299  68.242  1.00  0.00     0.000 HD 
BRANCH  29  31
HETATM   31  C   UNL     1      -7.406  11.528  67.136  1.00  0.00    -0.139 A  
HETATM   32  N   UNL     1      -8.451  12.159  66.615  1.00  0.00    -0.137 NA 
HETATM   33  C   UNL     1      -8.985  14.429  65.630  1.00  0.00     0.819 C  
HETATM   34  C   UNL     1      -7.609  16.750  67.142  1.00  0.00    -0.188 C  
HETATM   35  C   UNL     1      -8.058  13.443  66.258  1.00  0.00     1.242 A  
HETATM   36  C   UNL     1      -8.184  15.624  65.052  1.00  0.00     5.255 C  
HETATM   37  C   UNL     1      -6.752  13.768  66.542  1.00  0.00     2.740 A  
HETATM   38  N   UNL     1      -7.094  16.141  65.916  1.00  0.00     1.041 NA 
HETATM   39  C   UNL     1      -6.100  15.080  66.213  1.00  0.00     4.201 C  
HETATM   40  S   UNL     1      -5.953  12.458  67.258  1.00  0.00    -0.078 SA 
ENDBRANCH  29  31
ENDBRANCH  10  27
ENDBRANCH   4   6
TORSDOF 6
ENDMDL
MODEL      100
REMARK 921   NORMALIZED FREE ENERGY PREDICTED BY IDOCK:   82.85 KCAL/MOL
REMARK 922        TOTAL FREE ENERGY PREDICTED BY IDOCK:  110.99 KCAL/MOL
REMARK 923 INTER-LIGAND FREE ENERGY PREDICTED BY IDOCK:  105.79 KCAL/MOL
REMARK 924 INTRA-LIGAND FREE ENERGY PREDICTED BY IDOCK:    5.20 KCAL/MOL
REMARK 927      BINDING AFFINITY PREDICTED BY RF-SCORE:    0.00 PKD
ROOT
HETATM    1  C   UNL     1     -14.168  20.343  64.207  1.00  0.00    24.048 C  
HETATM    2  N   UNL     1     -13.141  20.113  65.216  1.00  0.00     9.913 N  
HETATM    3  C   UNL     1     -13.553  20.242  66.603  1.00  0.00     7.279 C  
HETATM    4  C   UNL     1     -11.925  19.623  64.755  1.00  0.00     4.953 C  
HETATM    5  O   UNL     1     -11.763  19.455  63.541  1.00  0.00     7.150 OA 
ENDROOT
BRANCH   4   6
HETATM    6  C   UNL     1     -10.741  19.357  65.718  1.00  0.00    -0.458 C  
HETATM    7  C   UNL     1     -11.004  19.626  67.200  1.00  0.00    -0.420 C  
HETATM    8  C   UNL     1     -12.011  18.655  67.806  1.00  0.00     2.672 C  
HETATM    9  C   UNL     1     -11.617  17.180  67.640  1.00  0.00     0.756 C  
HETATM   10  C   UNL     1     -11.206  16.852  66.176  1.00  0.00     0.554 C  
HETATM   11  C   UNL     1     -10.229  17.892  65.583  1.00  0.00     0.008 C  
BRANCH   9  12
HETATM   12  N   UNL     1     -10.596  16.802  68.608  1.00  0.00    -0.332 N  
HETATM   13  O   UNL     1     -11.757  15.006  69.535  1.00  0.00    -0.286 OA 
HETATM   14  H   UNL     1      -9.748  17.363  68.684  1.00  0.00     0.000 HD 
HETATM   15  C   UNL     1     -10.753  15.699  69.423  1.00  0.00    -0.252 C  
BRANCH  15  16
HETATM   16  C   UNL     1      -9.488  15.319  70.198  1.00  0.00     0.292 C  
HETATM   17  O   UNL     1      -8.464  15.932  69.943  1.00  0.00     0.079 OA 
HETATM   18  N   UNL     1      -9.704  14.253  71.041  1.00  0.00     2.507 N  
HETATM   19  H   UNL     1     -10.655  13.895  71.131  1.00  0.00     0.000 HD 
BRANCH  18  20
HETATM   20  C   UNL     1      -8.698  13.635  71.778  1.00  0.00    11.589 A  
HETATM   21  C   UNL     1      -6.770  12.207  71.834  1.00  0.00     5.232 A  
HETATM   22 CL   UNL     1      -5.219  12.010  74.043  1.00  0.00     0.389 Cl 
HETATM   23  C   UNL     1      -7.861  12.729  71.133  1.00  0.00     8.118 A  
HETATM   24  C   UNL     1      -7.487  13.437  73.737  1.00  0.00     7.334 A  
HETATM   25  N   UNL     1      -8.535  13.967  73.070  1.00  0.00     9.173 NA 
HETATM   26  C   UNL     1      -6.573  12.579  73.159  1.00  0.00     5.821 A  
ENDBRANCH  18  20
ENDBRANCH  15  16
ENDBRANCH   9  12
BRANCH  10  27
HETATM   27  N   UNL     1     -10.715  15.472  66.033  1.00  0.00    -0.323 N  
HETATM   28  O   UNL     1      -8.960  15.839  67.440  1.00  0.00    -0.187 OA 
HETATM   29  C   UNL     1      -9.601  15.045  66.751  1.00  0.00    -0.245 C  
HETATM   30  H   UNL     1     -11.193  14.826  65.406  1.00  0.00     0.000 HD 
BRANCH  29  31
HETATM   31  C   UNL     1      -9.273  13.623  66.641  1.00  0.00    -0.212 A  
HETATM   32  N   UNL     1      -9.177  12.786  67.665  1.00  0.00    -0.184 NA 
HETATM   33  C   UNL     1      -8.574  10.360  68.067  1.00  0.00    -0.123 C  
HETATM   34  C   UNL     1      -9.670   8.469  65.879  1.00  0.00    -0.031 C  
HETATM   35  C   UNL     1      -8.788  11.542  67.182  1.00  0.00    -0.168 A  
HETATM   36  C   UNL     1      -7.833   9.239  67.293  1.00  0.00    -0.099 C  
HETATM   37  C   UNL     1      -8.632  11.453  65.819  1.00  0.00    -0.010 A  
HETATM   38  N   UNL     1      -8.307   8.998  65.908  1.00  0.00    -0.119 NA 
HETATM   39  C   UNL     1      -8.183  10.225  65.081  1.00  0.00    -0.161 C  
HETATM   40  S   UNL     1      -8.952  12.944  65.083  1.00  0.00     1.533 SA 
ENDBRANCH  29  31
ENDBRANCH  10  27
ENDBRANCH   4   6
TORSDOF 6
ENDMDL
