MODEL        1
REMARK 921   NORMALIZED FREE ENERGY PREDICTED BY IDOCK:   -4.82 KCAL/MOL
REMARK 922        TOTAL FREE ENERGY PREDICTED BY IDOCK:   -5.55 KCAL/MOL
REMARK 923 INTER-LIGAND FREE ENERGY PREDICTED BY IDOCK:   -5.38 KCAL/MOL
REMARK 924 INTRA-LIGAND FREE ENERGY PREDICTED BY IDOCK:   -0.17 KCAL/MOL
REMARK 927      BINDING AFFINITY PREDICTED BY RF-SCORE:    0.00 PKD
ROOT
HETATM    1  C   UNL     1     -12.346  14.059  70.232  1.00  0.00    -0.425 C  
HETATM    2  C   UNL     1     -11.759  13.280  69.064  1.00  0.00    -0.322 C  
ENDROOT
BRANCH   2   3
HETATM    3  N   UNL     1     -10.842  14.115  68.145  1.00  0.00    -0.243 N  
HETATM    4  C   UNL     1     -10.898  15.578  68.596  1.00  0.00    -0.267 C  
HETATM    5  C   UNL     1      -9.403  13.615  68.308  1.00  0.00    -0.204 C  
BRANCH   3   6
HETATM    6  C   UNL     1     -11.289  14.095  66.687  1.00  0.00    -0.344 A  
HETATM    7  C   UNL     1     -11.159  15.230  65.868  1.00  0.00    -0.287 A  
HETATM    8  C   UNL     1     -11.639  15.207  64.559  1.00  0.00    -0.329 A  
HETATM    9  O   UNL     1     -11.537  16.289  63.736  1.00  0.00    -1.539 OA 
HETATM   10  C   UNL     1     -12.256  14.079  64.040  1.00  0.00    -0.395 A  
HETATM   11  H   UNL     1     -11.864  16.273  62.844  1.00  0.00     0.000 HD 
HETATM   12  C   UNL     1     -12.414  12.957  64.845  1.00  0.00    -0.540 A  
HETATM   13  C   UNL     1     -11.948  12.969  66.163  1.00  0.00    -0.488 A  
ENDBRANCH   3   6
ENDBRANCH   2   3
TORSDOF 2
ENDMDL
MODEL        2
REMARK 921   NORMALIZED FREE ENERGY PREDICTED BY IDOCK:   -4.65 KCAL/MOL
REMARK 922        TOTAL FREE ENERGY PREDICTED BY IDOCK:   -5.36 KCAL/MOL
REMARK 923 INTER-LIGAND FREE ENERGY PREDICTED BY IDOCK:   -5.21 KCAL/MOL
REMARK 924 INTRA-LIGAND FREE ENERGY PREDICTED BY IDOCK:   -0.15 KCAL/MOL
REMARK 927      BINDING AFFINITY PREDICTED BY RF-SCORE:    0.00 PKD
ROOT
HETATM    1  C   UNL     1     -11.550  14.683  70.187  1.00  0.00    -0.336 C  
HETATM    2  C   UNL     1     -11.972  13.909  68.946  1.00  0.00    -0.358 C  
ENDROOT
BRANCH   2   3
HETATM    3  N   UNL     1     -10.821  13.625  67.957  1.00  0.00    -0.241 N  
HETATM    4  C   UNL     1      -9.749  14.705  68.131  1.00  0.00    -0.220 C  
HETATM    5  C   UNL     1     -10.202  12.269  68.308  1.00  0.00    -0.220 C  
BRANCH   3   6
HETATM    6  C   UNL     1     -11.266  13.688  66.499  1.00  0.00    -0.310 A  
HETATM    7  C   UNL     1     -11.338  14.912  65.812  1.00  0.00    -0.314 A  
HETATM    8  C   UNL     1     -11.813  14.951  64.500  1.00  0.00    -0.396 A  
HETATM    9  O   UNL     1     -11.904  16.117  63.802  1.00  0.00    -1.408 OA 
HETATM   10  C   UNL     1     -12.229  13.796  63.853  1.00  0.00    -0.402 A  
HETATM   11  H   UNL     1     -12.228  16.143  62.909  1.00  0.00     0.000 HD 
HETATM   12  C   UNL     1     -12.186  12.583  64.529  1.00  0.00    -0.528 A  
HETATM   13  C   UNL     1     -11.723  12.530  65.847  1.00  0.00    -0.480 A  
ENDBRANCH   3   6
ENDBRANCH   2   3
TORSDOF 2
ENDMDL
MODEL        3
REMARK 921   NORMALIZED FREE ENERGY PREDICTED BY IDOCK:   -4.58 KCAL/MOL
REMARK 922        TOTAL FREE ENERGY PREDICTED BY IDOCK:   -5.28 KCAL/MOL
REMARK 923 INTER-LIGAND FREE ENERGY PREDICTED BY IDOCK:   -5.12 KCAL/MOL
REMARK 924 INTRA-LIGAND FREE ENERGY PREDICTED BY IDOCK:   -0.16 KCAL/MOL
REMARK 927      BINDING AFFINITY PREDICTED BY RF-SCORE:    0.00 PKD
ROOT
HETATM    1  C   UNL     1     -10.418  18.400  66.914  1.00  0.00    -0.419 C  
HETATM    2  C   UNL     1     -10.016  17.066  66.301  1.00  0.00    -0.310 C  
ENDROOT
BRANCH   2   3
HETATM    3  N   UNL     1     -10.338  15.842  67.183  1.00  0.00    -0.285 N  
HETATM    4  C   UNL     1      -9.030  15.307  67.773  1.00  0.00    -0.177 C  
HETATM    5  C   UNL     1     -11.237  16.297  68.337  1.00  0.00    -0.349 C  
BRANCH   3   6
HETATM    6  C   UNL     1     -10.960  14.693  66.396  1.00  0.00    -0.325 A  
HETATM    7  C   UNL     1     -11.402  14.871  65.074  1.00  0.00    -0.398 A  
HETATM    8  C   UNL     1     -12.030  13.824  64.399  1.00  0.00    -0.445 A  
HETATM    9  O   UNL     1     -12.477  13.959  63.119  1.00  0.00    -1.121 OA 
HETATM   10  C   UNL     1     -12.238  12.598  65.012  1.00  0.00    -0.535 A  
HETATM   11  H   UNL     1     -12.905  13.245  62.659  1.00  0.00     0.000 HD 
HETATM   12  C   UNL     1     -11.829  12.415  66.328  1.00  0.00    -0.431 A  
HETATM   13  C   UNL     1     -11.209  13.458  67.020  1.00  0.00    -0.328 A  
ENDBRANCH   3   6
ENDBRANCH   2   3
TORSDOF 2
ENDMDL
MODEL        4
REMARK 921   NORMALIZED FREE ENERGY PREDICTED BY IDOCK:   -4.56 KCAL/MOL
REMARK 922        TOTAL FREE ENERGY PREDICTED BY IDOCK:   -5.26 KCAL/MOL
REMARK 923 INTER-LIGAND FREE ENERGY PREDICTED BY IDOCK:   -5.03 KCAL/MOL
REMARK 924 INTRA-LIGAND FREE ENERGY PREDICTED BY IDOCK:   -0.22 KCAL/MOL
REMARK 927      BINDING AFFINITY PREDICTED BY RF-SCORE:    0.00 PKD
ROOT
HETATM    1  C   UNL     1      -7.593  15.649  66.970  1.00  0.00    -0.245 C  
HETATM    2  C   UNL     1      -8.426  16.582  66.104  1.00  0.00    -0.285 C  
ENDROOT
BRANCH   2   3
HETATM    3  N   UNL     1      -9.891  16.735  66.567  1.00  0.00    -0.275 N  
HETATM    4  C   UNL     1      -9.922  16.743  68.098  1.00  0.00    -0.270 C  
HETATM    5  C   UNL     1     -10.422  18.082  66.066  1.00  0.00    -0.313 C  
BRANCH   3   6
HETATM    6  C   UNL     1     -10.775  15.574  66.122  1.00  0.00    -0.313 A  
HETATM    7  C   UNL     1     -11.137  15.409  64.774  1.00  0.00    -0.416 A  
HETATM    8  C   UNL     1     -12.002  14.379  64.402  1.00  0.00    -0.452 A  
HETATM    9  O   UNL     1     -12.381  14.189  63.108  1.00  0.00    -1.125 OA 
HETATM   10  C   UNL     1     -12.526  13.508  65.346  1.00  0.00    -0.540 A  
HETATM   11  H   UNL     1     -12.971  13.488  62.856  1.00  0.00     0.000 HD 
HETATM   12  C   UNL     1     -12.196  13.673  66.686  1.00  0.00    -0.437 A  
HETATM   13  C   UNL     1     -11.340  14.707  67.074  1.00  0.00    -0.362 A  
ENDBRANCH   3   6
ENDBRANCH   2   3
TORSDOF 2
ENDMDL
MODEL        5
REMARK 921   NORMALIZED FREE ENERGY PREDICTED BY IDOCK:   -4.55 KCAL/MOL
REMARK 922        TOTAL FREE ENERGY PREDICTED BY IDOCK:   -5.25 KCAL/MOL
REMARK 923 INTER-LIGAND FREE ENERGY PREDICTED BY IDOCK:   -5.05 KCAL/MOL
REMARK 924 INTRA-LIGAND FREE ENERGY PREDICTED BY IDOCK:   -0.20 KCAL/MOL
REMARK 927      BINDING AFFINITY PREDICTED BY RF-SCORE:    0.00 PKD
ROOT
HETATM    1  C   UNL     1      -8.761  11.999  68.249  1.00  0.00    -0.178 C  
HETATM    2  C   UNL     1     -10.226  12.290  68.542  1.00  0.00    -0.206 C  
ENDROOT
BRANCH   2   3
HETATM    3  N   UNL     1     -10.691  13.695  68.106  1.00  0.00    -0.242 N  
HETATM    4  C   UNL     1     -11.907  14.091  68.949  1.00  0.00    -0.355 C  
HETATM    5  C   UNL     1      -9.563  14.691  68.389  1.00  0.00    -0.217 C  
BRANCH   3   6
HETATM    6  C   UNL     1     -11.140  13.743  66.649  1.00  0.00    -0.311 A  
HETATM    7  C   UNL     1     -11.106  14.942  65.915  1.00  0.00    -0.338 A  
HETATM    8  C   UNL     1     -11.586  14.974  64.606  1.00  0.00    -0.386 A  
HETATM    9  O   UNL     1     -11.576  16.117  63.863  1.00  0.00    -1.369 OA 
HETATM   10  C   UNL     1     -12.111  13.839  64.006  1.00  0.00    -0.448 A  
HETATM   11  H   UNL     1     -11.903  16.138  62.971  1.00  0.00     0.000 HD 
HETATM   12  C   UNL     1     -12.175  12.653  64.727  1.00  0.00    -0.528 A  
HETATM   13  C   UNL     1     -11.707  12.608  66.044  1.00  0.00    -0.470 A  
ENDBRANCH   3   6
ENDBRANCH   2   3
TORSDOF 2
ENDMDL
MODEL        6
REMARK 921   NORMALIZED FREE ENERGY PREDICTED BY IDOCK:   -4.53 KCAL/MOL
REMARK 922        TOTAL FREE ENERGY PREDICTED BY IDOCK:   -5.23 KCAL/MOL
REMARK 923 INTER-LIGAND FREE ENERGY PREDICTED BY IDOCK:   -5.08 KCAL/MOL
REMARK 924 INTRA-LIGAND FREE ENERGY PREDICTED BY IDOCK:   -0.15 KCAL/MOL
REMARK 927      BINDING AFFINITY PREDICTED BY RF-SCORE:    0.00 PKD
ROOT
HETATM    1  C   UNL     1     -10.346   5.139  69.907  1.00  0.00    -0.347 C  
HETATM    2  C   UNL     1     -11.290   6.329  69.813  1.00  0.00    -0.436 C  
ENDROOT
BRANCH   2   3
HETATM    3  N   UNL     1     -10.595   7.700  69.953  1.00  0.00    -0.232 N  
HETATM    4  C   UNL     1      -9.332   7.523  70.800  1.00  0.00    -0.162 C  
HETATM    5  C   UNL     1     -10.179   8.180  68.559  1.00  0.00    -0.208 C  
BRANCH   3   6
HETATM    6  C   UNL     1     -11.460   8.729  70.674  1.00  0.00    -0.231 A  
HETATM    7  C   UNL     1     -12.327   8.352  71.714  1.00  0.00    -0.375 A  
HETATM    8  C   UNL     1     -13.158   9.300  72.311  1.00  0.00    -0.441 A  
HETATM    9  O   UNL     1     -14.016   8.974  73.318  1.00  0.00    -1.205 OA 
HETATM   10  C   UNL     1     -13.153  10.623  71.893  1.00  0.00    -0.563 A  
HETATM   11  H   UNL     1     -14.582   9.620  73.724  1.00  0.00     0.000 HD 
HETATM   12  C   UNL     1     -12.319  11.006  70.850  1.00  0.00    -0.503 A  
HETATM   13  C   UNL     1     -11.489  10.064  70.234  1.00  0.00    -0.372 A  
ENDBRANCH   3   6
ENDBRANCH   2   3
TORSDOF 2
ENDMDL
MODEL        7
REMARK 921   NORMALIZED FREE ENERGY PREDICTED BY IDOCK:   -4.49 KCAL/MOL
REMARK 922        TOTAL FREE ENERGY PREDICTED BY IDOCK:   -5.18 KCAL/MOL
REMARK 923 INTER-LIGAND FREE ENERGY PREDICTED BY IDOCK:   -4.98 KCAL/MOL
REMARK 924 INTRA-LIGAND FREE ENERGY PREDICTED BY IDOCK:   -0.20 KCAL/MOL
REMARK 927      BINDING AFFINITY PREDICTED BY RF-SCORE:    0.00 PKD
ROOT
HETATM    1  C   UNL     1     -11.553  16.032  70.511  1.00  0.00    -0.383 C  
HETATM    2  C   UNL     1     -10.422  15.278  69.825  1.00  0.00    -0.275 C  
ENDROOT
BRANCH   2   3
HETATM    3  N   UNL     1      -9.852  15.990  68.580  1.00  0.00    -0.211 N  
HETATM    4  C   UNL     1     -10.233  17.471  68.646  1.00  0.00    -0.373 C  
HETATM    5  C   UNL     1      -8.324  15.882  68.616  1.00  0.00    -0.195 C  
BRANCH   3   6
HETATM    6  C   UNL     1     -10.430  15.452  67.276  1.00  0.00    -0.282 A  
HETATM    7  C   UNL     1     -10.558  16.273  66.142  1.00  0.00    -0.272 A  
HETATM    8  C   UNL     1     -11.153  15.776  64.982  1.00  0.00    -0.370 A  
HETATM    9  O   UNL     1     -11.301  16.542  63.865  1.00  0.00    -1.557 OA 
HETATM   10  C   UNL     1     -11.634  14.477  64.922  1.00  0.00    -0.401 A  
HETATM   11  H   UNL     1     -11.707  16.203  63.075  1.00  0.00     0.000 HD 
HETATM   12  C   UNL     1     -11.537  13.661  66.043  1.00  0.00    -0.358 A  
HETATM   13  C   UNL     1     -10.953  14.148  67.216  1.00  0.00    -0.304 A  
ENDBRANCH   3   6
ENDBRANCH   2   3
TORSDOF 2
ENDMDL
MODEL        8
REMARK 921   NORMALIZED FREE ENERGY PREDICTED BY IDOCK:   -4.47 KCAL/MOL
REMARK 922        TOTAL FREE ENERGY PREDICTED BY IDOCK:   -5.16 KCAL/MOL
REMARK 923 INTER-LIGAND FREE ENERGY PREDICTED BY IDOCK:   -4.99 KCAL/MOL
REMARK 924 INTRA-LIGAND FREE ENERGY PREDICTED BY IDOCK:   -0.17 KCAL/MOL
REMARK 927      BINDING AFFINITY PREDICTED BY RF-SCORE:    0.00 PKD
ROOT
HETATM    1  C   UNL     1     -10.394  17.309  68.370  1.00  0.00    -0.366 C  
HETATM    2  C   UNL     1     -11.515  16.293  68.532  1.00  0.00    -0.272 C  
ENDROOT
BRANCH   2   3
HETATM    3  N   UNL     1     -11.104  15.016  69.296  1.00  0.00    -0.258 N  
HETATM    4  C   UNL     1     -11.549  13.797  68.483  1.00  0.00    -0.338 C  
HETATM    5  C   UNL     1      -9.577  14.988  69.413  1.00  0.00    -0.139 C  
BRANCH   3   6
HETATM    6  C   UNL     1     -11.781  14.899  70.658  1.00  0.00    -0.303 A  
HETATM    7  C   UNL     1     -12.506  13.749  71.015  1.00  0.00    -0.458 A  
HETATM    8  C   UNL     1     -13.174  13.693  72.239  1.00  0.00    -0.469 A  
HETATM    9  O   UNL     1     -13.891  12.599  72.619  1.00  0.00    -0.667 OA 
HETATM   10  C   UNL     1     -13.145  14.764  73.120  1.00  0.00    -0.598 A  
HETATM   11  H   UNL     1     -14.346  12.562  73.452  1.00  0.00     0.000 HD 
HETATM   12  C   UNL     1     -12.453  15.917  72.770  1.00  0.00    -0.565 A  
HETATM   13  C   UNL     1     -11.789  15.991  71.543  1.00  0.00    -0.554 A  
ENDBRANCH   3   6
ENDBRANCH   2   3
TORSDOF 2
ENDMDL
MODEL        9
REMARK 921   NORMALIZED FREE ENERGY PREDICTED BY IDOCK:   -4.47 KCAL/MOL
REMARK 922        TOTAL FREE ENERGY PREDICTED BY IDOCK:   -5.15 KCAL/MOL
REMARK 923 INTER-LIGAND FREE ENERGY PREDICTED BY IDOCK:   -5.00 KCAL/MOL
REMARK 924 INTRA-LIGAND FREE ENERGY PREDICTED BY IDOCK:   -0.16 KCAL/MOL
REMARK 927      BINDING AFFINITY PREDICTED BY RF-SCORE:    0.00 PKD
ROOT
HETATM    1  C   UNL     1     -11.344  14.665  69.265  1.00  0.00    -0.313 C  
HETATM    2  C   UNL     1     -11.970  13.829  68.158  1.00  0.00    -0.358 C  
ENDROOT
BRANCH   2   3
HETATM    3  N   UNL     1     -11.085  12.662  67.670  1.00  0.00    -0.250 N  
HETATM    4  C   UNL     1      -9.634  12.948  68.070  1.00  0.00    -0.221 C  
HETATM    5  C   UNL     1     -11.536  11.380  68.378  1.00  0.00    -0.315 C  
BRANCH   3   6
HETATM    6  C   UNL     1     -11.093  12.508  66.153  1.00  0.00    -0.298 A  
HETATM    7  C   UNL     1     -11.794  13.409  65.333  1.00  0.00    -0.381 A  
HETATM    8  C   UNL     1     -11.843  13.207  63.953  1.00  0.00    -0.472 A  
HETATM    9  O   UNL     1     -12.515  14.055  63.126  1.00  0.00    -1.137 OA 
HETATM   10  C   UNL     1     -11.215  12.120  63.365  1.00  0.00    -0.494 A  
HETATM   11  H   UNL     1     -12.549  13.917  62.186  1.00  0.00     0.000 HD 
HETATM   12  C   UNL     1     -10.540  11.206  64.166  1.00  0.00    -0.436 A  
HETATM   13  C   UNL     1     -10.491  11.389  65.550  1.00  0.00    -0.322 A  
ENDBRANCH   3   6
ENDBRANCH   2   3
TORSDOF 2
ENDMDL
MODEL       10
REMARK 921   NORMALIZED FREE ENERGY PREDICTED BY IDOCK:   -4.45 KCAL/MOL
REMARK 922        TOTAL FREE ENERGY PREDICTED BY IDOCK:   -5.14 KCAL/MOL
REMARK 923 INTER-LIGAND FREE ENERGY PREDICTED BY IDOCK:   -5.00 KCAL/MOL
REMARK 924 INTRA-LIGAND FREE ENERGY PREDICTED BY IDOCK:   -0.14 KCAL/MOL
REMARK 927      BINDING AFFINITY PREDICTED BY RF-SCORE:    0.00 PKD
ROOT
HETATM    1  C   UNL     1     -11.447  14.002  66.803  1.00  0.00    -0.379 C  
HETATM    2  C   UNL     1     -12.014  13.990  68.215  1.00  0.00    -0.349 C  
ENDROOT
BRANCH   2   3
HETATM    3  N   UNL     1     -11.345  14.999  69.173  1.00  0.00    -0.278 N  
HETATM    4  C   UNL     1      -9.860  14.646  69.296  1.00  0.00    -0.067 C  
HETATM    5  C   UNL     1     -11.460  16.399  68.562  1.00  0.00    -0.209 C  
BRANCH   3   6
HETATM    6  C   UNL     1     -11.922  14.945  70.584  1.00  0.00    -0.305 A  
HETATM    7  C   UNL     1     -12.741  13.879  70.996  1.00  0.00    -0.428 A  
HETATM    8  C   UNL     1     -13.311  13.887  72.269  1.00  0.00    -0.503 A  
HETATM    9  O   UNL     1     -14.115  12.876  72.704  1.00  0.00    -0.709 OA 
HETATM   10  C   UNL     1     -13.094  14.939  73.146  1.00  0.00    -0.615 A  
HETATM   11  H   UNL     1     -14.504  12.882  73.571  1.00  0.00     0.000 HD 
HETATM   12  C   UNL     1     -12.307  16.012  72.744  1.00  0.00    -0.603 A  
HETATM   13  C   UNL     1     -11.738  16.023  71.467  1.00  0.00    -0.554 A  
ENDBRANCH   3   6
ENDBRANCH   2   3
TORSDOF 2
ENDMDL
MODEL       11
REMARK 921   NORMALIZED FREE ENERGY PREDICTED BY IDOCK:   -4.44 KCAL/MOL
REMARK 922        TOTAL FREE ENERGY PREDICTED BY IDOCK:   -5.13 KCAL/MOL
REMARK 923 INTER-LIGAND FREE ENERGY PREDICTED BY IDOCK:   -4.97 KCAL/MOL
REMARK 924 INTRA-LIGAND FREE ENERGY PREDICTED BY IDOCK:   -0.16 KCAL/MOL
REMARK 927      BINDING AFFINITY PREDICTED BY RF-SCORE:    0.00 PKD
ROOT
HETATM    1  C   UNL     1     -11.046  10.586  67.926  1.00  0.00    -0.367 C  
HETATM    2  C   UNL     1     -11.602  11.655  66.996  1.00  0.00    -0.189 C  
ENDROOT
BRANCH   2   3
HETATM    3  N   UNL     1     -10.614  12.124  65.908  1.00  0.00    -0.250 N  
HETATM    4  C   UNL     1      -9.216  11.608  66.263  1.00  0.00    -0.217 C  
HETATM    5  C   UNL     1     -11.032  11.503  64.571  1.00  0.00    -0.302 C  
BRANCH   3   6
HETATM    6  C   UNL     1     -10.506  13.642  65.821  1.00  0.00    -0.293 A  
HETATM    7  C   UNL     1     -11.187  14.366  64.826  1.00  0.00    -0.391 A  
HETATM    8  C   UNL     1     -11.019  15.747  64.726  1.00  0.00    -0.393 A  
HETATM    9  O   UNL     1     -11.656  16.483  63.773  1.00  0.00    -1.617 OA 
HETATM   10  C   UNL     1     -10.178  16.431  65.591  1.00  0.00    -0.349 A  
HETATM   11  H   UNL     1     -11.541  17.423  63.705  1.00  0.00     0.000 HD 
HETATM   12  C   UNL     1      -9.479  15.727  66.564  1.00  0.00    -0.298 A  
HETATM   13  C   UNL     1      -9.630  14.341  66.669  1.00  0.00    -0.302 A  
ENDBRANCH   3   6
ENDBRANCH   2   3
TORSDOF 2
ENDMDL
MODEL       12
REMARK 921   NORMALIZED FREE ENERGY PREDICTED BY IDOCK:   -4.40 KCAL/MOL
REMARK 922        TOTAL FREE ENERGY PREDICTED BY IDOCK:   -5.08 KCAL/MOL
REMARK 923 INTER-LIGAND FREE ENERGY PREDICTED BY IDOCK:   -4.91 KCAL/MOL
REMARK 924 INTRA-LIGAND FREE ENERGY PREDICTED BY IDOCK:   -0.17 KCAL/MOL
REMARK 927      BINDING AFFINITY PREDICTED BY RF-SCORE:    0.00 PKD
ROOT
HETATM    1  C   UNL     1     -12.366  11.888  63.343  1.00  0.00    -0.577 C  
HETATM    2  C   UNL     1     -12.534  12.512  64.720  1.00  0.00    -0.457 C  
ENDROOT
BRANCH   2   3
HETATM    3  N   UNL     1     -11.236  12.564  65.554  1.00  0.00    -0.303 N  
HETATM    4  C   UNL     1     -11.545  12.070  66.970  1.00  0.00    -0.317 C  
HETATM    5  C   UNL     1     -10.214  11.613  64.922  1.00  0.00    -0.270 C  
BRANCH   3   6
HETATM    6  C   UNL     1     -10.684  13.978  65.699  1.00  0.00    -0.303 A  
HETATM    7  C   UNL     1     -11.270  15.063  65.023  1.00  0.00    -0.413 A  
HETATM    8  C   UNL     1     -10.705  16.335  65.118  1.00  0.00    -0.331 A  
HETATM    9  O   UNL     1     -11.239  17.410  64.474  1.00  0.00    -1.018 OA 
HETATM   10  C   UNL     1      -9.559  16.556  65.867  1.00  0.00    -0.284 A  
HETATM   11  H   UNL     1     -10.853  18.276  64.539  1.00  0.00     0.000 HD 
HETATM   12  C   UNL     1      -8.954  15.489  66.521  1.00  0.00    -0.348 A  
HETATM   13  C   UNL     1      -9.503  14.207  66.426  1.00  0.00    -0.289 A  
ENDBRANCH   3   6
ENDBRANCH   2   3
TORSDOF 2
ENDMDL
MODEL       13
REMARK 921   NORMALIZED FREE ENERGY PREDICTED BY IDOCK:   -4.31 KCAL/MOL
REMARK 922        TOTAL FREE ENERGY PREDICTED BY IDOCK:   -4.98 KCAL/MOL
REMARK 923 INTER-LIGAND FREE ENERGY PREDICTED BY IDOCK:   -4.82 KCAL/MOL
REMARK 924 INTRA-LIGAND FREE ENERGY PREDICTED BY IDOCK:   -0.17 KCAL/MOL
REMARK 927      BINDING AFFINITY PREDICTED BY RF-SCORE:    0.00 PKD
ROOT
HETATM    1  C   UNL     1      -8.004   7.730  69.729  1.00  0.00    -0.115 C  
HETATM    2  C   UNL     1      -9.158   7.592  70.712  1.00  0.00    -0.153 C  
ENDROOT
BRANCH   2   3
HETATM    3  N   UNL     1     -10.555   7.704  70.066  1.00  0.00    -0.234 N  
HETATM    4  C   UNL     1     -10.384   8.101  68.597  1.00  0.00    -0.200 C  
HETATM    5  C   UNL     1     -11.227   6.329  70.119  1.00  0.00    -0.403 C  
BRANCH   3   6
HETATM    6  C   UNL     1     -11.418   8.785  70.708  1.00  0.00    -0.270 A  
HETATM    7  C   UNL     1     -12.348   8.472  71.715  1.00  0.00    -0.388 A  
HETATM    8  C   UNL     1     -13.174   9.467  72.239  1.00  0.00    -0.446 A  
HETATM    9  O   UNL     1     -14.091   9.203  73.212  1.00  0.00    -1.165 OA 
HETATM   10  C   UNL     1     -13.104  10.773  71.778  1.00  0.00    -0.573 A  
HETATM   11  H   UNL     1     -14.654   9.881  73.568  1.00  0.00     0.000 HD 
HETATM   12  C   UNL     1     -12.208  11.092  70.765  1.00  0.00    -0.484 A  
HETATM   13  C   UNL     1     -11.381  10.103  70.223  1.00  0.00    -0.387 A  
ENDBRANCH   3   6
ENDBRANCH   2   3
TORSDOF 2
ENDMDL
MODEL       14
REMARK 921   NORMALIZED FREE ENERGY PREDICTED BY IDOCK:   -4.31 KCAL/MOL
REMARK 922        TOTAL FREE ENERGY PREDICTED BY IDOCK:   -4.98 KCAL/MOL
REMARK 923 INTER-LIGAND FREE ENERGY PREDICTED BY IDOCK:   -4.84 KCAL/MOL
REMARK 924 INTRA-LIGAND FREE ENERGY PREDICTED BY IDOCK:   -0.14 KCAL/MOL
REMARK 927      BINDING AFFINITY PREDICTED BY RF-SCORE:    0.00 PKD
ROOT
HETATM    1  C   UNL     1     -12.374  12.090  63.342  1.00  0.00    -0.635 C  
HETATM    2  C   UNL     1     -12.638  12.651  64.732  1.00  0.00    -0.454 C  
ENDROOT
BRANCH   2   3
HETATM    3  N   UNL     1     -11.362  12.914  65.560  1.00  0.00    -0.299 N  
HETATM    4  C   UNL     1     -10.395  11.744  65.353  1.00  0.00    -0.268 C  
HETATM    5  C   UNL     1     -10.696  14.190  65.035  1.00  0.00    -0.416 C  
BRANCH   3   6
HETATM    6  C   UNL     1     -11.635  12.990  67.059  1.00  0.00    -0.360 A  
HETATM    7  C   UNL     1     -11.951  14.211  67.681  1.00  0.00    -0.405 A  
HETATM    8  C   UNL     1     -12.130  14.266  69.063  1.00  0.00    -0.285 A  
HETATM    9  O   UNL     1     -12.431  15.430  69.704  1.00  0.00    -0.570 OA 
HETATM   10  C   UNL     1     -11.993  13.132  69.850  1.00  0.00    -0.387 A  
HETATM   11  H   UNL     1     -12.552  15.467  70.646  1.00  0.00     0.000 HD 
HETATM   12  C   UNL     1     -11.656  11.923  69.252  1.00  0.00    -0.376 A  
HETATM   13  C   UNL     1     -11.464  11.855  67.869  1.00  0.00    -0.385 A  
ENDBRANCH   3   6
ENDBRANCH   2   3
TORSDOF 2
ENDMDL
MODEL       15
REMARK 921   NORMALIZED FREE ENERGY PREDICTED BY IDOCK:   -4.30 KCAL/MOL
REMARK 922        TOTAL FREE ENERGY PREDICTED BY IDOCK:   -4.97 KCAL/MOL
REMARK 923 INTER-LIGAND FREE ENERGY PREDICTED BY IDOCK:   -4.80 KCAL/MOL
REMARK 924 INTRA-LIGAND FREE ENERGY PREDICTED BY IDOCK:   -0.17 KCAL/MOL
REMARK 927      BINDING AFFINITY PREDICTED BY RF-SCORE:    0.00 PKD
ROOT
HETATM    1  C   UNL     1     -10.523  16.561  69.287  1.00  0.00    -0.326 C  
HETATM    2  C   UNL     1     -11.695  15.725  68.793  1.00  0.00    -0.378 C  
ENDROOT
BRANCH   2   3
HETATM    3  N   UNL     1     -11.363  14.232  68.585  1.00  0.00    -0.259 N  
HETATM    4  C   UNL     1     -11.951  13.783  67.244  1.00  0.00    -0.401 C  
HETATM    5  C   UNL     1      -9.840  14.076  68.520  1.00  0.00    -0.225 C  
BRANCH   3   6
HETATM    6  C   UNL     1     -11.982  13.335  69.651  1.00  0.00    -0.314 A  
HETATM    7  C   UNL     1     -12.734  13.873  70.710  1.00  0.00    -0.383 A  
HETATM    8  C   UNL     1     -13.232  13.038  71.710  1.00  0.00    -0.392 A  
HETATM    9  O   UNL     1     -13.961  13.522  72.755  1.00  0.00    -0.733 OA 
HETATM   10  C   UNL     1     -12.993  11.672  71.689  1.00  0.00    -0.483 A  
HETATM   11  H   UNL     1     -14.299  12.952  73.436  1.00  0.00     0.000 HD 
HETATM   12  C   UNL     1     -12.231  11.128  70.662  1.00  0.00    -0.492 A  
HETATM   13  C   UNL     1     -11.716  11.954  69.659  1.00  0.00    -0.413 A  
ENDBRANCH   3   6
ENDBRANCH   2   3
TORSDOF 2
ENDMDL
MODEL       16
REMARK 921   NORMALIZED FREE ENERGY PREDICTED BY IDOCK:   -4.29 KCAL/MOL
REMARK 922        TOTAL FREE ENERGY PREDICTED BY IDOCK:   -4.95 KCAL/MOL
REMARK 923 INTER-LIGAND FREE ENERGY PREDICTED BY IDOCK:   -4.82 KCAL/MOL
REMARK 924 INTRA-LIGAND FREE ENERGY PREDICTED BY IDOCK:   -0.14 KCAL/MOL
REMARK 927      BINDING AFFINITY PREDICTED BY RF-SCORE:    0.00 PKD
ROOT
HETATM    1  C   UNL     1     -11.851  12.802  69.868  1.00  0.00    -0.371 C  
HETATM    2  C   UNL     1     -11.489  12.300  68.477  1.00  0.00    -0.303 C  
ENDROOT
BRANCH   2   3
HETATM    3  N   UNL     1     -10.990  13.401  67.518  1.00  0.00    -0.263 N  
HETATM    4  C   UNL     1     -11.881  14.636  67.684  1.00  0.00    -0.337 C  
HETATM    5  C   UNL     1      -9.560  13.781  67.915  1.00  0.00    -0.222 C  
BRANCH   3   6
HETATM    6  C   UNL     1     -11.084  12.994  66.051  1.00  0.00    -0.278 A  
HETATM    7  C   UNL     1     -11.807  13.766  65.125  1.00  0.00    -0.365 A  
HETATM    8  C   UNL     1     -11.936  13.336  63.804  1.00  0.00    -0.491 A  
HETATM    9  O   UNL     1     -12.633  14.052  62.878  1.00  0.00    -0.958 OA 
HETATM   10  C   UNL     1     -11.366  12.145  63.379  1.00  0.00    -0.495 A  
HETATM   11  H   UNL     1     -12.720  13.759  61.979  1.00  0.00     0.000 HD 
HETATM   12  C   UNL     1     -10.669  11.359  64.289  1.00  0.00    -0.420 A  
HETATM   13  C   UNL     1     -10.541  11.772  65.618  1.00  0.00    -0.314 A  
ENDBRANCH   3   6
ENDBRANCH   2   3
TORSDOF 2
ENDMDL
MODEL       17
REMARK 921   NORMALIZED FREE ENERGY PREDICTED BY IDOCK:   -4.28 KCAL/MOL
REMARK 922        TOTAL FREE ENERGY PREDICTED BY IDOCK:   -4.95 KCAL/MOL
REMARK 923 INTER-LIGAND FREE ENERGY PREDICTED BY IDOCK:   -4.81 KCAL/MOL
REMARK 924 INTRA-LIGAND FREE ENERGY PREDICTED BY IDOCK:   -0.14 KCAL/MOL
REMARK 927      BINDING AFFINITY PREDICTED BY RF-SCORE:    0.00 PKD
ROOT
HETATM    1  C   UNL     1      -9.652   8.283  66.533  1.00  0.00    -0.312 C  
HETATM    2  C   UNL     1     -10.322   9.630  66.765  1.00  0.00    -0.222 C  
ENDROOT
BRANCH   2   3
HETATM    3  N   UNL     1      -9.821  10.753  65.833  1.00  0.00    -0.227 N  
HETATM    4  C   UNL     1      -8.557  11.367  66.443  1.00  0.00    -0.174 C  
HETATM    5  C   UNL     1      -9.452  10.135  64.480  1.00  0.00    -0.303 C  
BRANCH   3   6
HETATM    6  C   UNL     1     -10.826  11.890  65.684  1.00  0.00    -0.286 A  
HETATM    7  C   UNL     1     -11.196  12.374  64.417  1.00  0.00    -0.384 A  
HETATM    8  C   UNL     1     -12.066  13.460  64.310  1.00  0.00    -0.424 A  
HETATM    9  O   UNL     1     -12.444  13.963  63.101  1.00  0.00    -1.121 OA 
HETATM   10  C   UNL     1     -12.575  14.086  65.438  1.00  0.00    -0.529 A  
HETATM   11  H   UNL     1     -13.036  14.702  63.028  1.00  0.00     0.000 HD 
HETATM   12  C   UNL     1     -12.198  13.634  66.697  1.00  0.00    -0.437 A  
HETATM   13  C   UNL     1     -11.320  12.554  66.820  1.00  0.00    -0.390 A  
ENDBRANCH   3   6
ENDBRANCH   2   3
TORSDOF 2
ENDMDL
MODEL       18
REMARK 921   NORMALIZED FREE ENERGY PREDICTED BY IDOCK:   -4.25 KCAL/MOL
REMARK 922        TOTAL FREE ENERGY PREDICTED BY IDOCK:   -4.92 KCAL/MOL
REMARK 923 INTER-LIGAND FREE ENERGY PREDICTED BY IDOCK:   -4.77 KCAL/MOL
REMARK 924 INTRA-LIGAND FREE ENERGY PREDICTED BY IDOCK:   -0.14 KCAL/MOL
REMARK 927      BINDING AFFINITY PREDICTED BY RF-SCORE:    0.00 PKD
ROOT
HETATM    1  C   UNL     1     -11.834  12.238  63.340  1.00  0.00    -0.563 C  
HETATM    2  C   UNL     1     -10.744  12.762  64.265  1.00  0.00    -0.394 C  
ENDROOT
BRANCH   2   3
HETATM    3  N   UNL     1     -11.172  13.969  65.126  1.00  0.00    -0.316 N  
HETATM    4  C   UNL     1     -10.039  14.998  65.122  1.00  0.00    -0.315 C  
HETATM    5  C   UNL     1     -12.408  14.609  64.487  1.00  0.00    -0.398 C  
BRANCH   3   6
HETATM    6  C   UNL     1     -11.414  13.597  66.585  1.00  0.00    -0.343 A  
HETATM    7  C   UNL     1     -11.697  12.272  66.963  1.00  0.00    -0.399 A  
HETATM    8  C   UNL     1     -11.982  11.970  68.294  1.00  0.00    -0.179 A  
HETATM    9  O   UNL     1     -12.266  10.700  68.699  1.00  0.00    -0.814 OA 
HETATM   10  C   UNL     1     -12.001  12.959  69.267  1.00  0.00    -0.313 A  
HETATM   11  H   UNL     1     -12.460  10.494  69.606  1.00  0.00     0.000 HD 
HETATM   12  C   UNL     1     -11.749  14.276  68.904  1.00  0.00    -0.363 A  
HETATM   13  C   UNL     1     -11.472  14.596  67.572  1.00  0.00    -0.378 A  
ENDBRANCH   3   6
ENDBRANCH   2   3
TORSDOF 2
ENDMDL
MODEL       19
REMARK 921   NORMALIZED FREE ENERGY PREDICTED BY IDOCK:   -4.25 KCAL/MOL
REMARK 922        TOTAL FREE ENERGY PREDICTED BY IDOCK:   -4.92 KCAL/MOL
REMARK 923 INTER-LIGAND FREE ENERGY PREDICTED BY IDOCK:   -4.74 KCAL/MOL
REMARK 924 INTRA-LIGAND FREE ENERGY PREDICTED BY IDOCK:   -0.18 KCAL/MOL
REMARK 927      BINDING AFFINITY PREDICTED BY RF-SCORE:    0.00 PKD
ROOT
HETATM    1  C   UNL     1      -8.341  12.331  68.194  1.00  0.00    -0.174 C  
HETATM    2  C   UNL     1      -9.148  13.565  67.815  1.00  0.00    -0.207 C  
ENDROOT
BRANCH   2   3
HETATM    3  N   UNL     1     -10.664  13.309  67.671  1.00  0.00    -0.237 N  
HETATM    4  C   UNL     1     -10.958  11.868  68.098  1.00  0.00    -0.227 C  
HETATM    5  C   UNL     1     -11.408  14.255  68.619  1.00  0.00    -0.275 C  
BRANCH   3   6
HETATM    6  C   UNL     1     -11.152  13.443  66.233  1.00  0.00    -0.293 A  
HETATM    7  C   UNL     1     -11.444  14.701  65.677  1.00  0.00    -0.340 A  
HETATM    8  C   UNL     1     -11.955  14.792  64.382  1.00  0.00    -0.417 A  
HETATM    9  O   UNL     1     -12.256  15.991  63.809  1.00  0.00    -1.269 OA 
HETATM   10  C   UNL     1     -12.191  13.656  63.622  1.00  0.00    -0.376 A  
HETATM   11  H   UNL     1     -12.604  16.053  62.927  1.00  0.00     0.000 HD 
HETATM   12  C   UNL     1     -11.930  12.404  64.168  1.00  0.00    -0.518 A  
HETATM   13  C   UNL     1     -11.429  12.297  65.468  1.00  0.00    -0.408 A  
ENDBRANCH   3   6
ENDBRANCH   2   3
TORSDOF 2
ENDMDL
MODEL       20
REMARK 921   NORMALIZED FREE ENERGY PREDICTED BY IDOCK:   -4.23 KCAL/MOL
REMARK 922        TOTAL FREE ENERGY PREDICTED BY IDOCK:   -4.89 KCAL/MOL
REMARK 923 INTER-LIGAND FREE ENERGY PREDICTED BY IDOCK:   -4.72 KCAL/MOL
REMARK 924 INTRA-LIGAND FREE ENERGY PREDICTED BY IDOCK:   -0.17 KCAL/MOL
REMARK 927      BINDING AFFINITY PREDICTED BY RF-SCORE:    0.00 PKD
ROOT
HETATM    1  C   UNL     1     -12.510  13.988  66.175  1.00  0.00    -0.467 C  
HETATM    2  C   UNL     1     -11.629  13.134  67.076  1.00  0.00    -0.359 C  
ENDROOT
BRANCH   2   3
HETATM    3  N   UNL     1     -11.301  13.782  68.438  1.00  0.00    -0.274 N  
HETATM    4  C   UNL     1      -9.792  13.675  68.679  1.00  0.00    -0.138 C  
HETATM    5  C   UNL     1     -11.675  15.266  68.374  1.00  0.00    -0.321 C  
BRANCH   3   6
HETATM    6  C   UNL     1     -11.978  13.075  69.607  1.00  0.00    -0.302 A  
HETATM    7  C   UNL     1     -12.524  13.800  70.680  1.00  0.00    -0.429 A  
HETATM    8  C   UNL     1     -13.077  13.127  71.771  1.00  0.00    -0.383 A  
HETATM    9  O   UNL     1     -13.611  13.794  72.832  1.00  0.00    -0.681 OA 
HETATM   10  C   UNL     1     -13.093  11.742  71.825  1.00  0.00    -0.480 A  
HETATM   11  H   UNL     1     -13.987  13.335  73.575  1.00  0.00     0.000 HD 
HETATM   12  C   UNL     1     -12.534  11.011  70.784  1.00  0.00    -0.491 A  
HETATM   13  C   UNL     1     -11.967  11.671  69.690  1.00  0.00    -0.390 A  
ENDBRANCH   3   6
ENDBRANCH   2   3
TORSDOF 2
ENDMDL
MODEL       21
REMARK 921   NORMALIZED FREE ENERGY PREDICTED BY IDOCK:   -4.22 KCAL/MOL
REMARK 922        TOTAL FREE ENERGY PREDICTED BY IDOCK:   -4.88 KCAL/MOL
REMARK 923 INTER-LIGAND FREE ENERGY PREDICTED BY IDOCK:   -4.72 KCAL/MOL
REMARK 924 INTRA-LIGAND FREE ENERGY PREDICTED BY IDOCK:   -0.16 KCAL/MOL
REMARK 927      BINDING AFFINITY PREDICTED BY RF-SCORE:    0.00 PKD
ROOT
HETATM    1  C   UNL     1     -12.210  12.183  63.576  1.00  0.00    -0.670 C  
HETATM    2  C   UNL     1     -11.295  12.168  64.792  1.00  0.00    -0.325 C  
ENDROOT
BRANCH   2   3
HETATM    3  N   UNL     1     -11.524  13.341  65.770  1.00  0.00    -0.315 N  
HETATM    4  C   UNL     1     -10.333  14.298  65.673  1.00  0.00    -0.336 C  
HETATM    5  C   UNL     1     -12.786  14.095  65.338  1.00  0.00    -0.431 C  
BRANCH   3   6
HETATM    6  C   UNL     1     -11.601  12.890  67.225  1.00  0.00    -0.360 A  
HETATM    7  C   UNL     1     -11.633  11.527  67.565  1.00  0.00    -0.322 A  
HETATM    8  C   UNL     1     -11.772  11.141  68.898  1.00  0.00    -0.337 A  
HETATM    9  O   UNL     1     -11.813   9.830  69.268  1.00  0.00    -0.432 OA 
HETATM   10  C   UNL     1     -11.889  12.084  69.909  1.00  0.00    -0.405 A  
HETATM   11  H   UNL     1     -11.908   9.568  70.177  1.00  0.00     0.000 HD 
HETATM   12  C   UNL     1     -11.884  13.435  69.586  1.00  0.00    -0.394 A  
HETATM   13  C   UNL     1     -11.756  13.836  68.253  1.00  0.00    -0.394 A  
ENDBRANCH   3   6
ENDBRANCH   2   3
TORSDOF 2
ENDMDL
MODEL       22
REMARK 921   NORMALIZED FREE ENERGY PREDICTED BY IDOCK:   -4.21 KCAL/MOL
REMARK 922        TOTAL FREE ENERGY PREDICTED BY IDOCK:   -4.87 KCAL/MOL
REMARK 923 INTER-LIGAND FREE ENERGY PREDICTED BY IDOCK:   -4.69 KCAL/MOL
REMARK 924 INTRA-LIGAND FREE ENERGY PREDICTED BY IDOCK:   -0.18 KCAL/MOL
REMARK 927      BINDING AFFINITY PREDICTED BY RF-SCORE:    0.00 PKD
ROOT
HETATM    1  C   UNL     1     -12.064  12.178  63.614  1.00  0.00    -0.648 C  
HETATM    2  C   UNL     1     -10.995  12.432  64.668  1.00  0.00    -0.305 C  
ENDROOT
BRANCH   2   3
HETATM    3  N   UNL     1     -11.438  13.384  65.800  1.00  0.00    -0.314 N  
HETATM    4  C   UNL     1     -10.373  14.472  65.968  1.00  0.00    -0.309 C  
HETATM    5  C   UNL     1     -12.751  14.054  65.387  1.00  0.00    -0.471 C  
BRANCH   3   6
HETATM    6  C   UNL     1     -11.556  12.682  67.149  1.00  0.00    -0.368 A  
HETATM    7  C   UNL     1     -11.780  13.409  68.331  1.00  0.00    -0.390 A  
HETATM    8  C   UNL     1     -11.817  12.752  69.561  1.00  0.00    -0.316 A  
HETATM    9  O   UNL     1     -12.026  13.421  70.729  1.00  0.00    -0.493 OA 
HETATM   10  C   UNL     1     -11.626  11.380  69.647  1.00  0.00    -0.399 A  
HETATM   11  H   UNL     1     -12.050  12.972  71.567  1.00  0.00     0.000 HD 
HETATM   12  C   UNL     1     -11.379  10.652  68.490  1.00  0.00    -0.348 A  
HETATM   13  C   UNL     1     -11.329  11.299  67.252  1.00  0.00    -0.329 A  
ENDBRANCH   3   6
ENDBRANCH   2   3
TORSDOF 2
ENDMDL
MODEL       23
REMARK 921   NORMALIZED FREE ENERGY PREDICTED BY IDOCK:   -4.20 KCAL/MOL
REMARK 922        TOTAL FREE ENERGY PREDICTED BY IDOCK:   -4.86 KCAL/MOL
REMARK 923 INTER-LIGAND FREE ENERGY PREDICTED BY IDOCK:   -4.72 KCAL/MOL
REMARK 924 INTRA-LIGAND FREE ENERGY PREDICTED BY IDOCK:   -0.14 KCAL/MOL
REMARK 927      BINDING AFFINITY PREDICTED BY RF-SCORE:    0.00 PKD
ROOT
HETATM    1  C   UNL     1     -11.536  12.304  65.804  1.00  0.00    -0.443 C  
HETATM    2  C   UNL     1     -11.781  12.887  67.188  1.00  0.00    -0.377 C  
ENDROOT
BRANCH   2   3
HETATM    3  N   UNL     1     -11.143  12.077  68.337  1.00  0.00    -0.226 N  
HETATM    4  C   UNL     1     -11.257  10.586  68.006  1.00  0.00    -0.294 C  
HETATM    5  C   UNL     1      -9.658  12.440  68.422  1.00  0.00    -0.180 C  
BRANCH   3   6
HETATM    6  C   UNL     1     -11.856  12.280  69.669  1.00  0.00    -0.324 A  
HETATM    7  C   UNL     1     -12.280  11.186  70.444  1.00  0.00    -0.457 A  
HETATM    8  C   UNL     1     -12.991  11.398  71.625  1.00  0.00    -0.418 A  
HETATM    9  O   UNL     1     -13.423  10.365  72.401  1.00  0.00    -0.612 OA 
HETATM   10  C   UNL     1     -13.300  12.680  72.056  1.00  0.00    -0.555 A  
HETATM   11  H   UNL     1     -13.908  10.510  73.205  1.00  0.00     0.000 HD 
HETATM   12  C   UNL     1     -12.910  13.770  71.288  1.00  0.00    -0.434 A  
HETATM   13  C   UNL     1     -12.207  13.573  70.097  1.00  0.00    -0.400 A  
ENDBRANCH   3   6
ENDBRANCH   2   3
TORSDOF 2
ENDMDL
MODEL       24
REMARK 921   NORMALIZED FREE ENERGY PREDICTED BY IDOCK:   -4.19 KCAL/MOL
REMARK 922        TOTAL FREE ENERGY PREDICTED BY IDOCK:   -4.84 KCAL/MOL
REMARK 923 INTER-LIGAND FREE ENERGY PREDICTED BY IDOCK:   -4.67 KCAL/MOL
REMARK 924 INTRA-LIGAND FREE ENERGY PREDICTED BY IDOCK:   -0.18 KCAL/MOL
REMARK 927      BINDING AFFINITY PREDICTED BY RF-SCORE:    0.00 PKD
ROOT
HETATM    1  C   UNL     1     -10.709   9.976  68.657  1.00  0.00    -0.256 C  
HETATM    2  C   UNL     1     -11.661  11.119  68.333  1.00  0.00    -0.306 C  
ENDROOT
BRANCH   2   3
HETATM    3  N   UNL     1     -10.980  12.342  67.682  1.00  0.00    -0.227 N  
HETATM    4  C   UNL     1     -11.461  13.607  68.399  1.00  0.00    -0.311 C  
HETATM    5  C   UNL     1      -9.466  12.220  67.882  1.00  0.00    -0.200 C  
BRANCH   3   6
HETATM    6  C   UNL     1     -11.349  12.511  66.212  1.00  0.00    -0.338 A  
HETATM    7  C   UNL     1     -10.870  11.622  65.234  1.00  0.00    -0.340 A  
HETATM    8  C   UNL     1     -11.165  11.837  63.888  1.00  0.00    -0.414 A  
HETATM    9  O   UNL     1     -10.715  11.002  62.910  1.00  0.00    -0.794 OA 
HETATM   10  C   UNL     1     -11.924  12.926  63.485  1.00  0.00    -0.629 A  
HETATM   11  H   UNL     1     -10.916  11.149  61.993  1.00  0.00     0.000 HD 
HETATM   12  C   UNL     1     -12.384  13.827  64.438  1.00  0.00    -0.389 A  
HETATM   13  C   UNL     1     -12.087  13.630  65.790  1.00  0.00    -0.463 A  
ENDBRANCH   3   6
ENDBRANCH   2   3
TORSDOF 2
ENDMDL
MODEL       25
REMARK 921   NORMALIZED FREE ENERGY PREDICTED BY IDOCK:   -4.12 KCAL/MOL
REMARK 922        TOTAL FREE ENERGY PREDICTED BY IDOCK:   -4.77 KCAL/MOL
REMARK 923 INTER-LIGAND FREE ENERGY PREDICTED BY IDOCK:   -4.53 KCAL/MOL
REMARK 924 INTRA-LIGAND FREE ENERGY PREDICTED BY IDOCK:   -0.24 KCAL/MOL
REMARK 927      BINDING AFFINITY PREDICTED BY RF-SCORE:    0.00 PKD
ROOT
HETATM    1  C   UNL     1      -9.854   8.179  72.861  1.00  0.00    -0.339 C  
HETATM    2  C   UNL     1     -11.323   7.785  72.796  1.00  0.00    -0.389 C  
ENDROOT
BRANCH   2   3
HETATM    3  N   UNL     1     -12.013   8.137  71.461  1.00  0.00    -0.288 N  
HETATM    4  C   UNL     1     -11.154   7.603  70.311  1.00  0.00    -0.244 C  
HETATM    5  C   UNL     1     -13.372   7.432  71.415  1.00  0.00    -0.334 C  
BRANCH   3   6
HETATM    6  C   UNL     1     -12.144   9.641  71.242  1.00  0.00    -0.371 A  
HETATM    7  C   UNL     1     -12.974  10.427  72.060  1.00  0.00    -0.499 A  
HETATM    8  C   UNL     1     -13.130  11.788  71.797  1.00  0.00    -0.375 A  
HETATM    9  O   UNL     1     -13.929  12.582  72.563  1.00  0.00    -0.535 OA 
HETATM   10  C   UNL     1     -12.483  12.390  70.729  1.00  0.00    -0.356 A  
HETATM   11  H   UNL     1     -14.035  13.509  72.384  1.00  0.00     0.000 HD 
HETATM   12  C   UNL     1     -11.679  11.621  69.896  1.00  0.00    -0.414 A  
HETATM   13  C   UNL     1     -11.522  10.254  70.141  1.00  0.00    -0.383 A  
ENDBRANCH   3   6
ENDBRANCH   2   3
TORSDOF 2
ENDMDL
MODEL       26
REMARK 921   NORMALIZED FREE ENERGY PREDICTED BY IDOCK:   -4.12 KCAL/MOL
REMARK 922        TOTAL FREE ENERGY PREDICTED BY IDOCK:   -4.76 KCAL/MOL
REMARK 923 INTER-LIGAND FREE ENERGY PREDICTED BY IDOCK:   -4.59 KCAL/MOL
REMARK 924 INTRA-LIGAND FREE ENERGY PREDICTED BY IDOCK:   -0.18 KCAL/MOL
REMARK 927      BINDING AFFINITY PREDICTED BY RF-SCORE:    0.00 PKD
ROOT
HETATM    1  C   UNL     1     -10.565  13.954  65.044  1.00  0.00    -0.418 C  
HETATM    2  C   UNL     1     -11.215  14.769  66.153  1.00  0.00    -0.337 C  
ENDROOT
BRANCH   2   3
HETATM    3  N   UNL     1     -10.215  15.376  67.160  1.00  0.00    -0.247 N  
HETATM    4  C   UNL     1     -10.604  14.920  68.570  1.00  0.00    -0.245 C  
HETATM    5  C   UNL     1      -8.818  14.833  66.846  1.00  0.00    -0.248 C  
BRANCH   3   6
HETATM    6  C   UNL     1     -10.243  16.900  67.176  1.00  0.00    -0.297 A  
HETATM    7  C   UNL     1     -10.188  17.618  68.383  1.00  0.00    -0.381 A  
HETATM    8  C   UNL     1     -10.284  19.010  68.375  1.00  0.00    -0.377 A  
HETATM    9  O   UNL     1     -10.240  19.742  69.523  1.00  0.00    -0.633 OA 
HETATM   10  C   UNL     1     -10.444  19.711  67.188  1.00  0.00    -0.595 A  
HETATM   11  H   UNL     1     -10.307  20.689  69.517  1.00  0.00     0.000 HD 
HETATM   12  C   UNL     1     -10.525  19.013  65.989  1.00  0.00    -0.530 A  
HETATM   13  C   UNL     1     -10.441  17.618  65.983  1.00  0.00    -0.278 A  
ENDBRANCH   3   6
ENDBRANCH   2   3
TORSDOF 2
ENDMDL
MODEL       27
REMARK 921   NORMALIZED FREE ENERGY PREDICTED BY IDOCK:   -4.12 KCAL/MOL
REMARK 922        TOTAL FREE ENERGY PREDICTED BY IDOCK:   -4.76 KCAL/MOL
REMARK 923 INTER-LIGAND FREE ENERGY PREDICTED BY IDOCK:   -4.58 KCAL/MOL
REMARK 924 INTRA-LIGAND FREE ENERGY PREDICTED BY IDOCK:   -0.19 KCAL/MOL
REMARK 927      BINDING AFFINITY PREDICTED BY RF-SCORE:    0.00 PKD
ROOT
HETATM    1  C   UNL     1     -11.977  13.689  69.343  1.00  0.00    -0.394 C  
HETATM    2  C   UNL     1     -11.911  14.575  68.108  1.00  0.00    -0.313 C  
ENDROOT
BRANCH   2   3
HETATM    3  N   UNL     1     -10.672  14.330  67.220  1.00  0.00    -0.275 N  
HETATM    4  C   UNL     1     -10.150  15.683  66.726  1.00  0.00    -0.272 C  
HETATM    5  C   UNL     1      -9.583  13.675  68.075  1.00  0.00    -0.216 C  
BRANCH   3   6
HETATM    6  C   UNL     1     -10.991  13.508  65.975  1.00  0.00    -0.275 A  
HETATM    7  C   UNL     1      -9.977  13.106  65.088  1.00  0.00    -0.170 A  
HETATM    8  C   UNL     1     -10.301  12.414  63.921  1.00  0.00    -0.423 A  
HETATM    9  O   UNL     1      -9.349  12.012  63.034  1.00  0.00    -0.641 OA 
HETATM   10  C   UNL     1     -11.619  12.116  63.608  1.00  0.00    -0.575 A  
HETATM   11  H   UNL     1      -9.571  11.541  62.239  1.00  0.00     0.000 HD 
HETATM   12  C   UNL     1     -12.634  12.529  64.462  1.00  0.00    -0.503 A  
HETATM   13  C   UNL     1     -12.325  13.233  65.629  1.00  0.00    -0.521 A  
ENDBRANCH   3   6
ENDBRANCH   2   3
TORSDOF 2
ENDMDL
MODEL       28
REMARK 921   NORMALIZED FREE ENERGY PREDICTED BY IDOCK:   -4.07 KCAL/MOL
REMARK 922        TOTAL FREE ENERGY PREDICTED BY IDOCK:   -4.71 KCAL/MOL
REMARK 923 INTER-LIGAND FREE ENERGY PREDICTED BY IDOCK:   -4.57 KCAL/MOL
REMARK 924 INTRA-LIGAND FREE ENERGY PREDICTED BY IDOCK:   -0.14 KCAL/MOL
REMARK 927      BINDING AFFINITY PREDICTED BY RF-SCORE:    0.00 PKD
ROOT
HETATM    1  C   UNL     1     -11.933  13.187  66.606  1.00  0.00    -0.451 C  
HETATM    2  C   UNL     1     -11.887  14.654  67.008  1.00  0.00    -0.337 C  
ENDROOT
BRANCH   2   3
HETATM    3  N   UNL     1     -10.705  15.439  66.399  1.00  0.00    -0.310 N  
HETATM    4  C   UNL     1      -9.413  14.660  66.663  1.00  0.00    -0.278 C  
HETATM    5  C   UNL     1     -10.911  15.532  64.884  1.00  0.00    -0.436 C  
BRANCH   3   6
HETATM    6  C   UNL     1     -10.519  16.813  67.034  1.00  0.00    -0.285 A  
HETATM    7  C   UNL     1     -10.392  17.969  66.244  1.00  0.00    -0.384 A  
HETATM    8  C   UNL     1     -10.155  19.205  66.846  1.00  0.00    -0.373 A  
HETATM    9  O   UNL     1     -10.020  20.348  66.116  1.00  0.00    -0.593 OA 
HETATM   10  C   UNL     1     -10.031  19.321  68.223  1.00  0.00    -0.497 A  
HETATM   11  H   UNL     1      -9.858  21.189  66.526  1.00  0.00     0.000 HD 
HETATM   12  C   UNL     1     -10.129  18.183  69.015  1.00  0.00    -0.290 A  
HETATM   13  C   UNL     1     -10.356  16.936  68.425  1.00  0.00    -0.338 A  
ENDBRANCH   3   6
ENDBRANCH   2   3
TORSDOF 2
ENDMDL
MODEL       29
REMARK 921   NORMALIZED FREE ENERGY PREDICTED BY IDOCK:   -4.06 KCAL/MOL
REMARK 922        TOTAL FREE ENERGY PREDICTED BY IDOCK:   -4.70 KCAL/MOL
REMARK 923 INTER-LIGAND FREE ENERGY PREDICTED BY IDOCK:   -4.48 KCAL/MOL
REMARK 924 INTRA-LIGAND FREE ENERGY PREDICTED BY IDOCK:   -0.22 KCAL/MOL
REMARK 927      BINDING AFFINITY PREDICTED BY RF-SCORE:    0.00 PKD
ROOT
HETATM    1  C   UNL     1      -8.525  13.304  67.564  1.00  0.00    -0.202 C  
HETATM    2  C   UNL     1      -9.929  13.070  68.104  1.00  0.00    -0.231 C  
ENDROOT
BRANCH   2   3
HETATM    3  N   UNL     1     -10.606  11.790  67.569  1.00  0.00    -0.208 N  
HETATM    4  C   UNL     1      -9.562  10.670  67.517  1.00  0.00    -0.161 C  
HETATM    5  C   UNL     1     -11.708  11.376  68.549  1.00  0.00    -0.318 C  
BRANCH   3   6
HETATM    6  C   UNL     1     -11.138  11.952  66.149  1.00  0.00    -0.326 A  
HETATM    7  C   UNL     1     -10.536  11.290  65.065  1.00  0.00    -0.359 A  
HETATM    8  C   UNL     1     -10.998  11.508  63.767  1.00  0.00    -0.409 A  
HETATM    9  O   UNL     1     -10.438  10.890  62.690  1.00  0.00    -0.760 OA 
HETATM   10  C   UNL     1     -12.047  12.381  63.517  1.00  0.00    -0.651 A  
HETATM   11  H   UNL     1     -10.753  11.040  61.806  1.00  0.00     0.000 HD 
HETATM   12  C   UNL     1     -12.636  13.061  64.576  1.00  0.00    -0.387 A  
HETATM   13  C   UNL     1     -12.176  12.861  65.880  1.00  0.00    -0.469 A  
ENDBRANCH   3   6
ENDBRANCH   2   3
TORSDOF 2
ENDMDL
MODEL       30
REMARK 921   NORMALIZED FREE ENERGY PREDICTED BY IDOCK:   -4.04 KCAL/MOL
REMARK 922        TOTAL FREE ENERGY PREDICTED BY IDOCK:   -4.68 KCAL/MOL
REMARK 923 INTER-LIGAND FREE ENERGY PREDICTED BY IDOCK:   -4.55 KCAL/MOL
REMARK 924 INTRA-LIGAND FREE ENERGY PREDICTED BY IDOCK:   -0.13 KCAL/MOL
REMARK 927      BINDING AFFINITY PREDICTED BY RF-SCORE:    0.00 PKD
ROOT
HETATM    1  C   UNL     1      -7.414   7.492  72.362  1.00  0.00    -0.082 C  
HETATM    2  C   UNL     1      -8.681   8.325  72.492  1.00  0.00    -0.217 C  
ENDROOT
BRANCH   2   3
HETATM    3  N   UNL     1      -9.734   8.051  71.398  1.00  0.00    -0.160 N  
HETATM    4  C   UNL     1      -9.128   8.406  70.037  1.00  0.00    -0.150 C  
HETATM    5  C   UNL     1     -10.064   6.555  71.404  1.00  0.00    -0.191 C  
BRANCH   3   6
HETATM    6  C   UNL     1     -10.984   8.910  71.552  1.00  0.00    -0.328 A  
HETATM    7  C   UNL     1     -12.047   8.509  72.381  1.00  0.00    -0.436 A  
HETATM    8  C   UNL     1     -13.208   9.278  72.452  1.00  0.00    -0.426 A  
HETATM    9  O   UNL     1     -14.261   8.920  73.239  1.00  0.00    -1.197 OA 
HETATM   10  C   UNL     1     -13.345  10.441  71.709  1.00  0.00    -0.456 A  
HETATM   11  H   UNL     1     -15.052   9.445  73.287  1.00  0.00     0.000 HD 
HETATM   12  C   UNL     1     -12.313  10.837  70.866  1.00  0.00    -0.497 A  
HETATM   13  C   UNL     1     -11.148  10.071  70.776  1.00  0.00    -0.407 A  
ENDBRANCH   3   6
ENDBRANCH   2   3
TORSDOF 2
ENDMDL
MODEL       31
REMARK 921   NORMALIZED FREE ENERGY PREDICTED BY IDOCK:   -4.03 KCAL/MOL
REMARK 922        TOTAL FREE ENERGY PREDICTED BY IDOCK:   -4.67 KCAL/MOL
REMARK 923 INTER-LIGAND FREE ENERGY PREDICTED BY IDOCK:   -4.54 KCAL/MOL
REMARK 924 INTRA-LIGAND FREE ENERGY PREDICTED BY IDOCK:   -0.14 KCAL/MOL
REMARK 927      BINDING AFFINITY PREDICTED BY RF-SCORE:    0.00 PKD
ROOT
HETATM    1  C   UNL     1     -11.325  11.293  69.341  1.00  0.00    -0.360 C  
HETATM    2  C   UNL     1     -10.361  12.126  68.509  1.00  0.00    -0.221 C  
ENDROOT
BRANCH   2   3
HETATM    3  N   UNL     1     -10.804  13.591  68.304  1.00  0.00    -0.251 N  
HETATM    4  C   UNL     1     -11.964  13.888  69.260  1.00  0.00    -0.357 C  
HETATM    5  C   UNL     1      -9.633  14.509  68.667  1.00  0.00    -0.219 C  
BRANCH   3   6
HETATM    6  C   UNL     1     -11.323  13.860  66.896  1.00  0.00    -0.328 A  
HETATM    7  C   UNL     1     -12.154  12.937  66.237  1.00  0.00    -0.433 A  
HETATM    8  C   UNL     1     -12.560  13.174  64.923  1.00  0.00    -0.407 A  
HETATM    9  O   UNL     1     -13.359  12.302  64.248  1.00  0.00    -0.777 OA 
HETATM   10  C   UNL     1     -12.151  14.311  64.241  1.00  0.00    -0.467 A  
HETATM   11  H   UNL     1     -13.635  12.464  63.353  1.00  0.00     0.000 HD 
HETATM   12  C   UNL     1     -11.310  15.220  64.871  1.00  0.00    -0.387 A  
HETATM   13  C   UNL     1     -10.887  14.990  66.183  1.00  0.00    -0.329 A  
ENDBRANCH   3   6
ENDBRANCH   2   3
TORSDOF 2
ENDMDL
MODEL       32
REMARK 921   NORMALIZED FREE ENERGY PREDICTED BY IDOCK:   -4.03 KCAL/MOL
REMARK 922        TOTAL FREE ENERGY PREDICTED BY IDOCK:   -4.67 KCAL/MOL
REMARK 923 INTER-LIGAND FREE ENERGY PREDICTED BY IDOCK:   -4.52 KCAL/MOL
REMARK 924 INTRA-LIGAND FREE ENERGY PREDICTED BY IDOCK:   -0.14 KCAL/MOL
REMARK 927      BINDING AFFINITY PREDICTED BY RF-SCORE:    0.00 PKD
ROOT
HETATM    1  C   UNL     1     -11.902  12.757  63.542  1.00  0.00    -0.618 C  
HETATM    2  C   UNL     1     -12.106  13.890  64.538  1.00  0.00    -0.443 C  
ENDROOT
BRANCH   2   3
HETATM    3  N   UNL     1     -11.268  13.756  65.828  1.00  0.00    -0.295 N  
HETATM    4  C   UNL     1     -12.027  12.863  66.813  1.00  0.00    -0.350 C  
HETATM    5  C   UNL     1      -9.943  13.071  65.478  1.00  0.00    -0.214 C  
BRANCH   3   6
HETATM    6  C   UNL     1     -11.050  15.091  66.532  1.00  0.00    -0.329 A  
HETATM    7  C   UNL     1     -10.448  16.175  65.870  1.00  0.00    -0.366 A  
HETATM    8  C   UNL     1     -10.197  17.363  66.556  1.00  0.00    -0.329 A  
HETATM    9  O   UNL     1      -9.611  18.434  65.952  1.00  0.00    -0.499 OA 
HETATM   10  C   UNL     1     -10.526  17.499  67.897  1.00  0.00    -0.384 A  
HETATM   11  H   UNL     1      -9.440  19.243  66.420  1.00  0.00     0.000 HD 
HETATM   12  C   UNL     1     -11.099  16.428  68.572  1.00  0.00    -0.357 A  
HETATM   13  C   UNL     1     -11.345  15.228  67.899  1.00  0.00    -0.339 A  
ENDBRANCH   3   6
ENDBRANCH   2   3
TORSDOF 2
ENDMDL
MODEL       33
REMARK 921   NORMALIZED FREE ENERGY PREDICTED BY IDOCK:   -4.02 KCAL/MOL
REMARK 922        TOTAL FREE ENERGY PREDICTED BY IDOCK:   -4.66 KCAL/MOL
REMARK 923 INTER-LIGAND FREE ENERGY PREDICTED BY IDOCK:   -4.52 KCAL/MOL
REMARK 924 INTRA-LIGAND FREE ENERGY PREDICTED BY IDOCK:   -0.15 KCAL/MOL
REMARK 927      BINDING AFFINITY PREDICTED BY RF-SCORE:    0.00 PKD
ROOT
HETATM    1  C   UNL     1      -9.593  16.065  69.231  1.00  0.00    -0.255 C  
HETATM    2  C   UNL     1     -10.504  15.342  68.249  1.00  0.00    -0.241 C  
ENDROOT
BRANCH   2   3
HETATM    3  N   UNL     1     -10.047  15.435  66.777  1.00  0.00    -0.256 N  
HETATM    4  C   UNL     1     -10.529  16.768  66.199  1.00  0.00    -0.277 C  
HETATM    5  C   UNL     1      -8.516  15.418  66.741  1.00  0.00    -0.272 C  
BRANCH   3   6
HETATM    6  C   UNL     1     -10.649  14.341  65.902  1.00  0.00    -0.302 A  
HETATM    7  C   UNL     1     -11.357  14.653  64.729  1.00  0.00    -0.398 A  
HETATM    8  C   UNL     1     -11.957  13.639  63.982  1.00  0.00    -0.431 A  
HETATM    9  O   UNL     1     -12.656  13.901  62.842  1.00  0.00    -0.966 OA 
HETATM   10  C   UNL     1     -11.877  12.312  64.380  1.00  0.00    -0.464 A  
HETATM   11  H   UNL     1     -13.064  13.210  62.334  1.00  0.00     0.000 HD 
HETATM   12  C   UNL     1     -11.202  11.991  65.551  1.00  0.00    -0.372 A  
HETATM   13  C   UNL     1     -10.606  12.998  66.315  1.00  0.00    -0.283 A  
ENDBRANCH   3   6
ENDBRANCH   2   3
TORSDOF 2
ENDMDL
MODEL       34
REMARK 921   NORMALIZED FREE ENERGY PREDICTED BY IDOCK:   -4.01 KCAL/MOL
REMARK 922        TOTAL FREE ENERGY PREDICTED BY IDOCK:   -4.65 KCAL/MOL
REMARK 923 INTER-LIGAND FREE ENERGY PREDICTED BY IDOCK:   -4.50 KCAL/MOL
REMARK 924 INTRA-LIGAND FREE ENERGY PREDICTED BY IDOCK:   -0.15 KCAL/MOL
REMARK 927      BINDING AFFINITY PREDICTED BY RF-SCORE:    0.00 PKD
ROOT
HETATM    1  C   UNL     1     -10.041  10.391  67.050  1.00  0.00    -0.264 C  
HETATM    2  C   UNL     1     -11.282  10.874  67.787  1.00  0.00    -0.317 C  
ENDROOT
BRANCH   2   3
HETATM    3  N   UNL     1     -11.178  12.319  68.321  1.00  0.00    -0.245 N  
HETATM    4  C   UNL     1      -9.701  12.648  68.553  1.00  0.00    -0.128 C  
HETATM    5  C   UNL     1     -11.724  13.273  67.254  1.00  0.00    -0.377 C  
BRANCH   3   6
HETATM    6  C   UNL     1     -11.879  12.504  69.663  1.00  0.00    -0.314 A  
HETATM    7  C   UNL     1     -12.270  11.399  70.439  1.00  0.00    -0.450 A  
HETATM    8  C   UNL     1     -12.971  11.594  71.630  1.00  0.00    -0.378 A  
HETATM    9  O   UNL     1     -13.372  10.550  72.408  1.00  0.00    -0.602 OA 
HETATM   10  C   UNL     1     -13.303  12.868  72.067  1.00  0.00    -0.579 A  
HETATM   11  H   UNL     1     -13.850  10.683  73.218  1.00  0.00     0.000 HD 
HETATM   12  C   UNL     1     -12.945  13.968  71.297  1.00  0.00    -0.418 A  
HETATM   13  C   UNL     1     -12.252  13.788  70.097  1.00  0.00    -0.425 A  
ENDBRANCH   3   6
ENDBRANCH   2   3
TORSDOF 2
ENDMDL
MODEL       35
REMARK 921   NORMALIZED FREE ENERGY PREDICTED BY IDOCK:   -3.97 KCAL/MOL
REMARK 922        TOTAL FREE ENERGY PREDICTED BY IDOCK:   -4.61 KCAL/MOL
REMARK 923 INTER-LIGAND FREE ENERGY PREDICTED BY IDOCK:   -4.44 KCAL/MOL
REMARK 924 INTRA-LIGAND FREE ENERGY PREDICTED BY IDOCK:   -0.16 KCAL/MOL
REMARK 927      BINDING AFFINITY PREDICTED BY RF-SCORE:    0.00 PKD
ROOT
HETATM    1  C   UNL     1     -10.620  15.950  65.435  1.00  0.00    -0.439 C  
HETATM    2  C   UNL     1     -10.177  14.739  66.243  1.00  0.00    -0.298 C  
ENDROOT
BRANCH   2   3
HETATM    3  N   UNL     1     -11.151  13.544  66.177  1.00  0.00    -0.290 N  
HETATM    4  C   UNL     1     -12.483  14.030  65.597  1.00  0.00    -0.504 C  
HETATM    5  C   UNL     1     -10.567  12.492  65.230  1.00  0.00    -0.290 C  
BRANCH   3   6
HETATM    6  C   UNL     1     -11.465  12.961  67.551  1.00  0.00    -0.335 A  
HETATM    7  C   UNL     1     -11.574  13.785  68.685  1.00  0.00    -0.369 A  
HETATM    8  C   UNL     1     -11.793  13.221  69.942  1.00  0.00    -0.310 A  
HETATM    9  O   UNL     1     -11.899  13.984  71.065  1.00  0.00    -0.477 OA 
HETATM   10  C   UNL     1     -11.900  11.847  70.103  1.00  0.00    -0.390 A  
HETATM   11  H   UNL     1     -12.048  13.599  71.921  1.00  0.00     0.000 HD 
HETATM   12  C   UNL     1     -11.770  11.018  68.995  1.00  0.00    -0.402 A  
HETATM   13  C   UNL     1     -11.539  11.569  67.731  1.00  0.00    -0.338 A  
ENDBRANCH   3   6
ENDBRANCH   2   3
TORSDOF 2
ENDMDL
MODEL       36
REMARK 921   NORMALIZED FREE ENERGY PREDICTED BY IDOCK:   -3.97 KCAL/MOL
REMARK 922        TOTAL FREE ENERGY PREDICTED BY IDOCK:   -4.60 KCAL/MOL
REMARK 923 INTER-LIGAND FREE ENERGY PREDICTED BY IDOCK:   -4.44 KCAL/MOL
REMARK 924 INTRA-LIGAND FREE ENERGY PREDICTED BY IDOCK:   -0.17 KCAL/MOL
REMARK 927      BINDING AFFINITY PREDICTED BY RF-SCORE:    0.00 PKD
ROOT
HETATM    1  C   UNL     1      -8.269  11.576  68.445  1.00  0.00    -0.152 C  
HETATM    2  C   UNL     1      -8.542  11.130  67.015  1.00  0.00    -0.147 C  
ENDROOT
BRANCH   2   3
HETATM    3  N   UNL     1      -9.988  10.651  66.768  1.00  0.00    -0.201 N  
HETATM    4  C   UNL     1      -9.944   9.207  66.260  1.00  0.00    -0.282 C  
HETATM    5  C   UNL     1     -10.742  10.671  68.101  1.00  0.00    -0.225 C  
BRANCH   3   6
HETATM    6  C   UNL     1     -10.704  11.465  65.696  1.00  0.00    -0.242 A  
HETATM    7  C   UNL     1     -11.657  12.441  66.037  1.00  0.00    -0.455 A  
HETATM    8  C   UNL     1     -12.349  13.124  65.037  1.00  0.00    -0.459 A  
HETATM    9  O   UNL     1     -13.283  14.073  65.327  1.00  0.00    -0.782 OA 
HETATM   10  C   UNL     1     -12.121  12.855  63.695  1.00  0.00    -0.611 A  
HETATM   11  H   UNL     1     -13.754  14.538  64.645  1.00  0.00     0.000 HD 
HETATM   12  C   UNL     1     -11.200  11.876  63.343  1.00  0.00    -0.463 A  
HETATM   13  C   UNL     1     -10.508  11.175  64.335  1.00  0.00    -0.418 A  
ENDBRANCH   3   6
ENDBRANCH   2   3
TORSDOF 2
ENDMDL
MODEL       37
REMARK 921   NORMALIZED FREE ENERGY PREDICTED BY IDOCK:   -3.96 KCAL/MOL
REMARK 922        TOTAL FREE ENERGY PREDICTED BY IDOCK:   -4.59 KCAL/MOL
REMARK 923 INTER-LIGAND FREE ENERGY PREDICTED BY IDOCK:   -4.39 KCAL/MOL
REMARK 924 INTRA-LIGAND FREE ENERGY PREDICTED BY IDOCK:   -0.20 KCAL/MOL
REMARK 927      BINDING AFFINITY PREDICTED BY RF-SCORE:    0.00 PKD
ROOT
HETATM    1  C   UNL     1     -10.528  16.082  65.564  1.00  0.00    -0.426 C  
HETATM    2  C   UNL     1      -9.765  15.110  66.452  1.00  0.00    -0.278 C  
ENDROOT
BRANCH   2   3
HETATM    3  N   UNL     1     -10.569  13.855  66.854  1.00  0.00    -0.279 N  
HETATM    4  C   UNL     1      -9.635  12.891  67.591  1.00  0.00    -0.196 C  
HETATM    5  C   UNL     1     -11.683  14.279  67.816  1.00  0.00    -0.374 C  
BRANCH   3   6
HETATM    6  C   UNL     1     -11.116  13.094  65.651  1.00  0.00    -0.275 A  
HETATM    7  C   UNL     1     -10.255  12.458  64.738  1.00  0.00    -0.303 A  
HETATM    8  C   UNL     1     -10.777  11.826  63.609  1.00  0.00    -0.440 A  
HETATM    9  O   UNL     1      -9.976  11.205  62.698  1.00  0.00    -0.579 OA 
HETATM   10  C   UNL     1     -12.141  11.817  63.357  1.00  0.00    -0.449 A  
HETATM   11  H   UNL     1     -10.332  10.775  61.929  1.00  0.00     0.000 HD 
HETATM   12  C   UNL     1     -13.001  12.462  64.237  1.00  0.00    -0.257 A  
HETATM   13  C   UNL     1     -12.492  13.109  65.367  1.00  0.00    -0.535 A  
ENDBRANCH   3   6
ENDBRANCH   2   3
TORSDOF 2
ENDMDL
MODEL       38
REMARK 921   NORMALIZED FREE ENERGY PREDICTED BY IDOCK:   -3.94 KCAL/MOL
REMARK 922        TOTAL FREE ENERGY PREDICTED BY IDOCK:   -4.57 KCAL/MOL
REMARK 923 INTER-LIGAND FREE ENERGY PREDICTED BY IDOCK:   -4.40 KCAL/MOL
REMARK 924 INTRA-LIGAND FREE ENERGY PREDICTED BY IDOCK:   -0.17 KCAL/MOL
REMARK 927      BINDING AFFINITY PREDICTED BY RF-SCORE:    0.00 PKD
ROOT
HETATM    1  C   UNL     1      -8.935  15.239  69.090  1.00  0.00    -0.233 C  
HETATM    2  C   UNL     1      -9.005  15.428  67.581  1.00  0.00    -0.181 C  
ENDROOT
BRANCH   2   3
HETATM    3  N   UNL     1     -10.426  15.700  67.044  1.00  0.00    -0.297 N  
HETATM    4  C   UNL     1     -11.397  15.741  68.227  1.00  0.00    -0.354 C  
HETATM    5  C   UNL     1     -10.435  17.074  66.365  1.00  0.00    -0.252 C  
BRANCH   3   6
HETATM    6  C   UNL     1     -10.925  14.602  66.111  1.00  0.00    -0.329 A  
HETATM    7  C   UNL     1     -10.088  14.042  65.131  1.00  0.00    -0.343 A  
HETATM    8  C   UNL     1     -10.588  13.087  64.245  1.00  0.00    -0.412 A  
HETATM    9  O   UNL     1      -9.810  12.525  63.278  1.00  0.00    -0.581 OA 
HETATM   10  C   UNL     1     -11.912  12.677  64.305  1.00  0.00    -0.480 A  
HETATM   11  H   UNL     1     -10.152  11.874  62.675  1.00  0.00     0.000 HD 
HETATM   12  C   UNL     1     -12.758  13.240  65.253  1.00  0.00    -0.474 A  
HETATM   13  C   UNL     1     -12.274  14.206  66.139  1.00  0.00    -0.465 A  
ENDBRANCH   3   6
ENDBRANCH   2   3
TORSDOF 2
ENDMDL
MODEL       39
REMARK 921   NORMALIZED FREE ENERGY PREDICTED BY IDOCK:   -3.93 KCAL/MOL
REMARK 922        TOTAL FREE ENERGY PREDICTED BY IDOCK:   -4.56 KCAL/MOL
REMARK 923 INTER-LIGAND FREE ENERGY PREDICTED BY IDOCK:   -4.38 KCAL/MOL
REMARK 924 INTRA-LIGAND FREE ENERGY PREDICTED BY IDOCK:   -0.18 KCAL/MOL
REMARK 927      BINDING AFFINITY PREDICTED BY RF-SCORE:    0.00 PKD
ROOT
HETATM    1  C   UNL     1     -12.219  14.595  64.391  1.00  0.00    -0.473 C  
HETATM    2  C   UNL     1     -12.652  13.820  65.627  1.00  0.00    -0.509 C  
ENDROOT
BRANCH   2   3
HETATM    3  N   UNL     1     -11.503  13.502  66.608  1.00  0.00    -0.326 N  
HETATM    4  C   UNL     1     -10.281  14.337  66.216  1.00  0.00    -0.301 C  
HETATM    5  C   UNL     1     -11.939  13.914  68.017  1.00  0.00    -0.355 C  
BRANCH   3   6
HETATM    6  C   UNL     1     -11.066  12.042  66.552  1.00  0.00    -0.314 A  
HETATM    7  C   UNL     1     -11.241  11.186  67.653  1.00  0.00    -0.364 A  
HETATM    8  C   UNL     1     -10.771   9.873  67.601  1.00  0.00    -0.281 A  
HETATM    9  O   UNL     1     -10.916   9.014  68.648  1.00  0.00    -0.436 OA 
HETATM   10  C   UNL     1     -10.118   9.389  66.477  1.00  0.00    -0.332 A  
HETATM   11  H   UNL     1     -10.595   8.121  68.613  1.00  0.00     0.000 HD 
HETATM   12  C   UNL     1      -9.916  10.231  65.390  1.00  0.00    -0.371 A  
HETATM   13  C   UNL     1     -10.372  11.552  65.432  1.00  0.00    -0.322 A  
ENDBRANCH   3   6
ENDBRANCH   2   3
TORSDOF 2
ENDMDL
MODEL       40
REMARK 921   NORMALIZED FREE ENERGY PREDICTED BY IDOCK:   -3.93 KCAL/MOL
REMARK 922        TOTAL FREE ENERGY PREDICTED BY IDOCK:   -4.55 KCAL/MOL
REMARK 923 INTER-LIGAND FREE ENERGY PREDICTED BY IDOCK:   -4.41 KCAL/MOL
REMARK 924 INTRA-LIGAND FREE ENERGY PREDICTED BY IDOCK:   -0.14 KCAL/MOL
REMARK 927      BINDING AFFINITY PREDICTED BY RF-SCORE:    0.00 PKD
ROOT
HETATM    1  C   UNL     1     -12.121  12.515  64.428  1.00  0.00    -0.500 C  
HETATM    2  C   UNL     1     -11.946  12.826  65.908  1.00  0.00    -0.449 C  
ENDROOT
BRANCH   2   3
HETATM    3  N   UNL     1     -11.008  14.017  66.196  1.00  0.00    -0.293 N  
HETATM    4  C   UNL     1      -9.566  13.502  66.248  1.00  0.00    -0.232 C  
HETATM    5  C   UNL     1     -11.122  15.018  65.042  1.00  0.00    -0.413 C  
BRANCH   3   6
HETATM    6  C   UNL     1     -11.282  14.672  67.546  1.00  0.00    -0.333 A  
HETATM    7  C   UNL     1     -10.825  15.970  67.833  1.00  0.00    -0.333 A  
HETATM    8  C   UNL     1     -11.029  16.520  69.098  1.00  0.00    -0.303 A  
HETATM    9  O   UNL     1     -10.597  17.773  69.417  1.00  0.00    -0.401 OA 
HETATM   10  C   UNL     1     -11.674  15.805  70.096  1.00  0.00    -0.367 A  
HETATM   11  H   UNL     1     -10.736  18.147  70.279  1.00  0.00     0.000 HD 
HETATM   12  C   UNL     1     -12.109  14.511  69.835  1.00  0.00    -0.389 A  
HETATM   13  C   UNL     1     -11.902  13.942  68.575  1.00  0.00    -0.401 A  
ENDBRANCH   3   6
ENDBRANCH   2   3
TORSDOF 2
ENDMDL
MODEL       41
REMARK 921   NORMALIZED FREE ENERGY PREDICTED BY IDOCK:   -3.91 KCAL/MOL
REMARK 922        TOTAL FREE ENERGY PREDICTED BY IDOCK:   -4.54 KCAL/MOL
REMARK 923 INTER-LIGAND FREE ENERGY PREDICTED BY IDOCK:   -4.32 KCAL/MOL
REMARK 924 INTRA-LIGAND FREE ENERGY PREDICTED BY IDOCK:   -0.21 KCAL/MOL
REMARK 927      BINDING AFFINITY PREDICTED BY RF-SCORE:    0.00 PKD
ROOT
HETATM    1  C   UNL     1     -10.996   6.048  69.609  1.00  0.00    -0.470 C  
HETATM    2  C   UNL     1      -9.966   6.600  70.583  1.00  0.00    -0.184 C  
ENDROOT
BRANCH   2   3
HETATM    3  N   UNL     1     -10.567   7.154  71.892  1.00  0.00    -0.212 N  
HETATM    4  C   UNL     1     -11.471   6.082  72.507  1.00  0.00    -0.290 C  
HETATM    5  C   UNL     1      -9.423   7.439  72.870  1.00  0.00    -0.170 C  
BRANCH   3   6
HETATM    6  C   UNL     1     -11.442   8.383  71.667  1.00  0.00    -0.287 A  
HETATM    7  C   UNL     1     -10.976   9.484  70.927  1.00  0.00    -0.407 A  
HETATM    8  C   UNL     1     -11.770  10.623  70.793  1.00  0.00    -0.335 A  
HETATM    9  O   UNL     1     -11.353  11.712  70.089  1.00  0.00    -0.489 OA 
HETATM   10  C   UNL     1     -13.021  10.700  71.387  1.00  0.00    -0.545 A  
HETATM   11  H   UNL     1     -11.894  12.488  69.998  1.00  0.00     0.000 HD 
HETATM   12  C   UNL     1     -13.484   9.629  72.143  1.00  0.00    -0.516 A  
HETATM   13  C   UNL     1     -12.695   8.485  72.295  1.00  0.00    -0.420 A  
ENDBRANCH   3   6
ENDBRANCH   2   3
TORSDOF 2
ENDMDL
MODEL       42
REMARK 921   NORMALIZED FREE ENERGY PREDICTED BY IDOCK:   -3.91 KCAL/MOL
REMARK 922        TOTAL FREE ENERGY PREDICTED BY IDOCK:   -4.54 KCAL/MOL
REMARK 923 INTER-LIGAND FREE ENERGY PREDICTED BY IDOCK:   -4.40 KCAL/MOL
REMARK 924 INTRA-LIGAND FREE ENERGY PREDICTED BY IDOCK:   -0.14 KCAL/MOL
REMARK 927      BINDING AFFINITY PREDICTED BY RF-SCORE:    0.00 PKD
ROOT
HETATM    1  C   UNL     1      -9.155  16.628  66.111  1.00  0.00    -0.318 C  
HETATM    2  C   UNL     1      -9.221  15.136  66.406  1.00  0.00    -0.300 C  
ENDROOT
BRANCH   2   3
HETATM    3  N   UNL     1     -10.517  14.452  65.920  1.00  0.00    -0.296 N  
HETATM    4  C   UNL     1     -11.521  14.429  67.076  1.00  0.00    -0.361 C  
HETATM    5  C   UNL     1     -11.110  15.287  64.781  1.00  0.00    -0.394 C  
BRANCH   3   6
HETATM    6  C   UNL     1     -10.299  13.000  65.507  1.00  0.00    -0.294 A  
HETATM    7  C   UNL     1     -10.391  12.603  64.161  1.00  0.00    -0.412 A  
HETATM    8  C   UNL     1     -10.255  11.258  63.817  1.00  0.00    -0.377 A  
HETATM    9  O   UNL     1     -10.343  10.833  62.526  1.00  0.00    -0.748 OA 
HETATM   10  C   UNL     1     -10.036  10.289  64.785  1.00  0.00    -0.392 A  
HETATM   11  H   UNL     1     -10.251   9.917  62.292  1.00  0.00     0.000 HD 
HETATM   12  C   UNL     1      -9.968  10.663  66.122  1.00  0.00    -0.283 A  
HETATM   13  C   UNL     1     -10.113  12.005  66.482  1.00  0.00    -0.224 A  
ENDBRANCH   3   6
ENDBRANCH   2   3
TORSDOF 2
ENDMDL
MODEL       43
REMARK 921   NORMALIZED FREE ENERGY PREDICTED BY IDOCK:   -3.89 KCAL/MOL
REMARK 922        TOTAL FREE ENERGY PREDICTED BY IDOCK:   -4.51 KCAL/MOL
REMARK 923 INTER-LIGAND FREE ENERGY PREDICTED BY IDOCK:   -4.32 KCAL/MOL
REMARK 924 INTRA-LIGAND FREE ENERGY PREDICTED BY IDOCK:   -0.19 KCAL/MOL
REMARK 927      BINDING AFFINITY PREDICTED BY RF-SCORE:    0.00 PKD
ROOT
HETATM    1  C   UNL     1     -10.432  19.798  65.810  1.00  0.00    -0.545 C  
HETATM    2  C   UNL     1     -10.637  19.056  67.124  1.00  0.00    -0.462 C  
ENDROOT
BRANCH   2   3
HETATM    3  N   UNL     1      -9.695  17.850  67.322  1.00  0.00    -0.282 N  
HETATM    4  C   UNL     1      -8.492  18.011  66.389  1.00  0.00    -0.235 C  
HETATM    5  C   UNL     1      -9.189  17.860  68.768  1.00  0.00    -0.221 C  
BRANCH   3   6
HETATM    6  C   UNL     1     -10.351  16.522  66.958  1.00  0.00    -0.301 A  
HETATM    7  C   UNL     1     -11.165  15.835  67.876  1.00  0.00    -0.313 A  
HETATM    8  C   UNL     1     -11.698  14.590  67.544  1.00  0.00    -0.386 A  
HETATM    9  O   UNL     1     -12.486  13.890  68.407  1.00  0.00    -0.438 OA 
HETATM   10  C   UNL     1     -11.433  14.001  66.316  1.00  0.00    -0.358 A  
HETATM   11  H   UNL     1     -12.848  13.041  68.181  1.00  0.00     0.000 HD 
HETATM   12  C   UNL     1     -10.610  14.656  65.408  1.00  0.00    -0.390 A  
HETATM   13  C   UNL     1     -10.061  15.900  65.731  1.00  0.00    -0.389 A  
ENDBRANCH   3   6
ENDBRANCH   2   3
TORSDOF 2
ENDMDL
MODEL       44
REMARK 921   NORMALIZED FREE ENERGY PREDICTED BY IDOCK:   -3.89 KCAL/MOL
REMARK 922        TOTAL FREE ENERGY PREDICTED BY IDOCK:   -4.51 KCAL/MOL
REMARK 923 INTER-LIGAND FREE ENERGY PREDICTED BY IDOCK:   -4.34 KCAL/MOL
REMARK 924 INTRA-LIGAND FREE ENERGY PREDICTED BY IDOCK:   -0.17 KCAL/MOL
REMARK 927      BINDING AFFINITY PREDICTED BY RF-SCORE:    0.00 PKD
ROOT
HETATM    1  C   UNL     1     -12.382  13.942  66.402  1.00  0.00    -0.468 C  
HETATM    2  C   UNL     1     -11.870  12.701  67.120  1.00  0.00    -0.330 C  
ENDROOT
BRANCH   2   3
HETATM    3  N   UNL     1     -11.034  13.001  68.382  1.00  0.00    -0.251 N  
HETATM    4  C   UNL     1     -10.157  11.783  68.688  1.00  0.00    -0.189 C  
HETATM    5  C   UNL     1     -10.118  14.193  68.088  1.00  0.00    -0.239 C  
BRANCH   3   6
HETATM    6  C   UNL     1     -11.895  13.236  69.619  1.00  0.00    -0.327 A  
HETATM    7  C   UNL     1     -12.302  14.530  69.988  1.00  0.00    -0.376 A  
HETATM    8  C   UNL     1     -13.032  14.727  71.161  1.00  0.00    -0.359 A  
HETATM    9  O   UNL     1     -13.440  15.965  71.556  1.00  0.00    -0.454 OA 
HETATM   10  C   UNL     1     -13.362  13.663  71.987  1.00  0.00    -0.548 A  
HETATM   11  H   UNL     1     -13.936  16.098  72.355  1.00  0.00     0.000 HD 
HETATM   12  C   UNL     1     -12.944  12.381  71.648  1.00  0.00    -0.409 A  
HETATM   13  C   UNL     1     -12.204  12.170  70.482  1.00  0.00    -0.392 A  
ENDBRANCH   3   6
ENDBRANCH   2   3
TORSDOF 2
ENDMDL
MODEL       45
REMARK 921   NORMALIZED FREE ENERGY PREDICTED BY IDOCK:   -3.87 KCAL/MOL
REMARK 922        TOTAL FREE ENERGY PREDICTED BY IDOCK:   -4.49 KCAL/MOL
REMARK 923 INTER-LIGAND FREE ENERGY PREDICTED BY IDOCK:   -4.33 KCAL/MOL
REMARK 924 INTRA-LIGAND FREE ENERGY PREDICTED BY IDOCK:   -0.16 KCAL/MOL
REMARK 927      BINDING AFFINITY PREDICTED BY RF-SCORE:    0.00 PKD
ROOT
HETATM    1  C   UNL     1     -12.160  12.650  63.468  1.00  0.00    -0.648 C  
HETATM    2  C   UNL     1     -12.491  13.053  64.898  1.00  0.00    -0.455 C  
ENDROOT
BRANCH   2   3
HETATM    3  N   UNL     1     -11.301  12.948  65.875  1.00  0.00    -0.301 N  
HETATM    4  C   UNL     1     -11.527  11.743  66.793  1.00  0.00    -0.281 C  
HETATM    5  C   UNL     1     -10.024  12.704  65.064  1.00  0.00    -0.158 C  
BRANCH   3   6
HETATM    6  C   UNL     1     -11.173  14.166  66.784  1.00  0.00    -0.323 A  
HETATM    7  C   UNL     1     -11.944  14.287  67.953  1.00  0.00    -0.364 A  
HETATM    8  C   UNL     1     -11.859  15.442  68.731  1.00  0.00    -0.318 A  
HETATM    9  O   UNL     1     -12.594  15.600  69.868  1.00  0.00    -0.559 OA 
HETATM   10  C   UNL     1     -11.027  16.491  68.370  1.00  0.00    -0.348 A  
HETATM   11  H   UNL     1     -12.536  16.387  70.397  1.00  0.00     0.000 HD 
HETATM   12  C   UNL     1     -10.277  16.396  67.204  1.00  0.00    -0.282 A  
HETATM   13  C   UNL     1     -10.360  15.249  66.408  1.00  0.00    -0.296 A  
ENDBRANCH   3   6
ENDBRANCH   2   3
TORSDOF 2
ENDMDL
MODEL       46
REMARK 921   NORMALIZED FREE ENERGY PREDICTED BY IDOCK:   -3.86 KCAL/MOL
REMARK 922        TOTAL FREE ENERGY PREDICTED BY IDOCK:   -4.48 KCAL/MOL
REMARK 923 INTER-LIGAND FREE ENERGY PREDICTED BY IDOCK:   -4.40 KCAL/MOL
REMARK 924 INTRA-LIGAND FREE ENERGY PREDICTED BY IDOCK:   -0.09 KCAL/MOL
REMARK 927      BINDING AFFINITY PREDICTED BY RF-SCORE:    0.00 PKD
ROOT
HETATM    1  C   UNL     1     -11.119  16.185  69.375  1.00  0.00    -0.335 C  
HETATM    2  C   UNL     1     -11.998  15.156  68.679  1.00  0.00    -0.240 C  
ENDROOT
BRANCH   2   3
HETATM    3  N   UNL     1     -11.396  13.735  68.640  1.00  0.00    -0.268 N  
HETATM    4  C   UNL     1     -11.797  13.071  67.319  1.00  0.00    -0.363 C  
HETATM    5  C   UNL     1      -9.869  13.852  68.677  1.00  0.00    -0.175 C  
BRANCH   3   6
HETATM    6  C   UNL     1     -11.925  12.838  69.754  1.00  0.00    -0.292 A  
HETATM    7  C   UNL     1     -11.954  11.439  69.612  1.00  0.00    -0.416 A  
HETATM    8  C   UNL     1     -12.506  10.645  70.618  1.00  0.00    -0.371 A  
HETATM    9  O   UNL     1     -12.557   9.288  70.516  1.00  0.00    -0.491 OA 
HETATM   10  C   UNL     1     -13.042  11.211  71.765  1.00  0.00    -0.536 A  
HETATM   11  H   UNL     1     -12.934   8.747  71.201  1.00  0.00     0.000 HD 
HETATM   12  C   UNL     1     -13.043  12.593  71.908  1.00  0.00    -0.470 A  
HETATM   13  C   UNL     1     -12.503  13.402  70.904  1.00  0.00    -0.439 A  
ENDBRANCH   3   6
ENDBRANCH   2   3
TORSDOF 2
ENDMDL
MODEL       47
REMARK 921   NORMALIZED FREE ENERGY PREDICTED BY IDOCK:   -3.85 KCAL/MOL
REMARK 922        TOTAL FREE ENERGY PREDICTED BY IDOCK:   -4.46 KCAL/MOL
REMARK 923 INTER-LIGAND FREE ENERGY PREDICTED BY IDOCK:   -4.33 KCAL/MOL
REMARK 924 INTRA-LIGAND FREE ENERGY PREDICTED BY IDOCK:   -0.13 KCAL/MOL
REMARK 927      BINDING AFFINITY PREDICTED BY RF-SCORE:    0.00 PKD
ROOT
HETATM    1  C   UNL     1     -11.083  15.722  64.619  1.00  0.00    -0.376 C  
HETATM    2  C   UNL     1     -10.414  14.385  64.909  1.00  0.00    -0.423 C  
ENDROOT
BRANCH   2   3
HETATM    3  N   UNL     1     -11.393  13.195  65.000  1.00  0.00    -0.294 N  
HETATM    4  C   UNL     1     -12.403  13.478  66.117  1.00  0.00    -0.407 C  
HETATM    5  C   UNL     1     -12.156  13.090  63.676  1.00  0.00    -0.531 C  
BRANCH   3   6
HETATM    6  C   UNL     1     -10.700  11.887  65.364  1.00  0.00    -0.283 A  
HETATM    7  C   UNL     1     -10.126  11.067  64.376  1.00  0.00    -0.393 A  
HETATM    8  C   UNL     1      -9.558   9.842  64.726  1.00  0.00    -0.271 A  
HETATM    9  O   UNL     1      -8.997   9.017  63.798  1.00  0.00    -0.431 OA 
HETATM   10  C   UNL     1      -9.553   9.404  66.042  1.00  0.00    -0.328 A  
HETATM   11  H   UNL     1      -8.611   8.183  64.038  1.00  0.00     0.000 HD 
HETATM   12  C   UNL     1     -10.139  10.192  67.026  1.00  0.00    -0.277 A  
HETATM   13  C   UNL     1     -10.721  11.417  66.688  1.00  0.00    -0.316 A  
ENDBRANCH   3   6
ENDBRANCH   2   3
TORSDOF 2
ENDMDL
MODEL       48
REMARK 921   NORMALIZED FREE ENERGY PREDICTED BY IDOCK:   -3.84 KCAL/MOL
REMARK 922        TOTAL FREE ENERGY PREDICTED BY IDOCK:   -4.45 KCAL/MOL
REMARK 923 INTER-LIGAND FREE ENERGY PREDICTED BY IDOCK:   -4.30 KCAL/MOL
REMARK 924 INTRA-LIGAND FREE ENERGY PREDICTED BY IDOCK:   -0.15 KCAL/MOL
REMARK 927      BINDING AFFINITY PREDICTED BY RF-SCORE:    0.00 PKD
ROOT
HETATM    1  C   UNL     1     -11.333   5.084  73.012  1.00  0.00    -0.374 C  
HETATM    2  C   UNL     1     -11.818   6.185  72.079  1.00  0.00    -0.280 C  
ENDROOT
BRANCH   2   3
HETATM    3  N   UNL     1     -10.805   7.330  71.872  1.00  0.00    -0.223 N  
HETATM    4  C   UNL     1     -10.047   7.556  73.184  1.00  0.00    -0.308 C  
HETATM    5  C   UNL     1      -9.797   6.900  70.801  1.00  0.00    -0.182 C  
BRANCH   3   6
HETATM    6  C   UNL     1     -11.474   8.656  71.524  1.00  0.00    -0.295 A  
HETATM    7  C   UNL     1     -10.867   9.571  70.646  1.00  0.00    -0.371 A  
HETATM    8  C   UNL     1     -11.467  10.806  70.398  1.00  0.00    -0.307 A  
HETATM    9  O   UNL     1     -10.907  11.721  69.558  1.00  0.00    -0.442 OA 
HETATM   10  C   UNL     1     -12.659  11.160  71.011  1.00  0.00    -0.503 A  
HETATM   11  H   UNL     1     -11.316  12.562  69.389  1.00  0.00     0.000 HD 
HETATM   12  C   UNL     1     -13.258  10.276  71.900  1.00  0.00    -0.550 A  
HETATM   13  C   UNL     1     -12.663   9.040  72.167  1.00  0.00    -0.470 A  
ENDBRANCH   3   6
ENDBRANCH   2   3
TORSDOF 2
ENDMDL
MODEL       49
REMARK 921   NORMALIZED FREE ENERGY PREDICTED BY IDOCK:   -3.82 KCAL/MOL
REMARK 922        TOTAL FREE ENERGY PREDICTED BY IDOCK:   -4.43 KCAL/MOL
REMARK 923 INTER-LIGAND FREE ENERGY PREDICTED BY IDOCK:   -4.30 KCAL/MOL
REMARK 924 INTRA-LIGAND FREE ENERGY PREDICTED BY IDOCK:   -0.14 KCAL/MOL
REMARK 927      BINDING AFFINITY PREDICTED BY RF-SCORE:    0.00 PKD
ROOT
HETATM    1  C   UNL     1      -9.978  19.687  67.053  1.00  0.00    -0.510 C  
HETATM    2  C   UNL     1     -10.781  18.517  67.604  1.00  0.00    -0.364 C  
ENDROOT
BRANCH   2   3
HETATM    3  N   UNL     1     -10.111  17.141  67.404  1.00  0.00    -0.292 N  
HETATM    4  C   UNL     1     -10.208  16.761  65.924  1.00  0.00    -0.328 C  
HETATM    5  C   UNL     1      -8.630  17.261  67.776  1.00  0.00    -0.225 C  
BRANCH   3   6
HETATM    6  C   UNL     1     -10.805  16.028  68.183  1.00  0.00    -0.322 A  
HETATM    7  C   UNL     1     -10.794  16.007  69.589  1.00  0.00    -0.329 A  
HETATM    8  C   UNL     1     -11.376  14.942  70.277  1.00  0.00    -0.254 A  
HETATM    9  O   UNL     1     -11.381  14.882  71.638  1.00  0.00    -0.530 OA 
HETATM   10  C   UNL     1     -11.966  13.886  69.599  1.00  0.00    -0.399 A  
HETATM   11  H   UNL     1     -11.778  14.156  72.107  1.00  0.00     0.000 HD 
HETATM   12  C   UNL     1     -11.963  13.881  68.209  1.00  0.00    -0.392 A  
HETATM   13  C   UNL     1     -11.373  14.936  67.506  1.00  0.00    -0.351 A  
ENDBRANCH   3   6
ENDBRANCH   2   3
TORSDOF 2
ENDMDL
MODEL       50
REMARK 921   NORMALIZED FREE ENERGY PREDICTED BY IDOCK:   -3.79 KCAL/MOL
REMARK 922        TOTAL FREE ENERGY PREDICTED BY IDOCK:   -4.40 KCAL/MOL
REMARK 923 INTER-LIGAND FREE ENERGY PREDICTED BY IDOCK:   -4.21 KCAL/MOL
REMARK 924 INTRA-LIGAND FREE ENERGY PREDICTED BY IDOCK:   -0.19 KCAL/MOL
REMARK 927      BINDING AFFINITY PREDICTED BY RF-SCORE:    0.00 PKD
ROOT
HETATM    1  C   UNL     1      -7.789  15.027  68.345  1.00  0.00    -0.125 C  
HETATM    2  C   UNL     1      -8.516  15.306  67.037  1.00  0.00    -0.228 C  
ENDROOT
BRANCH   2   3
HETATM    3  N   UNL     1      -9.966  15.804  67.213  1.00  0.00    -0.235 N  
HETATM    4  C   UNL     1     -10.755  15.470  65.944  1.00  0.00    -0.339 C  
HETATM    5  C   UNL     1     -10.600  15.053  68.388  1.00  0.00    -0.239 C  
BRANCH   3   6
HETATM    6  C   UNL     1     -10.053  17.316  67.391  1.00  0.00    -0.307 A  
HETATM    7  C   UNL     1     -10.133  17.896  68.670  1.00  0.00    -0.394 A  
HETATM    8  C   UNL     1     -10.281  19.277  68.804  1.00  0.00    -0.309 A  
HETATM    9  O   UNL     1     -10.367  19.876  70.025  1.00  0.00    -0.572 OA 
HETATM   10  C   UNL     1     -10.360  20.101  67.692  1.00  0.00    -0.466 A  
HETATM   11  H   UNL     1     -10.468  20.816  70.116  1.00  0.00     0.000 HD 
HETATM   12  C   UNL     1     -10.308  19.540  66.421  1.00  0.00    -0.594 A  
HETATM   13  C   UNL     1     -10.171  18.157  66.271  1.00  0.00    -0.401 A  
ENDBRANCH   3   6
ENDBRANCH   2   3
TORSDOF 2
ENDMDL
MODEL       51
REMARK 921   NORMALIZED FREE ENERGY PREDICTED BY IDOCK:   -3.79 KCAL/MOL
REMARK 922        TOTAL FREE ENERGY PREDICTED BY IDOCK:   -4.40 KCAL/MOL
REMARK 923 INTER-LIGAND FREE ENERGY PREDICTED BY IDOCK:   -4.21 KCAL/MOL
REMARK 924 INTRA-LIGAND FREE ENERGY PREDICTED BY IDOCK:   -0.19 KCAL/MOL
REMARK 927      BINDING AFFINITY PREDICTED BY RF-SCORE:    0.00 PKD
ROOT
HETATM    1  C   UNL     1     -10.473  15.199  65.043  1.00  0.00    -0.418 C  
HETATM    2  C   UNL     1     -10.517  13.700  64.785  1.00  0.00    -0.418 C  
ENDROOT
BRANCH   2   3
HETATM    3  N   UNL     1     -11.815  13.014  65.263  1.00  0.00    -0.354 N  
HETATM    4  C   UNL     1     -12.873  14.092  65.516  1.00  0.00    -0.376 C  
HETATM    5  C   UNL     1     -12.319  12.095  64.146  1.00  0.00    -0.409 C  
BRANCH   3   6
HETATM    6  C   UNL     1     -11.637  12.265  66.579  1.00  0.00    -0.377 A  
HETATM    7  C   UNL     1     -11.247  10.914  66.602  1.00  0.00    -0.060 A  
HETATM    8  C   UNL     1     -11.157  10.232  67.816  1.00  0.00    -0.269 A  
HETATM    9  O   UNL     1     -10.788   8.922  67.879  1.00  0.00    -0.457 OA 
HETATM   10  C   UNL     1     -11.455  10.860  69.015  1.00  0.00    -0.371 A  
HETATM   11  H   UNL     1     -10.728   8.457  68.706  1.00  0.00     0.000 HD 
HETATM   12  C   UNL     1     -11.866  12.188  69.007  1.00  0.00    -0.361 A  
HETATM   13  C   UNL     1     -11.971  12.881  67.797  1.00  0.00    -0.336 A  
ENDBRANCH   3   6
ENDBRANCH   2   3
TORSDOF 2
ENDMDL
MODEL       52
REMARK 921   NORMALIZED FREE ENERGY PREDICTED BY IDOCK:   -3.77 KCAL/MOL
REMARK 922        TOTAL FREE ENERGY PREDICTED BY IDOCK:   -4.38 KCAL/MOL
REMARK 923 INTER-LIGAND FREE ENERGY PREDICTED BY IDOCK:   -4.22 KCAL/MOL
REMARK 924 INTRA-LIGAND FREE ENERGY PREDICTED BY IDOCK:   -0.16 KCAL/MOL
REMARK 927      BINDING AFFINITY PREDICTED BY RF-SCORE:    0.00 PKD
ROOT
HETATM    1  C   UNL     1      -7.487  10.066  66.007  1.00  0.00    -0.112 C  
HETATM    2  C   UNL     1      -8.343  11.120  66.693  1.00  0.00    -0.160 C  
ENDROOT
BRANCH   2   3
HETATM    3  N   UNL     1      -9.820  11.127  66.243  1.00  0.00    -0.207 N  
HETATM    4  C   UNL     1      -9.947  10.279  64.973  1.00  0.00    -0.323 C  
HETATM    5  C   UNL     1     -10.666  10.479  67.343  1.00  0.00    -0.281 C  
BRANCH   3   6
HETATM    6  C   UNL     1     -10.322  12.521  65.885  1.00  0.00    -0.263 A  
HETATM    7  C   UNL     1     -11.208  12.724  64.812  1.00  0.00    -0.339 A  
HETATM    8  C   UNL     1     -11.599  14.016  64.462  1.00  0.00    -0.391 A  
HETATM    9  O   UNL     1     -12.451  14.254  63.425  1.00  0.00    -1.125 OA 
HETATM   10  C   UNL     1     -11.123  15.121  65.151  1.00  0.00    -0.410 A  
HETATM   11  H   UNL     1     -12.717  15.135  63.187  1.00  0.00     0.000 HD 
HETATM   12  C   UNL     1     -10.228  14.939  66.198  1.00  0.00    -0.314 A  
HETATM   13  C   UNL     1      -9.818  13.650  66.553  1.00  0.00    -0.295 A  
ENDBRANCH   3   6
ENDBRANCH   2   3
TORSDOF 2
ENDMDL
MODEL       53
REMARK 921   NORMALIZED FREE ENERGY PREDICTED BY IDOCK:   -3.77 KCAL/MOL
REMARK 922        TOTAL FREE ENERGY PREDICTED BY IDOCK:   -4.37 KCAL/MOL
REMARK 923 INTER-LIGAND FREE ENERGY PREDICTED BY IDOCK:   -4.22 KCAL/MOL
REMARK 924 INTRA-LIGAND FREE ENERGY PREDICTED BY IDOCK:   -0.16 KCAL/MOL
REMARK 927      BINDING AFFINITY PREDICTED BY RF-SCORE:    0.00 PKD
ROOT
HETATM    1  C   UNL     1     -10.743   7.037  73.361  1.00  0.00    -0.379 C  
HETATM    2  C   UNL     1     -10.485   8.232  72.454  1.00  0.00    -0.334 C  
ENDROOT
BRANCH   2   3
HETATM    3  N   UNL     1     -11.524   8.405  71.325  1.00  0.00    -0.271 N  
HETATM    4  C   UNL     1     -10.874   8.007  69.997  1.00  0.00    -0.235 C  
HETATM    5  C   UNL     1     -12.695   7.455  71.593  1.00  0.00    -0.365 C  
BRANCH   3   6
HETATM    6  C   UNL     1     -11.987   9.849  71.165  1.00  0.00    -0.384 A  
HETATM    7  C   UNL     1     -11.407  10.699  70.208  1.00  0.00    -0.401 A  
HETATM    8  C   UNL     1     -11.800  12.035  70.127  1.00  0.00    -0.301 A  
HETATM    9  O   UNL     1     -11.258  12.892  69.217  1.00  0.00    -0.331 OA 
HETATM   10  C   UNL     1     -12.758  12.554  70.986  1.00  0.00    -0.316 A  
HETATM   11  H   UNL     1     -11.526  13.802  69.163  1.00  0.00     0.000 HD 
HETATM   12  C   UNL     1     -13.323  11.732  71.954  1.00  0.00    -0.401 A  
HETATM   13  C   UNL     1     -12.931  10.394  72.054  1.00  0.00    -0.499 A  
ENDBRANCH   3   6
ENDBRANCH   2   3
TORSDOF 2
ENDMDL
MODEL       54
REMARK 921   NORMALIZED FREE ENERGY PREDICTED BY IDOCK:   -3.76 KCAL/MOL
REMARK 922        TOTAL FREE ENERGY PREDICTED BY IDOCK:   -4.37 KCAL/MOL
REMARK 923 INTER-LIGAND FREE ENERGY PREDICTED BY IDOCK:   -4.19 KCAL/MOL
REMARK 924 INTRA-LIGAND FREE ENERGY PREDICTED BY IDOCK:   -0.18 KCAL/MOL
REMARK 927      BINDING AFFINITY PREDICTED BY RF-SCORE:    0.00 PKD
ROOT
HETATM    1  C   UNL     1     -10.387  14.450  68.496  1.00  0.00    -0.248 C  
HETATM    2  C   UNL     1     -11.091  15.449  67.589  1.00  0.00    -0.316 C  
ENDROOT
BRANCH   2   3
HETATM    3  N   UNL     1     -10.192  16.039  66.481  1.00  0.00    -0.283 N  
HETATM    4  C   UNL     1      -8.837  15.326  66.520  1.00  0.00    -0.300 C  
HETATM    5  C   UNL     1     -10.846  15.759  65.124  1.00  0.00    -0.428 C  
BRANCH   3   6
HETATM    6  C   UNL     1      -9.907  17.523  66.680  1.00  0.00    -0.306 A  
HETATM    7  C   UNL     1      -8.715  18.105  66.213  1.00  0.00    -0.195 A  
HETATM    8  C   UNL     1      -8.447  19.451  66.467  1.00  0.00    -0.337 A  
HETATM    9  O   UNL     1      -7.302  20.050  66.036  1.00  0.00    -0.286 OA 
HETATM   10  C   UNL     1      -9.335  20.236  67.187  1.00  0.00    -0.536 A  
HETATM   11  H   UNL     1      -7.119  20.966  66.210  1.00  0.00     0.000 HD 
HETATM   12  C   UNL     1     -10.505  19.668  67.677  1.00  0.00    -0.579 A  
HETATM   13  C   UNL     1     -10.783  18.319  67.439  1.00  0.00    -0.377 A  
ENDBRANCH   3   6
ENDBRANCH   2   3
TORSDOF 2
ENDMDL
MODEL       55
REMARK 921   NORMALIZED FREE ENERGY PREDICTED BY IDOCK:   -3.73 KCAL/MOL
REMARK 922        TOTAL FREE ENERGY PREDICTED BY IDOCK:   -4.33 KCAL/MOL
REMARK 923 INTER-LIGAND FREE ENERGY PREDICTED BY IDOCK:   -4.17 KCAL/MOL
REMARK 924 INTRA-LIGAND FREE ENERGY PREDICTED BY IDOCK:   -0.16 KCAL/MOL
REMARK 927      BINDING AFFINITY PREDICTED BY RF-SCORE:    0.00 PKD
ROOT
HETATM    1  C   UNL     1      -8.205  15.473  66.932  1.00  0.00    -0.287 C  
HETATM    2  C   UNL     1      -9.198  14.334  66.751  1.00  0.00    -0.264 C  
ENDROOT
BRANCH   2   3
HETATM    3  N   UNL     1     -10.642  14.682  67.170  1.00  0.00    -0.279 N  
HETATM    4  C   UNL     1     -10.663  16.116  67.707  1.00  0.00    -0.325 C  
HETATM    5  C   UNL     1     -11.537  14.619  65.928  1.00  0.00    -0.327 C  
BRANCH   3   6
HETATM    6  C   UNL     1     -11.163  13.791  68.293  1.00  0.00    -0.273 A  
HETATM    7  C   UNL     1     -11.395  12.420  68.088  1.00  0.00    -0.341 A  
HETATM    8  C   UNL     1     -11.936  11.641  69.110  1.00  0.00    -0.313 A  
HETATM    9  O   UNL     1     -12.180  10.310  68.949  1.00  0.00    -0.638 OA 
HETATM   10  C   UNL     1     -12.262  12.196  70.339  1.00  0.00    -0.378 A  
HETATM   11  H   UNL     1     -12.549   9.780  69.646  1.00  0.00     0.000 HD 
HETATM   12  C   UNL     1     -12.062  13.555  70.548  1.00  0.00    -0.409 A  
HETATM   13  C   UNL     1     -11.531  14.351  69.529  1.00  0.00    -0.333 A  
ENDBRANCH   3   6
ENDBRANCH   2   3
TORSDOF 2
ENDMDL
MODEL       56
REMARK 921   NORMALIZED FREE ENERGY PREDICTED BY IDOCK:   -3.72 KCAL/MOL
REMARK 922        TOTAL FREE ENERGY PREDICTED BY IDOCK:   -4.33 KCAL/MOL
REMARK 923 INTER-LIGAND FREE ENERGY PREDICTED BY IDOCK:   -4.11 KCAL/MOL
REMARK 924 INTRA-LIGAND FREE ENERGY PREDICTED BY IDOCK:   -0.22 KCAL/MOL
REMARK 927      BINDING AFFINITY PREDICTED BY RF-SCORE:    0.00 PKD
ROOT
HETATM    1  C   UNL     1      -9.678  19.990  66.207  1.00  0.00    -0.546 C  
HETATM    2  C   UNL     1      -8.520  19.019  66.386  1.00  0.00    -0.306 C  
ENDROOT
BRANCH   2   3
HETATM    3  N   UNL     1      -8.637  18.119  67.634  1.00  0.00    -0.249 N  
HETATM    4  C   UNL     1      -7.240  17.608  68.001  1.00  0.00    -0.216 C  
HETATM    5  C   UNL     1      -9.162  18.966  68.797  1.00  0.00    -0.317 C  
BRANCH   3   6
HETATM    6  C   UNL     1      -9.500  16.885  67.394  1.00  0.00    -0.238 A  
HETATM    7  C   UNL     1      -9.267  16.034  66.299  1.00  0.00    -0.368 A  
HETATM    8  C   UNL     1     -10.113  14.950  66.063  1.00  0.00    -0.311 A  
HETATM    9  O   UNL     1      -9.924  14.106  65.010  1.00  0.00    -0.562 OA 
HETATM   10  C   UNL     1     -11.197  14.693  66.888  1.00  0.00    -0.345 A  
HETATM   11  H   UNL     1     -10.501  13.368  64.849  1.00  0.00     0.000 HD 
HETATM   12  C   UNL     1     -11.455  15.540  67.960  1.00  0.00    -0.313 A  
HETATM   13  C   UNL     1     -10.622  16.636  68.203  1.00  0.00    -0.336 A  
ENDBRANCH   3   6
ENDBRANCH   2   3
TORSDOF 2
ENDMDL
MODEL       57
REMARK 921   NORMALIZED FREE ENERGY PREDICTED BY IDOCK:   -3.72 KCAL/MOL
REMARK 922        TOTAL FREE ENERGY PREDICTED BY IDOCK:   -4.32 KCAL/MOL
REMARK 923 INTER-LIGAND FREE ENERGY PREDICTED BY IDOCK:   -4.13 KCAL/MOL
REMARK 924 INTRA-LIGAND FREE ENERGY PREDICTED BY IDOCK:   -0.18 KCAL/MOL
REMARK 927      BINDING AFFINITY PREDICTED BY RF-SCORE:    0.00 PKD
ROOT
HETATM    1  C   UNL     1      -7.958  15.997  68.694  1.00  0.00    -0.174 C  
HETATM    2  C   UNL     1      -8.529  16.447  67.357  1.00  0.00    -0.178 C  
ENDROOT
BRANCH   2   3
HETATM    3  N   UNL     1     -10.063  16.621  67.351  1.00  0.00    -0.268 N  
HETATM    4  C   UNL     1     -10.555  16.666  68.801  1.00  0.00    -0.340 C  
HETATM    5  C   UNL     1     -10.398  17.959  66.685  1.00  0.00    -0.361 C  
BRANCH   3   6
HETATM    6  C   UNL     1     -10.787  15.456  66.685  1.00  0.00    -0.302 A  
HETATM    7  C   UNL     1     -11.170  14.320  67.419  1.00  0.00    -0.330 A  
HETATM    8  C   UNL     1     -11.770  13.238  66.773  1.00  0.00    -0.385 A  
HETATM    9  O   UNL     1     -12.151  12.118  67.447  1.00  0.00    -0.553 OA 
HETATM   10  C   UNL     1     -11.993  13.254  65.404  1.00  0.00    -0.432 A  
HETATM   11  H   UNL     1     -12.559  11.381  67.007  1.00  0.00     0.000 HD 
HETATM   12  C   UNL     1     -11.596  14.360  64.661  1.00  0.00    -0.414 A  
HETATM   13  C   UNL     1     -10.985  15.446  65.293  1.00  0.00    -0.397 A  
ENDBRANCH   3   6
ENDBRANCH   2   3
TORSDOF 2
ENDMDL
MODEL       58
REMARK 921   NORMALIZED FREE ENERGY PREDICTED BY IDOCK:   -3.71 KCAL/MOL
REMARK 922        TOTAL FREE ENERGY PREDICTED BY IDOCK:   -4.32 KCAL/MOL
REMARK 923 INTER-LIGAND FREE ENERGY PREDICTED BY IDOCK:   -4.18 KCAL/MOL
REMARK 924 INTRA-LIGAND FREE ENERGY PREDICTED BY IDOCK:   -0.14 KCAL/MOL
REMARK 927      BINDING AFFINITY PREDICTED BY RF-SCORE:    0.00 PKD
ROOT
HETATM    1  C   UNL     1     -10.061   9.907  70.110  1.00  0.00    -0.309 C  
HETATM    2  C   UNL     1     -10.756  10.495  68.891  1.00  0.00    -0.220 C  
ENDROOT
BRANCH   2   3
HETATM    3  N   UNL     1      -9.961  10.348  67.576  1.00  0.00    -0.175 N  
HETATM    4  C   UNL     1      -8.600  11.028  67.750  1.00  0.00    -0.130 C  
HETATM    5  C   UNL     1      -9.725   8.857  67.315  1.00  0.00    -0.181 C  
BRANCH   3   6
HETATM    6  C   UNL     1     -10.639  11.032  66.395  1.00  0.00    -0.251 A  
HETATM    7  C   UNL     1     -10.320  10.686  65.070  1.00  0.00    -0.341 A  
HETATM    8  C   UNL     1     -10.904  11.375  64.007  1.00  0.00    -0.383 A  
HETATM    9  O   UNL     1     -10.617  11.073  62.709  1.00  0.00    -0.772 OA 
HETATM   10  C   UNL     1     -11.798  12.411  64.228  1.00  0.00    -0.473 A  
HETATM   11  H   UNL     1     -11.015  11.543  61.985  1.00  0.00     0.000 HD 
HETATM   12  C   UNL     1     -12.105  12.781  65.532  1.00  0.00    -0.517 A  
HETATM   13  C   UNL     1     -11.519  12.108  66.608  1.00  0.00    -0.426 A  
ENDBRANCH   3   6
ENDBRANCH   2   3
TORSDOF 2
ENDMDL
MODEL       59
REMARK 921   NORMALIZED FREE ENERGY PREDICTED BY IDOCK:   -3.71 KCAL/MOL
REMARK 922        TOTAL FREE ENERGY PREDICTED BY IDOCK:   -4.31 KCAL/MOL
REMARK 923 INTER-LIGAND FREE ENERGY PREDICTED BY IDOCK:   -4.11 KCAL/MOL
REMARK 924 INTRA-LIGAND FREE ENERGY PREDICTED BY IDOCK:   -0.20 KCAL/MOL
REMARK 927      BINDING AFFINITY PREDICTED BY RF-SCORE:    0.00 PKD
ROOT
HETATM    1  C   UNL     1      -6.247  16.300  69.349  1.00  0.00    -0.177 C  
HETATM    2  C   UNL     1      -6.297  17.821  69.382  1.00  0.00    -0.239 C  
ENDROOT
BRANCH   2   3
HETATM    3  N   UNL     1      -6.573  18.474  68.010  1.00  0.00    -0.212 N  
HETATM    4  C   UNL     1      -5.923  19.861  67.990  1.00  0.00    -0.222 C  
HETATM    5  C   UNL     1      -5.917  17.617  66.923  1.00  0.00    -0.155 C  
BRANCH   3   6
HETATM    6  C   UNL     1      -8.059  18.689  67.746  1.00  0.00    -0.251 A  
HETATM    7  C   UNL     1      -8.686  18.137  66.615  1.00  0.00    -0.279 A  
HETATM    8  C   UNL     1     -10.031  18.405  66.359  1.00  0.00    -0.386 A  
HETATM    9  O   UNL     1     -10.672  17.894  65.272  1.00  0.00    -0.640 OA 
HETATM   10  C   UNL     1     -10.773  19.220  67.202  1.00  0.00    -0.584 A  
HETATM   11  H   UNL     1     -11.589  18.077  65.098  1.00  0.00     0.000 HD 
HETATM   12  C   UNL     1     -10.161  19.792  68.310  1.00  0.00    -0.575 A  
HETATM   13  C   UNL     1      -8.811  19.542  68.573  1.00  0.00    -0.389 A  
ENDBRANCH   3   6
ENDBRANCH   2   3
TORSDOF 2
ENDMDL
MODEL       60
REMARK 921   NORMALIZED FREE ENERGY PREDICTED BY IDOCK:   -3.67 KCAL/MOL
REMARK 922        TOTAL FREE ENERGY PREDICTED BY IDOCK:   -4.26 KCAL/MOL
REMARK 923 INTER-LIGAND FREE ENERGY PREDICTED BY IDOCK:   -4.13 KCAL/MOL
REMARK 924 INTRA-LIGAND FREE ENERGY PREDICTED BY IDOCK:   -0.13 KCAL/MOL
REMARK 927      BINDING AFFINITY PREDICTED BY RF-SCORE:    0.00 PKD
ROOT
HETATM    1  C   UNL     1     -10.729  19.694  65.708  1.00  0.00    -0.493 C  
HETATM    2  C   UNL     1     -10.415  19.612  67.195  1.00  0.00    -0.471 C  
ENDROOT
BRANCH   2   3
HETATM    3  N   UNL     1      -9.244  18.669  67.543  1.00  0.00    -0.278 N  
HETATM    4  C   UNL     1      -9.617  17.866  68.793  1.00  0.00    -0.286 C  
HETATM    5  C   UNL     1      -9.046  17.690  66.382  1.00  0.00    -0.234 C  
BRANCH   3   6
HETATM    6  C   UNL     1      -7.960  19.420  67.879  1.00  0.00    -0.300 A  
HETATM    7  C   UNL     1      -7.219  19.118  69.035  1.00  0.00    -0.370 A  
HETATM    8  C   UNL     1      -6.086  19.865  69.356  1.00  0.00    -0.303 A  
HETATM    9  O   UNL     1      -5.345  19.607  70.469  1.00  0.00    -0.208 OA 
HETATM   10  C   UNL     1      -5.671  20.919  68.555  1.00  0.00    -0.386 A  
HETATM   11  H   UNL     1      -4.573  20.117  70.688  1.00  0.00     0.000 HD 
HETATM   12  C   UNL     1      -6.407  21.246  67.422  1.00  0.00    -0.426 A  
HETATM   13  C   UNL     1      -7.551  20.513  67.094  1.00  0.00    -0.372 A  
ENDBRANCH   3   6
ENDBRANCH   2   3
TORSDOF 2
ENDMDL
MODEL       61
REMARK 921   NORMALIZED FREE ENERGY PREDICTED BY IDOCK:   -3.66 KCAL/MOL
REMARK 922        TOTAL FREE ENERGY PREDICTED BY IDOCK:   -4.26 KCAL/MOL
REMARK 923 INTER-LIGAND FREE ENERGY PREDICTED BY IDOCK:   -4.07 KCAL/MOL
REMARK 924 INTRA-LIGAND FREE ENERGY PREDICTED BY IDOCK:   -0.18 KCAL/MOL
REMARK 927      BINDING AFFINITY PREDICTED BY RF-SCORE:    0.00 PKD
ROOT
HETATM    1  C   UNL     1      -9.314  13.889  68.052  1.00  0.00    -0.204 C  
HETATM    2  C   UNL     1      -9.270  14.482  66.651  1.00  0.00    -0.266 C  
ENDROOT
BRANCH   2   3
HETATM    3  N   UNL     1     -10.112  15.764  66.480  1.00  0.00    -0.269 N  
HETATM    4  C   UNL     1     -10.858  15.685  65.145  1.00  0.00    -0.431 C  
HETATM    5  C   UNL     1     -11.147  15.820  67.609  1.00  0.00    -0.283 C  
BRANCH   3   6
HETATM    6  C   UNL     1      -9.260  17.028  66.427  1.00  0.00    -0.271 A  
HETATM    7  C   UNL     1      -9.847  18.305  66.452  1.00  0.00    -0.358 A  
HETATM    8  C   UNL     1      -9.051  19.444  66.332  1.00  0.00    -0.360 A  
HETATM    9  O   UNL     1      -9.583  20.698  66.347  1.00  0.00    -0.640 OA 
HETATM   10  C   UNL     1      -7.676  19.345  66.179  1.00  0.00    -0.314 A  
HETATM   11  H   UNL     1      -9.040  21.474  66.265  1.00  0.00     0.000 HD 
HETATM   12  C   UNL     1      -7.084  18.089  66.127  1.00  0.00    -0.330 A  
HETATM   13  C   UNL     1      -7.870  16.938  66.235  1.00  0.00    -0.346 A  
ENDBRANCH   3   6
ENDBRANCH   2   3
TORSDOF 2
ENDMDL
MODEL       62
REMARK 921   NORMALIZED FREE ENERGY PREDICTED BY IDOCK:   -3.66 KCAL/MOL
REMARK 922        TOTAL FREE ENERGY PREDICTED BY IDOCK:   -4.26 KCAL/MOL
REMARK 923 INTER-LIGAND FREE ENERGY PREDICTED BY IDOCK:   -4.08 KCAL/MOL
REMARK 924 INTRA-LIGAND FREE ENERGY PREDICTED BY IDOCK:   -0.18 KCAL/MOL
REMARK 927      BINDING AFFINITY PREDICTED BY RF-SCORE:    0.00 PKD
ROOT
HETATM    1  C   UNL     1      -9.142  10.648  67.229  1.00  0.00    -0.151 C  
HETATM    2  C   UNL     1     -10.357   9.914  67.777  1.00  0.00    -0.221 C  
ENDROOT
BRANCH   2   3
HETATM    3  N   UNL     1     -10.225   9.489  69.255  1.00  0.00    -0.194 N  
HETATM    4  C   UNL     1     -10.479   7.982  69.355  1.00  0.00    -0.220 C  
HETATM    5  C   UNL     1      -8.791   9.769  69.716  1.00  0.00    -0.224 C  
BRANCH   3   6
HETATM    6  C   UNL     1     -11.254  10.163  70.157  1.00  0.00    -0.310 A  
HETATM    7  C   UNL     1     -12.013   9.420  71.078  1.00  0.00    -0.389 A  
HETATM    8  C   UNL     1     -12.996  10.049  71.843  1.00  0.00    -0.447 A  
HETATM    9  O   UNL     1     -13.757   9.364  72.742  1.00  0.00    -0.723 OA 
HETATM   10  C   UNL     1     -13.251  11.406  71.708  1.00  0.00    -0.472 A  
HETATM   11  H   UNL     1     -14.426   9.792  73.262  1.00  0.00     0.000 HD 
HETATM   12  C   UNL     1     -12.526  12.148  70.784  1.00  0.00    -0.362 A  
HETATM   13  C   UNL     1     -11.546  11.530  70.003  1.00  0.00    -0.364 A  
ENDBRANCH   3   6
ENDBRANCH   2   3
TORSDOF 2
ENDMDL
MODEL       63
REMARK 921   NORMALIZED FREE ENERGY PREDICTED BY IDOCK:   -3.66 KCAL/MOL
REMARK 922        TOTAL FREE ENERGY PREDICTED BY IDOCK:   -4.25 KCAL/MOL
REMARK 923 INTER-LIGAND FREE ENERGY PREDICTED BY IDOCK:   -4.19 KCAL/MOL
REMARK 924 INTRA-LIGAND FREE ENERGY PREDICTED BY IDOCK:   -0.06 KCAL/MOL
REMARK 927      BINDING AFFINITY PREDICTED BY RF-SCORE:    0.00 PKD
ROOT
HETATM    1  C   UNL     1     -11.883  13.694  68.168  1.00  0.00    -0.407 C  
HETATM    2  C   UNL     1     -10.820  14.126  67.168  1.00  0.00    -0.290 C  
ENDROOT
BRANCH   2   3
HETATM    3  N   UNL     1     -11.218  13.917  65.692  1.00  0.00    -0.303 N  
HETATM    4  C   UNL     1     -12.746  13.872  65.599  1.00  0.00    -0.495 C  
HETATM    5  C   UNL     1     -10.720  15.116  64.879  1.00  0.00    -0.398 C  
BRANCH   3   6
HETATM    6  C   UNL     1     -10.711  12.595  65.125  1.00  0.00    -0.292 A  
HETATM    7  C   UNL     1     -10.288  11.554  65.970  1.00  0.00    -0.290 A  
HETATM    8  C   UNL     1      -9.764  10.380  65.427  1.00  0.00    -0.265 A  
HETATM    9  O   UNL     1      -9.339   9.351  66.211  1.00  0.00    -0.168 OA 
HETATM   10  C   UNL     1      -9.642  10.217  64.055  1.00  0.00    -0.365 A  
HETATM   11  H   UNL     1      -8.982   8.552  65.841  1.00  0.00     0.000 HD 
HETATM   12  C   UNL     1     -10.033  11.247  63.207  1.00  0.00    -0.428 A  
HETATM   13  C   UNL     1     -10.550  12.433  63.738  1.00  0.00    -0.486 A  
ENDBRANCH   3   6
ENDBRANCH   2   3
TORSDOF 2
ENDMDL
MODEL       64
REMARK 921   NORMALIZED FREE ENERGY PREDICTED BY IDOCK:   -3.65 KCAL/MOL
REMARK 922        TOTAL FREE ENERGY PREDICTED BY IDOCK:   -4.25 KCAL/MOL
REMARK 923 INTER-LIGAND FREE ENERGY PREDICTED BY IDOCK:   -4.06 KCAL/MOL
REMARK 924 INTRA-LIGAND FREE ENERGY PREDICTED BY IDOCK:   -0.19 KCAL/MOL
REMARK 927      BINDING AFFINITY PREDICTED BY RF-SCORE:    0.00 PKD
ROOT
HETATM    1  C   UNL     1      -9.963  18.832  68.768  1.00  0.00    -0.442 C  
HETATM    2  C   UNL     1     -10.343  17.387  69.060  1.00  0.00    -0.319 C  
ENDROOT
BRANCH   2   3
HETATM    3  N   UNL     1      -9.549  16.347  68.241  1.00  0.00    -0.216 N  
HETATM    4  C   UNL     1      -8.317  17.034  67.643  1.00  0.00    -0.190 C  
HETATM    5  C   UNL     1      -9.073  15.242  69.188  1.00  0.00    -0.236 C  
BRANCH   3   6
HETATM    6  C   UNL     1     -10.345  15.788  67.067  1.00  0.00    -0.292 A  
HETATM    7  C   UNL     1     -11.057  14.581  67.179  1.00  0.00    -0.325 A  
HETATM    8  C   UNL     1     -11.721  14.055  66.070  1.00  0.00    -0.369 A  
HETATM    9  O   UNL     1     -12.418  12.886  66.136  1.00  0.00    -0.485 OA 
HETATM   10  C   UNL     1     -11.688  14.698  64.842  1.00  0.00    -0.403 A  
HETATM   11  H   UNL     1     -12.870  12.528  65.381  1.00  0.00     0.000 HD 
HETATM   12  C   UNL     1     -10.967  15.879  64.710  1.00  0.00    -0.392 A  
HETATM   13  C   UNL     1     -10.288  16.412  65.809  1.00  0.00    -0.388 A  
ENDBRANCH   3   6
ENDBRANCH   2   3
TORSDOF 2
ENDMDL
MODEL       65
REMARK 921   NORMALIZED FREE ENERGY PREDICTED BY IDOCK:   -3.64 KCAL/MOL
REMARK 922        TOTAL FREE ENERGY PREDICTED BY IDOCK:   -4.23 KCAL/MOL
REMARK 923 INTER-LIGAND FREE ENERGY PREDICTED BY IDOCK:   -4.06 KCAL/MOL
REMARK 924 INTRA-LIGAND FREE ENERGY PREDICTED BY IDOCK:   -0.17 KCAL/MOL
REMARK 927      BINDING AFFINITY PREDICTED BY RF-SCORE:    0.00 PKD
ROOT
HETATM    1  C   UNL     1      -9.932  14.284  68.462  1.00  0.00    -0.235 C  
HETATM    2  C   UNL     1      -9.553  15.643  69.033  1.00  0.00    -0.243 C  
ENDROOT
BRANCH   2   3
HETATM    3  N   UNL     1      -8.455  16.379  68.235  1.00  0.00    -0.188 N  
HETATM    4  C   UNL     1      -7.271  16.648  69.167  1.00  0.00    -0.220 C  
HETATM    5  C   UNL     1      -7.980  15.464  67.102  1.00  0.00    -0.217 C  
BRANCH   3   6
HETATM    6  C   UNL     1      -8.914  17.737  67.714  1.00  0.00    -0.249 A  
HETATM    7  C   UNL     1      -8.141  18.463  66.790  1.00  0.00    -0.266 A  
HETATM    8  C   UNL     1      -8.549  19.733  66.382  1.00  0.00    -0.360 A  
HETATM    9  O   UNL     1      -7.825  20.469  65.493  1.00  0.00    -0.517 OA 
HETATM   10  C   UNL     1      -9.709  20.308  66.878  1.00  0.00    -0.584 A  
HETATM   11  H   UNL     1      -8.103  21.335  65.215  1.00  0.00     0.000 HD 
HETATM   12  C   UNL     1     -10.470  19.614  67.811  1.00  0.00    -0.573 A  
HETATM   13  C   UNL     1     -10.068  18.345  68.238  1.00  0.00    -0.410 A  
ENDBRANCH   3   6
ENDBRANCH   2   3
TORSDOF 2
ENDMDL
MODEL       66
REMARK 921   NORMALIZED FREE ENERGY PREDICTED BY IDOCK:   -3.62 KCAL/MOL
REMARK 922        TOTAL FREE ENERGY PREDICTED BY IDOCK:   -4.21 KCAL/MOL
REMARK 923 INTER-LIGAND FREE ENERGY PREDICTED BY IDOCK:   -4.10 KCAL/MOL
REMARK 924 INTRA-LIGAND FREE ENERGY PREDICTED BY IDOCK:   -0.11 KCAL/MOL
REMARK 927      BINDING AFFINITY PREDICTED BY RF-SCORE:    0.00 PKD
ROOT
HETATM    1  C   UNL     1      -7.967  17.762  68.500  1.00  0.00    -0.294 C  
HETATM    2  C   UNL     1      -8.428  16.647  67.572  1.00  0.00    -0.188 C  
ENDROOT
BRANCH   2   3
HETATM    3  N   UNL     1      -9.943  16.655  67.279  1.00  0.00    -0.264 N  
HETATM    4  C   UNL     1     -10.432  18.107  67.275  1.00  0.00    -0.393 C  
HETATM    5  C   UNL     1     -10.172  16.066  65.883  1.00  0.00    -0.365 C  
BRANCH   3   6
HETATM    6  C   UNL     1     -10.756  15.927  68.344  1.00  0.00    -0.281 A  
HETATM    7  C   UNL     1     -11.080  16.547  69.564  1.00  0.00    -0.245 A  
HETATM    8  C   UNL     1     -11.765  15.836  70.550  1.00  0.00    -0.377 A  
HETATM    9  O   UNL     1     -12.092  16.399  71.747  1.00  0.00    -0.627 OA 
HETATM   10  C   UNL     1     -12.132  14.513  70.356  1.00  0.00    -0.389 A  
HETATM   11  H   UNL     1     -12.558  15.915  72.418  1.00  0.00     0.000 HD 
HETATM   12  C   UNL     1     -11.796  13.879  69.165  1.00  0.00    -0.401 A  
HETATM   13  C   UNL     1     -11.101  14.576  68.173  1.00  0.00    -0.280 A  
ENDBRANCH   3   6
ENDBRANCH   2   3
TORSDOF 2
ENDMDL
MODEL       67
REMARK 921   NORMALIZED FREE ENERGY PREDICTED BY IDOCK:   -3.62 KCAL/MOL
REMARK 922        TOTAL FREE ENERGY PREDICTED BY IDOCK:   -4.21 KCAL/MOL
REMARK 923 INTER-LIGAND FREE ENERGY PREDICTED BY IDOCK:   -4.03 KCAL/MOL
REMARK 924 INTRA-LIGAND FREE ENERGY PREDICTED BY IDOCK:   -0.18 KCAL/MOL
REMARK 927      BINDING AFFINITY PREDICTED BY RF-SCORE:    0.00 PKD
ROOT
HETATM    1  C   UNL     1     -11.333  13.318  64.967  1.00  0.00    -0.326 C  
HETATM    2  C   UNL     1     -12.022  12.772  66.209  1.00  0.00    -0.395 C  
ENDROOT
BRANCH   2   3
HETATM    3  N   UNL     1     -11.093  12.622  67.433  1.00  0.00    -0.261 N  
HETATM    4  C   UNL     1     -11.224  11.195  67.973  1.00  0.00    -0.296 C  
HETATM    5  C   UNL     1      -9.647  12.835  66.975  1.00  0.00    -0.229 C  
BRANCH   3   6
HETATM    6  C   UNL     1     -11.471  13.555  68.579  1.00  0.00    -0.310 A  
HETATM    7  C   UNL     1     -12.004  13.055  69.780  1.00  0.00    -0.377 A  
HETATM    8  C   UNL     1     -12.404  13.934  70.787  1.00  0.00    -0.378 A  
HETATM    9  O   UNL     1     -12.930  13.490  71.962  1.00  0.00    -0.345 OA 
HETATM   10  C   UNL     1     -12.296  15.307  70.625  1.00  0.00    -0.427 A  
HETATM   11  H   UNL     1     -13.204  14.089  72.648  1.00  0.00     0.000 HD 
HETATM   12  C   UNL     1     -11.794  15.817  69.434  1.00  0.00    -0.361 A  
HETATM   13  C   UNL     1     -11.399  14.949  68.412  1.00  0.00    -0.320 A  
ENDBRANCH   3   6
ENDBRANCH   2   3
TORSDOF 2
ENDMDL
MODEL       68
REMARK 921   NORMALIZED FREE ENERGY PREDICTED BY IDOCK:   -3.62 KCAL/MOL
REMARK 922        TOTAL FREE ENERGY PREDICTED BY IDOCK:   -4.21 KCAL/MOL
REMARK 923 INTER-LIGAND FREE ENERGY PREDICTED BY IDOCK:   -4.07 KCAL/MOL
REMARK 924 INTRA-LIGAND FREE ENERGY PREDICTED BY IDOCK:   -0.14 KCAL/MOL
REMARK 927      BINDING AFFINITY PREDICTED BY RF-SCORE:    0.00 PKD
ROOT
HETATM    1  C   UNL     1     -11.409  15.913  64.429  1.00  0.00    -0.276 C  
HETATM    2  C   UNL     1     -10.749  14.608  64.852  1.00  0.00    -0.427 C  
ENDROOT
BRANCH   2   3
HETATM    3  N   UNL     1     -11.719  13.412  64.951  1.00  0.00    -0.337 N  
HETATM    4  C   UNL     1     -13.033  13.899  65.569  1.00  0.00    -0.332 C  
HETATM    5  C   UNL     1     -12.011  12.903  63.536  1.00  0.00    -0.556 C  
BRANCH   3   6
HETATM    6  C   UNL     1     -11.198  12.302  65.859  1.00  0.00    -0.340 A  
HETATM    7  C   UNL     1     -11.314  12.390  67.257  1.00  0.00    -0.384 A  
HETATM    8  C   UNL     1     -10.769  11.395  68.068  1.00  0.00    -0.200 A  
HETATM    9  O   UNL     1     -10.855  11.446  69.427  1.00  0.00    -0.335 OA 
HETATM   10  C   UNL     1     -10.099  10.310  67.521  1.00  0.00    -0.239 A  
HETATM   11  H   UNL     1     -10.483  10.768  69.979  1.00  0.00     0.000 HD 
HETATM   12  C   UNL     1      -9.955  10.222  66.142  1.00  0.00    -0.300 A  
HETATM   13  C   UNL     1     -10.487  11.218  65.317  1.00  0.00    -0.341 A  
ENDBRANCH   3   6
ENDBRANCH   2   3
TORSDOF 2
ENDMDL
MODEL       69
REMARK 921   NORMALIZED FREE ENERGY PREDICTED BY IDOCK:   -3.61 KCAL/MOL
REMARK 922        TOTAL FREE ENERGY PREDICTED BY IDOCK:   -4.20 KCAL/MOL
REMARK 923 INTER-LIGAND FREE ENERGY PREDICTED BY IDOCK:   -4.04 KCAL/MOL
REMARK 924 INTRA-LIGAND FREE ENERGY PREDICTED BY IDOCK:   -0.16 KCAL/MOL
REMARK 927      BINDING AFFINITY PREDICTED BY RF-SCORE:    0.00 PKD
ROOT
HETATM    1  C   UNL     1     -12.061  12.670  63.277  1.00  0.00    -0.524 C  
HETATM    2  C   UNL     1     -12.467  12.608  64.742  1.00  0.00    -0.484 C  
ENDROOT
BRANCH   2   3
HETATM    3  N   UNL     1     -11.279  12.639  65.728  1.00  0.00    -0.300 N  
HETATM    4  C   UNL     1     -11.114  11.245  66.339  1.00  0.00    -0.193 C  
HETATM    5  C   UNL     1     -10.006  12.978  64.946  1.00  0.00    -0.130 C  
BRANCH   3   6
HETATM    6  C   UNL     1     -11.504  13.598  66.893  1.00  0.00    -0.345 A  
HETATM    7  C   UNL     1     -11.118  14.948  66.810  1.00  0.00    -0.335 A  
HETATM    8  C   UNL     1     -11.271  15.788  67.913  1.00  0.00    -0.313 A  
HETATM    9  O   UNL     1     -10.905  17.100  67.875  1.00  0.00    -0.363 OA 
HETATM   10  C   UNL     1     -11.795  15.316  69.107  1.00  0.00    -0.345 A  
HETATM   11  H   UNL     1     -11.009  17.672  68.627  1.00  0.00     0.000 HD 
HETATM   12  C   UNL     1     -12.158  13.978  69.212  1.00  0.00    -0.380 A  
HETATM   13  C   UNL     1     -12.000  13.122  68.119  1.00  0.00    -0.333 A  
ENDBRANCH   3   6
ENDBRANCH   2   3
TORSDOF 2
ENDMDL
MODEL       70
REMARK 921   NORMALIZED FREE ENERGY PREDICTED BY IDOCK:   -3.61 KCAL/MOL
REMARK 922        TOTAL FREE ENERGY PREDICTED BY IDOCK:   -4.20 KCAL/MOL
REMARK 923 INTER-LIGAND FREE ENERGY PREDICTED BY IDOCK:   -4.02 KCAL/MOL
REMARK 924 INTRA-LIGAND FREE ENERGY PREDICTED BY IDOCK:   -0.18 KCAL/MOL
REMARK 927      BINDING AFFINITY PREDICTED BY RF-SCORE:    0.00 PKD
ROOT
HETATM    1  C   UNL     1     -14.382   7.278  71.462  1.00  0.00    -0.558 C  
HETATM    2  C   UNL     1     -13.390   8.263  72.064  1.00  0.00    -0.313 C  
ENDROOT
BRANCH   2   3
HETATM    3  N   UNL     1     -11.972   8.182  71.459  1.00  0.00    -0.288 N  
HETATM    4  C   UNL     1     -10.953   8.166  72.602  1.00  0.00    -0.370 C  
HETATM    5  C   UNL     1     -11.849   6.867  70.683  1.00  0.00    -0.368 C  
BRANCH   3   6
HETATM    6  C   UNL     1     -11.630   9.389  70.592  1.00  0.00    -0.269 A  
HETATM    7  C   UNL     1     -12.165  10.660  70.867  1.00  0.00    -0.497 A  
HETATM    8  C   UNL     1     -11.892  11.733  70.019  1.00  0.00    -0.342 A  
HETATM    9  O   UNL     1     -12.395  12.978  70.249  1.00  0.00    -0.310 OA 
HETATM   10  C   UNL     1     -11.101  11.572  68.891  1.00  0.00    -0.288 A  
HETATM   11  H   UNL     1     -12.209  13.709  69.671  1.00  0.00     0.000 HD 
HETATM   12  C   UNL     1     -10.586  10.317  68.592  1.00  0.00    -0.232 A  
HETATM   13  C   UNL     1     -10.860   9.230  69.427  1.00  0.00    -0.184 A  
ENDBRANCH   3   6
ENDBRANCH   2   3
TORSDOF 2
ENDMDL
MODEL       71
REMARK 921   NORMALIZED FREE ENERGY PREDICTED BY IDOCK:   -3.60 KCAL/MOL
REMARK 922        TOTAL FREE ENERGY PREDICTED BY IDOCK:   -4.18 KCAL/MOL
REMARK 923 INTER-LIGAND FREE ENERGY PREDICTED BY IDOCK:   -4.00 KCAL/MOL
REMARK 924 INTRA-LIGAND FREE ENERGY PREDICTED BY IDOCK:   -0.18 KCAL/MOL
REMARK 927      BINDING AFFINITY PREDICTED BY RF-SCORE:    0.00 PKD
ROOT
HETATM    1  C   UNL     1      -6.246  16.108  67.381  1.00  0.00    -0.200 C  
HETATM    2  C   UNL     1      -6.416  17.424  68.127  1.00  0.00    -0.168 C  
ENDROOT
BRANCH   2   3
HETATM    3  N   UNL     1      -6.741  18.628  67.218  1.00  0.00    -0.200 N  
HETATM    4  C   UNL     1      -5.873  19.814  67.650  1.00  0.00    -0.182 C  
HETATM    5  C   UNL     1      -6.374  18.262  65.776  1.00  0.00    -0.263 C  
BRANCH   3   6
HETATM    6  C   UNL     1      -8.190  19.085  67.338  1.00  0.00    -0.275 A  
HETATM    7  C   UNL     1      -8.727  19.491  68.573  1.00  0.00    -0.388 A  
HETATM    8  C   UNL     1     -10.074  19.840  68.670  1.00  0.00    -0.440 A  
HETATM    9  O   UNL     1     -10.633  20.233  69.849  1.00  0.00    -0.606 OA 
HETATM   10  C   UNL     1     -10.910  19.787  67.565  1.00  0.00    -0.406 A  
HETATM   11  H   UNL     1     -11.550  20.470  69.915  1.00  0.00     0.000 HD 
HETATM   12  C   UNL     1     -10.400  19.364  66.343  1.00  0.00    -0.575 A  
HETATM   13  C   UNL     1      -9.055  19.001  66.233  1.00  0.00    -0.298 A  
ENDBRANCH   3   6
ENDBRANCH   2   3
TORSDOF 2
ENDMDL
MODEL       72
REMARK 921   NORMALIZED FREE ENERGY PREDICTED BY IDOCK:   -3.56 KCAL/MOL
REMARK 922        TOTAL FREE ENERGY PREDICTED BY IDOCK:   -4.15 KCAL/MOL
REMARK 923 INTER-LIGAND FREE ENERGY PREDICTED BY IDOCK:   -3.92 KCAL/MOL
REMARK 924 INTRA-LIGAND FREE ENERGY PREDICTED BY IDOCK:   -0.23 KCAL/MOL
REMARK 927      BINDING AFFINITY PREDICTED BY RF-SCORE:    0.00 PKD
ROOT
HETATM    1  C   UNL     1     -11.856  12.979  69.291  1.00  0.00    -0.370 C  
HETATM    2  C   UNL     1     -10.880  12.214  68.408  1.00  0.00    -0.224 C  
ENDROOT
BRANCH   2   3
HETATM    3  N   UNL     1      -9.792  13.094  67.758  1.00  0.00    -0.221 N  
HETATM    4  C   UNL     1      -9.173  13.984  68.840  1.00  0.00     0.043 C  
HETATM    5  C   UNL     1      -8.696  12.180  67.201  1.00  0.00    -0.190 C  
BRANCH   3   6
HETATM    6  C   UNL     1     -10.348  14.032  66.692  1.00  0.00    -0.278 A  
HETATM    7  C   UNL     1     -11.137  13.546  65.634  1.00  0.00    -0.299 A  
HETATM    8  C   UNL     1     -11.577  14.413  64.634  1.00  0.00    -0.409 A  
HETATM    9  O   UNL     1     -12.339  13.980  63.590  1.00  0.00    -0.942 OA 
HETATM   10  C   UNL     1     -11.244  15.759  64.654  1.00  0.00    -0.373 A  
HETATM   11  H   UNL     1     -12.638  14.571  62.909  1.00  0.00     0.000 HD 
HETATM   12  C   UNL     1     -10.444  16.249  65.679  1.00  0.00    -0.386 A  
HETATM   13  C   UNL     1      -9.986  15.390  66.682  1.00  0.00    -0.271 A  
ENDBRANCH   3   6
ENDBRANCH   2   3
TORSDOF 2
ENDMDL
MODEL       73
REMARK 921   NORMALIZED FREE ENERGY PREDICTED BY IDOCK:   -3.56 KCAL/MOL
REMARK 922        TOTAL FREE ENERGY PREDICTED BY IDOCK:   -4.15 KCAL/MOL
REMARK 923 INTER-LIGAND FREE ENERGY PREDICTED BY IDOCK:   -3.92 KCAL/MOL
REMARK 924 INTRA-LIGAND FREE ENERGY PREDICTED BY IDOCK:   -0.23 KCAL/MOL
REMARK 927      BINDING AFFINITY PREDICTED BY RF-SCORE:    0.00 PKD
ROOT
HETATM    1  C   UNL     1      -6.543  17.805  68.655  1.00  0.00    -0.218 C  
HETATM    2  C   UNL     1      -7.832  18.612  68.603  1.00  0.00    -0.321 C  
ENDROOT
BRANCH   2   3
HETATM    3  N   UNL     1      -8.602  18.488  67.271  1.00  0.00    -0.259 N  
HETATM    4  C   UNL     1      -9.594  19.650  67.170  1.00  0.00    -0.348 C  
HETATM    5  C   UNL     1      -7.602  18.605  66.117  1.00  0.00    -0.246 C  
BRANCH   3   6
HETATM    6  C   UNL     1      -9.426  17.207  67.183  1.00  0.00    -0.248 A  
HETATM    7  C   UNL     1     -10.505  16.973  68.052  1.00  0.00    -0.353 A  
HETATM    8  C   UNL     1     -11.200  15.765  67.997  1.00  0.00    -0.338 A  
HETATM    9  O   UNL     1     -12.247  15.498  68.826  1.00  0.00    -0.587 OA 
HETATM   10  C   UNL     1     -10.841  14.772  67.097  1.00  0.00    -0.311 A  
HETATM   11  H   UNL     1     -12.720  14.674  68.788  1.00  0.00     0.000 HD 
HETATM   12  C   UNL     1      -9.760  14.979  66.248  1.00  0.00    -0.316 A  
HETATM   13  C   UNL     1      -9.048  16.181  66.300  1.00  0.00    -0.373 A  
ENDBRANCH   3   6
ENDBRANCH   2   3
TORSDOF 2
ENDMDL
MODEL       74
REMARK 921   NORMALIZED FREE ENERGY PREDICTED BY IDOCK:   -3.55 KCAL/MOL
REMARK 922        TOTAL FREE ENERGY PREDICTED BY IDOCK:   -4.13 KCAL/MOL
REMARK 923 INTER-LIGAND FREE ENERGY PREDICTED BY IDOCK:   -3.96 KCAL/MOL
REMARK 924 INTRA-LIGAND FREE ENERGY PREDICTED BY IDOCK:   -0.17 KCAL/MOL
REMARK 927      BINDING AFFINITY PREDICTED BY RF-SCORE:    0.00 PKD
ROOT
HETATM    1  C   UNL     1     -11.676  12.967  69.295  1.00  0.00    -0.378 C  
HETATM    2  C   UNL     1     -10.413  13.347  68.534  1.00  0.00    -0.252 C  
ENDROOT
BRANCH   2   3
HETATM    3  N   UNL     1     -10.671  14.170  67.253  1.00  0.00    -0.277 N  
HETATM    4  C   UNL     1      -9.865  13.553  66.106  1.00  0.00    -0.283 C  
HETATM    5  C   UNL     1     -12.159  14.074  66.904  1.00  0.00    -0.430 C  
BRANCH   3   6
HETATM    6  C   UNL     1     -10.207  15.617  67.379  1.00  0.00    -0.264 A  
HETATM    7  C   UNL     1      -9.338  16.189  66.432  1.00  0.00    -0.329 A  
HETATM    8  C   UNL     1      -8.874  17.493  66.606  1.00  0.00    -0.262 A  
HETATM    9  O   UNL     1      -8.028  18.080  65.715  1.00  0.00    -0.532 OA 
HETATM   10  C   UNL     1      -9.248  18.246  67.709  1.00  0.00    -0.276 A  
HETATM   11  H   UNL     1      -7.711  18.968  65.834  1.00  0.00     0.000 HD 
HETATM   12  C   UNL     1     -10.087  17.686  68.666  1.00  0.00    -0.377 A  
HETATM   13  C   UNL     1     -10.551  16.377  68.510  1.00  0.00    -0.304 A  
ENDBRANCH   3   6
ENDBRANCH   2   3
TORSDOF 2
ENDMDL
MODEL       75
REMARK 921   NORMALIZED FREE ENERGY PREDICTED BY IDOCK:   -3.54 KCAL/MOL
REMARK 922        TOTAL FREE ENERGY PREDICTED BY IDOCK:   -4.12 KCAL/MOL
REMARK 923 INTER-LIGAND FREE ENERGY PREDICTED BY IDOCK:   -3.97 KCAL/MOL
REMARK 924 INTRA-LIGAND FREE ENERGY PREDICTED BY IDOCK:   -0.14 KCAL/MOL
REMARK 927      BINDING AFFINITY PREDICTED BY RF-SCORE:    0.00 PKD
ROOT
HETATM    1  C   UNL     1     -10.693  16.960  68.153  1.00  0.00    -0.375 C  
HETATM    2  C   UNL     1     -11.200  15.565  67.816  1.00  0.00    -0.302 C  
ENDROOT
BRANCH   2   3
HETATM    3  N   UNL     1     -10.247  14.746  66.920  1.00  0.00    -0.255 N  
HETATM    4  C   UNL     1     -10.473  15.157  65.462  1.00  0.00    -0.379 C  
HETATM    5  C   UNL     1      -8.804  15.091  67.300  1.00  0.00    -0.201 C  
BRANCH   3   6
HETATM    6  C   UNL     1     -10.512  13.246  66.992  1.00  0.00    -0.249 A  
HETATM    7  C   UNL     1     -11.397  12.707  67.942  1.00  0.00    -0.337 A  
HETATM    8  C   UNL     1     -11.571  11.325  68.033  1.00  0.00    -0.272 A  
HETATM    9  O   UNL     1     -12.415  10.764  68.943  1.00  0.00    -0.782 OA 
HETATM   10  C   UNL     1     -10.875  10.459  67.203  1.00  0.00    -0.301 A  
HETATM   11  H   UNL     1     -12.532   9.823  69.005  1.00  0.00     0.000 HD 
HETATM   12  C   UNL     1      -9.977  10.976  66.276  1.00  0.00    -0.269 A  
HETATM   13  C   UNL     1      -9.786  12.357  66.181  1.00  0.00    -0.254 A  
ENDBRANCH   3   6
ENDBRANCH   2   3
TORSDOF 2
ENDMDL
MODEL       76
REMARK 921   NORMALIZED FREE ENERGY PREDICTED BY IDOCK:   -3.53 KCAL/MOL
REMARK 922        TOTAL FREE ENERGY PREDICTED BY IDOCK:   -4.11 KCAL/MOL
REMARK 923 INTER-LIGAND FREE ENERGY PREDICTED BY IDOCK:   -3.87 KCAL/MOL
REMARK 924 INTRA-LIGAND FREE ENERGY PREDICTED BY IDOCK:   -0.24 KCAL/MOL
REMARK 927      BINDING AFFINITY PREDICTED BY RF-SCORE:    0.00 PKD
ROOT
HETATM    1  C   UNL     1     -10.344  12.057  65.698  1.00  0.00    -0.288 C  
HETATM    2  C   UNL     1     -10.312  13.396  64.976  1.00  0.00    -0.347 C  
ENDROOT
BRANCH   2   3
HETATM    3  N   UNL     1     -11.356  14.414  65.484  1.00  0.00    -0.326 N  
HETATM    4  C   UNL     1     -11.257  15.682  64.631  1.00  0.00    -0.369 C  
HETATM    5  C   UNL     1     -12.752  13.813  65.295  1.00  0.00    -0.439 C  
BRANCH   3   6
HETATM    6  C   UNL     1     -11.110  14.842  66.927  1.00  0.00    -0.339 A  
HETATM    7  C   UNL     1     -12.123  14.746  67.898  1.00  0.00    -0.161 A  
HETATM    8  C   UNL     1     -11.895  15.208  69.194  1.00  0.00    -0.313 A  
HETATM    9  O   UNL     1     -12.851  15.138  70.162  1.00  0.00    -0.586 OA 
HETATM   10  C   UNL     1     -10.680  15.773  69.551  1.00  0.00    -0.278 A  
HETATM   11  H   UNL     1     -12.696  15.453  71.045  1.00  0.00     0.000 HD 
HETATM   12  C   UNL     1      -9.678  15.897  68.596  1.00  0.00    -0.207 A  
HETATM   13  C   UNL     1      -9.896  15.449  67.290  1.00  0.00    -0.217 A  
ENDBRANCH   3   6
ENDBRANCH   2   3
TORSDOF 2
ENDMDL
MODEL       77
REMARK 921   NORMALIZED FREE ENERGY PREDICTED BY IDOCK:   -3.52 KCAL/MOL
REMARK 922        TOTAL FREE ENERGY PREDICTED BY IDOCK:   -4.10 KCAL/MOL
REMARK 923 INTER-LIGAND FREE ENERGY PREDICTED BY IDOCK:   -3.90 KCAL/MOL
REMARK 924 INTRA-LIGAND FREE ENERGY PREDICTED BY IDOCK:   -0.20 KCAL/MOL
REMARK 927      BINDING AFFINITY PREDICTED BY RF-SCORE:    0.00 PKD
ROOT
HETATM    1  C   UNL     1     -13.124   9.775  71.530  1.00  0.00    -0.506 C  
HETATM    2  C   UNL     1     -11.637   9.906  71.235  1.00  0.00    -0.379 C  
ENDROOT
BRANCH   2   3
HETATM    3  N   UNL     1     -10.887   8.559  71.157  1.00  0.00    -0.232 N  
HETATM    4  C   UNL     1      -9.457   8.766  71.666  1.00  0.00    -0.288 C  
HETATM    5  C   UNL     1     -11.588   7.558  72.080  1.00  0.00    -0.287 C  
BRANCH   3   6
HETATM    6  C   UNL     1     -10.766   8.032  69.731  1.00  0.00    -0.231 A  
HETATM    7  C   UNL     1     -10.531   8.900  68.650  1.00  0.00    -0.223 A  
HETATM    8  C   UNL     1     -10.493   8.401  67.348  1.00  0.00    -0.283 A  
HETATM    9  O   UNL     1     -10.273   9.210  66.274  1.00  0.00    -0.276 OA 
HETATM   10  C   UNL     1     -10.693   7.053  67.090  1.00  0.00    -0.433 A  
HETATM   11  H   UNL     1     -10.247   8.870  65.387  1.00  0.00     0.000 HD 
HETATM   12  C   UNL     1     -10.951   6.187  68.146  1.00  0.00    -0.398 A  
HETATM   13  C   UNL     1     -11.003   6.674  69.455  1.00  0.00    -0.361 A  
ENDBRANCH   3   6
ENDBRANCH   2   3
TORSDOF 2
ENDMDL
MODEL       78
REMARK 921   NORMALIZED FREE ENERGY PREDICTED BY IDOCK:   -3.52 KCAL/MOL
REMARK 922        TOTAL FREE ENERGY PREDICTED BY IDOCK:   -4.09 KCAL/MOL
REMARK 923 INTER-LIGAND FREE ENERGY PREDICTED BY IDOCK:   -3.92 KCAL/MOL
REMARK 924 INTRA-LIGAND FREE ENERGY PREDICTED BY IDOCK:   -0.17 KCAL/MOL
REMARK 927      BINDING AFFINITY PREDICTED BY RF-SCORE:    0.00 PKD
ROOT
HETATM    1  C   UNL     1     -14.251   7.513  71.468  1.00  0.00    -0.580 C  
HETATM    2  C   UNL     1     -13.116   8.438  71.885  1.00  0.00    -0.358 C  
ENDROOT
BRANCH   2   3
HETATM    3  N   UNL     1     -11.739   8.046  71.310  1.00  0.00    -0.279 N  
HETATM    4  C   UNL     1     -11.880   6.715  70.566  1.00  0.00    -0.370 C  
HETATM    5  C   UNL     1     -11.310   9.118  70.303  1.00  0.00    -0.188 C  
BRANCH   3   6
HETATM    6  C   UNL     1     -10.687   7.829  72.392  1.00  0.00    -0.290 A  
HETATM    7  C   UNL     1      -9.433   8.463  72.329  1.00  0.00    -0.367 A  
HETATM    8  C   UNL     1      -8.463   8.194  73.295  1.00  0.00    -0.230 A  
HETATM    9  O   UNL     1      -7.235   8.783  73.265  1.00  0.00    -0.350 OA 
HETATM   10  C   UNL     1      -8.706   7.298  74.325  1.00  0.00    -0.250 A  
HETATM   11  H   UNL     1      -6.575   8.599  73.923  1.00  0.00     0.000 HD 
HETATM   12  C   UNL     1      -9.932   6.645  74.387  1.00  0.00    -0.359 A  
HETATM   13  C   UNL     1     -10.909   6.896  73.420  1.00  0.00    -0.303 A  
ENDBRANCH   3   6
ENDBRANCH   2   3
TORSDOF 2
ENDMDL
MODEL       79
REMARK 921   NORMALIZED FREE ENERGY PREDICTED BY IDOCK:   -3.51 KCAL/MOL
REMARK 922        TOTAL FREE ENERGY PREDICTED BY IDOCK:   -4.09 KCAL/MOL
REMARK 923 INTER-LIGAND FREE ENERGY PREDICTED BY IDOCK:   -3.86 KCAL/MOL
REMARK 924 INTRA-LIGAND FREE ENERGY PREDICTED BY IDOCK:   -0.23 KCAL/MOL
REMARK 927      BINDING AFFINITY PREDICTED BY RF-SCORE:    0.00 PKD
ROOT
HETATM    1  C   UNL     1     -11.197  15.832  70.779  1.00  0.00    -0.404 C  
HETATM    2  C   UNL     1     -11.655  15.494  69.368  1.00  0.00    -0.355 C  
ENDROOT
BRANCH   2   3
HETATM    3  N   UNL     1     -10.533  15.547  68.309  1.00  0.00    -0.238 N  
HETATM    4  C   UNL     1      -9.488  14.481  68.652  1.00  0.00    -0.205 C  
HETATM    5  C   UNL     1     -11.137  15.208  66.943  1.00  0.00    -0.314 C  
BRANCH   3   6
HETATM    6  C   UNL     1      -9.800  16.884  68.292  1.00  0.00    -0.266 A  
HETATM    7  C   UNL     1     -10.420  18.049  67.809  1.00  0.00    -0.421 A  
HETATM    8  C   UNL     1      -9.706  19.245  67.740  1.00  0.00    -0.326 A  
HETATM    9  O   UNL     1     -10.270  20.394  67.273  1.00  0.00    -0.407 OA 
HETATM   10  C   UNL     1      -8.377  19.311  68.133  1.00  0.00    -0.358 A  
HETATM   11  H   UNL     1      -9.782  21.209  67.226  1.00  0.00     0.000 HD 
HETATM   12  C   UNL     1      -7.743  18.161  68.589  1.00  0.00    -0.309 A  
HETATM   13  C   UNL     1      -8.443  16.953  68.654  1.00  0.00    -0.260 A  
ENDBRANCH   3   6
ENDBRANCH   2   3
TORSDOF 2
ENDMDL
MODEL       80
REMARK 921   NORMALIZED FREE ENERGY PREDICTED BY IDOCK:   -3.51 KCAL/MOL
REMARK 922        TOTAL FREE ENERGY PREDICTED BY IDOCK:   -4.09 KCAL/MOL
REMARK 923 INTER-LIGAND FREE ENERGY PREDICTED BY IDOCK:   -3.94 KCAL/MOL
REMARK 924 INTRA-LIGAND FREE ENERGY PREDICTED BY IDOCK:   -0.15 KCAL/MOL
REMARK 927      BINDING AFFINITY PREDICTED BY RF-SCORE:    0.00 PKD
ROOT
HETATM    1  C   UNL     1      -9.345  10.073  66.399  1.00  0.00    -0.211 C  
HETATM    2  C   UNL     1     -10.748  10.448  66.854  1.00  0.00    -0.207 C  
ENDROOT
BRANCH   2   3
HETATM    3  N   UNL     1     -10.785  11.372  68.091  1.00  0.00    -0.191 N  
HETATM    4  C   UNL     1      -9.369  11.888  68.358  1.00  0.00    -0.184 C  
HETATM    5  C   UNL     1     -11.684  12.571  67.775  1.00  0.00    -0.359 C  
BRANCH   3   6
HETATM    6  C   UNL     1     -11.228  10.647  69.357  1.00  0.00    -0.270 A  
HETATM    7  C   UNL     1     -12.143  11.232  70.250  1.00  0.00    -0.459 A  
HETATM    8  C   UNL     1     -12.480  10.578  71.435  1.00  0.00    -0.411 A  
HETATM    9  O   UNL     1     -13.357  11.114  72.329  1.00  0.00    -0.633 OA 
HETATM   10  C   UNL     1     -11.921   9.351  71.762  1.00  0.00    -0.452 A  
HETATM   11  H   UNL     1     -13.586  10.668  73.136  1.00  0.00     0.000 HD 
HETATM   12  C   UNL     1     -10.996   8.772  70.900  1.00  0.00    -0.315 A  
HETATM   13  C   UNL     1     -10.641   9.421  69.715  1.00  0.00    -0.247 A  
ENDBRANCH   3   6
ENDBRANCH   2   3
TORSDOF 2
ENDMDL
MODEL       81
REMARK 921   NORMALIZED FREE ENERGY PREDICTED BY IDOCK:   -3.50 KCAL/MOL
REMARK 922        TOTAL FREE ENERGY PREDICTED BY IDOCK:   -4.08 KCAL/MOL
REMARK 923 INTER-LIGAND FREE ENERGY PREDICTED BY IDOCK:   -3.94 KCAL/MOL
REMARK 924 INTRA-LIGAND FREE ENERGY PREDICTED BY IDOCK:   -0.14 KCAL/MOL
REMARK 927      BINDING AFFINITY PREDICTED BY RF-SCORE:    0.00 PKD
ROOT
HETATM    1  C   UNL     1      -8.022  16.725  66.317  1.00  0.00    -0.352 C  
HETATM    2  C   UNL     1      -8.702  15.598  67.080  1.00  0.00    -0.210 C  
ENDROOT
BRANCH   2   3
HETATM    3  N   UNL     1     -10.241  15.594  66.963  1.00  0.00    -0.268 N  
HETATM    4  C   UNL     1     -10.811  16.584  67.983  1.00  0.00    -0.337 C  
HETATM    5  C   UNL     1     -10.623  16.074  65.559  1.00  0.00    -0.398 C  
BRANCH   3   6
HETATM    6  C   UNL     1     -10.855  14.236  67.287  1.00  0.00    -0.284 A  
HETATM    7  C   UNL     1     -10.936  13.770  68.611  1.00  0.00    -0.287 A  
HETATM    8  C   UNL     1     -11.439  12.496  68.875  1.00  0.00    -0.307 A  
HETATM    9  O   UNL     1     -11.528  12.006  70.143  1.00  0.00    -0.511 OA 
HETATM   10  C   UNL     1     -11.860  11.664  67.848  1.00  0.00    -0.273 A  
HETATM   11  H   UNL     1     -11.871  11.138  70.322  1.00  0.00     0.000 HD 
HETATM   12  C   UNL     1     -11.764  12.102  66.532  1.00  0.00    -0.392 A  
HETATM   13  C   UNL     1     -11.251  13.372  66.252  1.00  0.00    -0.322 A  
ENDBRANCH   3   6
ENDBRANCH   2   3
TORSDOF 2
ENDMDL
MODEL       82
REMARK 921   NORMALIZED FREE ENERGY PREDICTED BY IDOCK:   -3.48 KCAL/MOL
REMARK 922        TOTAL FREE ENERGY PREDICTED BY IDOCK:   -4.05 KCAL/MOL
REMARK 923 INTER-LIGAND FREE ENERGY PREDICTED BY IDOCK:   -3.96 KCAL/MOL
REMARK 924 INTRA-LIGAND FREE ENERGY PREDICTED BY IDOCK:   -0.09 KCAL/MOL
REMARK 927      BINDING AFFINITY PREDICTED BY RF-SCORE:    0.00 PKD
ROOT
HETATM    1  C   UNL     1     -10.438  15.022  68.517  1.00  0.00    -0.232 C  
HETATM    2  C   UNL     1     -11.661  14.699  67.672  1.00  0.00    -0.363 C  
ENDROOT
BRANCH   2   3
HETATM    3  N   UNL     1     -11.351  13.889  66.394  1.00  0.00    -0.319 N  
HETATM    4  C   UNL     1     -12.600  13.877  65.509  1.00  0.00    -0.526 C  
HETATM    5  C   UNL     1     -10.226  14.596  65.632  1.00  0.00    -0.359 C  
BRANCH   3   6
HETATM    6  C   UNL     1     -11.013  12.431  66.687  1.00  0.00    -0.268 A  
HETATM    7  C   UNL     1     -10.334  11.638  65.745  1.00  0.00    -0.292 A  
HETATM    8  C   UNL     1     -10.097  10.289  66.008  1.00  0.00    -0.244 A  
HETATM    9  O   UNL     1      -9.448   9.485  65.119  1.00  0.00    -0.296 OA 
HETATM   10  C   UNL     1     -10.527   9.702  67.189  1.00  0.00    -0.317 A  
HETATM   11  H   UNL     1      -9.287   8.566  65.299  1.00  0.00     0.000 HD 
HETATM   12  C   UNL     1     -11.221  10.467  68.118  1.00  0.00    -0.357 A  
HETATM   13  C   UNL     1     -11.475  11.818  67.863  1.00  0.00    -0.387 A  
ENDBRANCH   3   6
ENDBRANCH   2   3
TORSDOF 2
ENDMDL
MODEL       83
REMARK 921   NORMALIZED FREE ENERGY PREDICTED BY IDOCK:   -3.48 KCAL/MOL
REMARK 922        TOTAL FREE ENERGY PREDICTED BY IDOCK:   -4.05 KCAL/MOL
REMARK 923 INTER-LIGAND FREE ENERGY PREDICTED BY IDOCK:   -3.91 KCAL/MOL
REMARK 924 INTRA-LIGAND FREE ENERGY PREDICTED BY IDOCK:   -0.15 KCAL/MOL
REMARK 927      BINDING AFFINITY PREDICTED BY RF-SCORE:    0.00 PKD
ROOT
HETATM    1  C   UNL     1      -8.463  10.376  68.269  1.00  0.00    -0.123 C  
HETATM    2  C   UNL     1      -9.890  10.112  68.727  1.00  0.00    -0.175 C  
ENDROOT
BRANCH   2   3
HETATM    3  N   UNL     1     -10.011   9.044  69.835  1.00  0.00    -0.184 N  
HETATM    4  C   UNL     1     -10.042   7.661  69.180  1.00  0.00    -0.194 C  
HETATM    5  C   UNL     1      -8.770   9.128  70.729  1.00  0.00    -0.236 C  
BRANCH   3   6
HETATM    6  C   UNL     1     -11.301   9.171  70.640  1.00  0.00    -0.273 A  
HETATM    7  C   UNL     1     -11.796  10.427  71.030  1.00  0.00    -0.458 A  
HETATM    8  C   UNL     1     -12.940  10.513  71.823  1.00  0.00    -0.476 A  
HETATM    9  O   UNL     1     -13.449  11.711  72.227  1.00  0.00    -0.610 OA 
HETATM   10  C   UNL     1     -13.605   9.372  72.248  1.00  0.00    -0.532 A  
HETATM   11  H   UNL     1     -14.228  11.769  72.767  1.00  0.00     0.000 HD 
HETATM   12  C   UNL     1     -13.114   8.123  71.891  1.00  0.00    -0.349 A  
HETATM   13  C   UNL     1     -11.962   8.021  71.106  1.00  0.00    -0.297 A  
ENDBRANCH   3   6
ENDBRANCH   2   3
TORSDOF 2
ENDMDL
MODEL       84
REMARK 921   NORMALIZED FREE ENERGY PREDICTED BY IDOCK:   -3.46 KCAL/MOL
REMARK 922        TOTAL FREE ENERGY PREDICTED BY IDOCK:   -4.03 KCAL/MOL
REMARK 923 INTER-LIGAND FREE ENERGY PREDICTED BY IDOCK:   -3.86 KCAL/MOL
REMARK 924 INTRA-LIGAND FREE ENERGY PREDICTED BY IDOCK:   -0.16 KCAL/MOL
REMARK 927      BINDING AFFINITY PREDICTED BY RF-SCORE:    0.00 PKD
ROOT
HETATM    1  C   UNL     1      -8.490  12.169  67.060  1.00  0.00    -0.183 C  
HETATM    2  C   UNL     1      -9.466  13.289  67.392  1.00  0.00    -0.218 C  
ENDROOT
BRANCH   2   3
HETATM    3  N   UNL     1      -8.792  14.645  67.694  1.00  0.00    -0.174 N  
HETATM    4  C   UNL     1      -8.911  14.925  69.195  1.00  0.00    -0.145 C  
HETATM    5  C   UNL     1      -7.306  14.540  67.339  1.00  0.00    -0.157 C  
BRANCH   3   6
HETATM    6  C   UNL     1      -9.467  15.811  66.981  1.00  0.00    -0.223 A  
HETATM    7  C   UNL     1     -10.210  15.614  65.804  1.00  0.00    -0.391 A  
HETATM    8  C   UNL     1     -10.760  16.707  65.132  1.00  0.00    -0.189 A  
HETATM    9  O   UNL     1     -11.482  16.558  63.986  1.00  0.00    -1.513 OA 
HETATM   10  C   UNL     1     -10.582  18.000  65.600  1.00  0.00    -0.104 A  
HETATM   11  H   UNL     1     -11.856  17.302  63.529  1.00  0.00     0.000 HD 
HETATM   12  C   UNL     1      -9.830  18.213  66.749  1.00  0.00    -0.337 A  
HETATM   13  C   UNL     1      -9.263  17.129  67.426  1.00  0.00    -0.232 A  
ENDBRANCH   3   6
ENDBRANCH   2   3
TORSDOF 2
ENDMDL
MODEL       85
REMARK 921   NORMALIZED FREE ENERGY PREDICTED BY IDOCK:   -3.45 KCAL/MOL
REMARK 922        TOTAL FREE ENERGY PREDICTED BY IDOCK:   -4.02 KCAL/MOL
REMARK 923 INTER-LIGAND FREE ENERGY PREDICTED BY IDOCK:   -3.86 KCAL/MOL
REMARK 924 INTRA-LIGAND FREE ENERGY PREDICTED BY IDOCK:   -0.17 KCAL/MOL
REMARK 927      BINDING AFFINITY PREDICTED BY RF-SCORE:    0.00 PKD
ROOT
HETATM    1  C   UNL     1      -8.452  13.492  68.187  1.00  0.00    -0.172 C  
HETATM    2  C   UNL     1      -9.096  12.454  67.279  1.00  0.00    -0.187 C  
ENDROOT
BRANCH   2   3
HETATM    3  N   UNL     1     -10.610  12.658  67.061  1.00  0.00    -0.238 N  
HETATM    4  C   UNL     1     -10.819  13.944  66.256  1.00  0.00    -0.290 C  
HETATM    5  C   UNL     1     -11.146  11.482  66.238  1.00  0.00    -0.263 C  
BRANCH   3   6
HETATM    6  C   UNL     1     -11.377  12.835  68.367  1.00  0.00    -0.295 A  
HETATM    7  C   UNL     1     -11.861  14.094  68.763  1.00  0.00    -0.384 A  
HETATM    8  C   UNL     1     -12.499  14.242  69.995  1.00  0.00    -0.300 A  
HETATM    9  O   UNL     1     -12.978  15.446  70.417  1.00  0.00    -0.620 OA 
HETATM   10  C   UNL     1     -12.662  13.165  70.853  1.00  0.00    -0.313 A  
HETATM   11  H   UNL     1     -13.412  15.547  71.256  1.00  0.00     0.000 HD 
HETATM   12  C   UNL     1     -12.166  11.919  70.486  1.00  0.00    -0.426 A  
HETATM   13  C   UNL     1     -11.515  11.758  69.260  1.00  0.00    -0.369 A  
ENDBRANCH   3   6
ENDBRANCH   2   3
TORSDOF 2
ENDMDL
MODEL       86
REMARK 921   NORMALIZED FREE ENERGY PREDICTED BY IDOCK:   -3.44 KCAL/MOL
REMARK 922        TOTAL FREE ENERGY PREDICTED BY IDOCK:   -4.01 KCAL/MOL
REMARK 923 INTER-LIGAND FREE ENERGY PREDICTED BY IDOCK:   -3.83 KCAL/MOL
REMARK 924 INTRA-LIGAND FREE ENERGY PREDICTED BY IDOCK:   -0.18 KCAL/MOL
REMARK 927      BINDING AFFINITY PREDICTED BY RF-SCORE:    0.00 PKD
ROOT
HETATM    1  C   UNL     1     -10.134  12.442  67.025  1.00  0.00    -0.223 C  
HETATM    2  C   UNL     1      -9.988  13.435  65.882  1.00  0.00    -0.277 C  
ENDROOT
BRANCH   2   3
HETATM    3  N   UNL     1     -10.847  14.708  66.036  1.00  0.00    -0.310 N  
HETATM    4  C   UNL     1     -11.590  14.958  64.720  1.00  0.00    -0.410 C  
HETATM    5  C   UNL     1     -11.883  14.465  67.137  1.00  0.00    -0.410 C  
BRANCH   3   6
HETATM    6  C   UNL     1     -10.012  15.956  66.305  1.00  0.00    -0.298 A  
HETATM    7  C   UNL     1     -10.600  17.233  66.338  1.00  0.00    -0.179 A  
HETATM    8  C   UNL     1      -9.804  18.364  66.518  1.00  0.00    -0.359 A  
HETATM    9  O   UNL     1     -10.334  19.619  66.550  1.00  0.00    -0.417 OA 
HETATM   10  C   UNL     1      -8.428  18.259  66.659  1.00  0.00    -0.281 A  
HETATM   11  H   UNL     1      -9.792  20.390  66.673  1.00  0.00     0.000 HD 
HETATM   12  C   UNL     1      -7.831  17.006  66.604  1.00  0.00    -0.299 A  
HETATM   13  C   UNL     1      -8.614  15.864  66.413  1.00  0.00    -0.364 A  
ENDBRANCH   3   6
ENDBRANCH   2   3
TORSDOF 2
ENDMDL
MODEL       87
REMARK 921   NORMALIZED FREE ENERGY PREDICTED BY IDOCK:   -3.42 KCAL/MOL
REMARK 922        TOTAL FREE ENERGY PREDICTED BY IDOCK:   -3.98 KCAL/MOL
REMARK 923 INTER-LIGAND FREE ENERGY PREDICTED BY IDOCK:   -3.83 KCAL/MOL
REMARK 924 INTRA-LIGAND FREE ENERGY PREDICTED BY IDOCK:   -0.16 KCAL/MOL
REMARK 927      BINDING AFFINITY PREDICTED BY RF-SCORE:    0.00 PKD
ROOT
HETATM    1  C   UNL     1     -10.674   5.515  66.604  1.00  0.00    -0.332 C  
HETATM    2  C   UNL     1     -10.393   5.744  68.082  1.00  0.00    -0.212 C  
ENDROOT
BRANCH   2   3
HETATM    3  N   UNL     1     -10.094   7.213  68.449  1.00  0.00    -0.162 N  
HETATM    4  C   UNL     1      -8.584   7.369  68.651  1.00  0.00    -0.129 C  
HETATM    5  C   UNL     1     -10.519   8.103  67.277  1.00  0.00    -0.309 C  
BRANCH   3   6
HETATM    6  C   UNL     1     -10.752   7.641  69.757  1.00  0.00    -0.240 A  
HETATM    7  C   UNL     1     -11.622   6.781  70.451  1.00  0.00    -0.422 A  
HETATM    8  C   UNL     1     -12.265   7.221  71.608  1.00  0.00    -0.343 A  
HETATM    9  O   UNL     1     -13.118   6.420  72.306  1.00  0.00    -0.532 OA 
HETATM   10  C   UNL     1     -12.070   8.506  72.092  1.00  0.00    -0.449 A  
HETATM   11  H   UNL     1     -13.556   6.720  73.094  1.00  0.00     0.000 HD 
HETATM   12  C   UNL     1     -11.233   9.375  71.404  1.00  0.00    -0.452 A  
HETATM   13  C   UNL     1     -10.591   8.952  70.236  1.00  0.00    -0.246 A  
ENDBRANCH   3   6
ENDBRANCH   2   3
TORSDOF 2
ENDMDL
MODEL       88
REMARK 921   NORMALIZED FREE ENERGY PREDICTED BY IDOCK:   -3.40 KCAL/MOL
REMARK 922        TOTAL FREE ENERGY PREDICTED BY IDOCK:   -3.97 KCAL/MOL
REMARK 923 INTER-LIGAND FREE ENERGY PREDICTED BY IDOCK:   -3.73 KCAL/MOL
REMARK 924 INTRA-LIGAND FREE ENERGY PREDICTED BY IDOCK:   -0.23 KCAL/MOL
REMARK 927      BINDING AFFINITY PREDICTED BY RF-SCORE:    0.00 PKD
ROOT
HETATM    1  C   UNL     1      -8.443  16.249  66.669  1.00  0.00    -0.306 C  
HETATM    2  C   UNL     1      -8.987  16.989  67.882  1.00  0.00    -0.228 C  
ENDROOT
BRANCH   2   3
HETATM    3  N   UNL     1      -9.327  18.472  67.619  1.00  0.00    -0.279 N  
HETATM    4  C   UNL     1     -10.239  18.553  66.391  1.00  0.00    -0.420 C  
HETATM    5  C   UNL     1     -10.093  19.018  68.827  1.00  0.00    -0.363 C  
BRANCH   3   6
HETATM    6  C   UNL     1      -8.095  19.312  67.298  1.00  0.00    -0.265 A  
HETATM    7  C   UNL     1      -7.894  19.852  66.016  1.00  0.00    -0.335 A  
HETATM    8  C   UNL     1      -6.727  20.560  65.730  1.00  0.00    -0.217 A  
HETATM    9  O   UNL     1      -6.493  21.094  64.498  1.00  0.00    -0.487 OA 
HETATM   10  C   UNL     1      -5.742  20.738  66.690  1.00  0.00    -0.250 A  
HETATM   11  H   UNL     1      -5.697  21.575  64.303  1.00  0.00     0.000 HD 
HETATM   12  C   UNL     1      -5.915  20.189  67.955  1.00  0.00    -0.255 A  
HETATM   13  C   UNL     1      -7.075  19.468  68.253  1.00  0.00    -0.330 A  
ENDBRANCH   3   6
ENDBRANCH   2   3
TORSDOF 2
ENDMDL
MODEL       89
REMARK 921   NORMALIZED FREE ENERGY PREDICTED BY IDOCK:   -3.36 KCAL/MOL
REMARK 922        TOTAL FREE ENERGY PREDICTED BY IDOCK:   -3.92 KCAL/MOL
REMARK 923 INTER-LIGAND FREE ENERGY PREDICTED BY IDOCK:   -3.77 KCAL/MOL
REMARK 924 INTRA-LIGAND FREE ENERGY PREDICTED BY IDOCK:   -0.15 KCAL/MOL
REMARK 927      BINDING AFFINITY PREDICTED BY RF-SCORE:    0.00 PKD
ROOT
HETATM    1  C   UNL     1      -8.465  15.335  69.289  1.00  0.00    -0.238 C  
HETATM    2  C   UNL     1      -8.895  15.288  67.829  1.00  0.00    -0.173 C  
ENDROOT
BRANCH   2   3
HETATM    3  N   UNL     1      -9.687  14.021  67.444  1.00  0.00    -0.229 N  
HETATM    4  C   UNL     1      -8.695  12.933  67.025  1.00  0.00    -0.195 C  
HETATM    5  C   UNL     1     -10.450  13.530  68.678  1.00  0.00    -0.232 C  
BRANCH   3   6
HETATM    6  C   UNL     1     -10.614  14.243  66.253  1.00  0.00    -0.291 A  
HETATM    7  C   UNL     1     -11.464  13.224  65.791  1.00  0.00    -0.349 A  
HETATM    8  C   UNL     1     -12.252  13.429  64.658  1.00  0.00    -0.407 A  
HETATM    9  O   UNL     1     -13.085  12.464  64.176  1.00  0.00    -0.762 OA 
HETATM   10  C   UNL     1     -12.210  14.628  63.963  1.00  0.00    -0.226 A  
HETATM   11  H   UNL     1     -13.621  12.605  63.404  1.00  0.00     0.000 HD 
HETATM   12  C   UNL     1     -11.356  15.637  64.393  1.00  0.00    -0.272 A  
HETATM   13  C   UNL     1     -10.552  15.441  65.520  1.00  0.00    -0.400 A  
ENDBRANCH   3   6
ENDBRANCH   2   3
TORSDOF 2
ENDMDL
MODEL       90
REMARK 921   NORMALIZED FREE ENERGY PREDICTED BY IDOCK:   -3.34 KCAL/MOL
REMARK 922        TOTAL FREE ENERGY PREDICTED BY IDOCK:   -3.89 KCAL/MOL
REMARK 923 INTER-LIGAND FREE ENERGY PREDICTED BY IDOCK:   -3.80 KCAL/MOL
REMARK 924 INTRA-LIGAND FREE ENERGY PREDICTED BY IDOCK:   -0.10 KCAL/MOL
REMARK 927      BINDING AFFINITY PREDICTED BY RF-SCORE:    0.00 PKD
ROOT
HETATM    1  C   UNL     1      -7.510  16.505  66.581  1.00  0.00    -0.296 C  
HETATM    2  C   UNL     1      -8.839  16.562  67.322  1.00  0.00    -0.192 C  
ENDROOT
BRANCH   2   3
HETATM    3  N   UNL     1      -9.326  17.993  67.636  1.00  0.00    -0.257 N  
HETATM    4  C   UNL     1     -10.124  18.512  66.437  1.00  0.00    -0.405 C  
HETATM    5  C   UNL     1     -10.261  17.933  68.848  1.00  0.00    -0.330 C  
BRANCH   3   6
HETATM    6  C   UNL     1      -8.178  18.974  67.850  1.00  0.00    -0.280 A  
HETATM    7  C   UNL     1      -7.399  18.941  69.020  1.00  0.00    -0.318 A  
HETATM    8  C   UNL     1      -6.400  19.892  69.223  1.00  0.00    -0.330 A  
HETATM    9  O   UNL     1      -5.627  19.897  70.345  1.00  0.00    -0.232 OA 
HETATM   10  C   UNL     1      -6.158  20.889  68.289  1.00  0.00    -0.383 A  
HETATM   11  H   UNL     1      -4.947  20.546  70.483  1.00  0.00     0.000 HD 
HETATM   12  C   UNL     1      -6.936  20.950  67.139  1.00  0.00    -0.426 A  
HETATM   13  C   UNL     1      -7.948  20.009  66.928  1.00  0.00    -0.346 A  
ENDBRANCH   3   6
ENDBRANCH   2   3
TORSDOF 2
ENDMDL
MODEL       91
REMARK 921   NORMALIZED FREE ENERGY PREDICTED BY IDOCK:   -3.32 KCAL/MOL
REMARK 922        TOTAL FREE ENERGY PREDICTED BY IDOCK:   -3.87 KCAL/MOL
REMARK 923 INTER-LIGAND FREE ENERGY PREDICTED BY IDOCK:   -3.67 KCAL/MOL
REMARK 924 INTRA-LIGAND FREE ENERGY PREDICTED BY IDOCK:   -0.21 KCAL/MOL
REMARK 927      BINDING AFFINITY PREDICTED BY RF-SCORE:    0.00 PKD
ROOT
HETATM    1  C   UNL     1      -8.448   9.614  70.127  1.00  0.00    -0.231 C  
HETATM    2  C   UNL     1      -9.157  10.579  69.188  1.00  0.00    -0.166 C  
ENDROOT
BRANCH   2   3
HETATM    3  N   UNL     1     -10.644  10.247  68.945  1.00  0.00    -0.206 N  
HETATM    4  C   UNL     1     -11.027  10.718  67.539  1.00  0.00    -0.312 C  
HETATM    5  C   UNL     1     -10.821   8.727  69.010  1.00  0.00    -0.027 C  
BRANCH   3   6
HETATM    6  C   UNL     1     -11.576  10.970  69.912  1.00  0.00    -0.337 A  
HETATM    7  C   UNL     1     -11.798  12.355  69.813  1.00  0.00    -0.387 A  
HETATM    8  C   UNL     1     -12.601  13.004  70.751  1.00  0.00    -0.241 A  
HETATM    9  O   UNL     1     -12.835  14.345  70.693  1.00  0.00    -0.343 OA 
HETATM   10  C   UNL     1     -13.187  12.308  71.798  1.00  0.00    -0.428 A  
HETATM   11  H   UNL     1     -13.381  14.787  71.333  1.00  0.00     0.000 HD 
HETATM   12  C   UNL     1     -12.957  10.943  71.923  1.00  0.00    -0.502 A  
HETATM   13  C   UNL     1     -12.146  10.281  70.997  1.00  0.00    -0.487 A  
ENDBRANCH   3   6
ENDBRANCH   2   3
TORSDOF 2
ENDMDL
MODEL       92
REMARK 921   NORMALIZED FREE ENERGY PREDICTED BY IDOCK:   -3.31 KCAL/MOL
REMARK 922        TOTAL FREE ENERGY PREDICTED BY IDOCK:   -3.86 KCAL/MOL
REMARK 923 INTER-LIGAND FREE ENERGY PREDICTED BY IDOCK:   -3.71 KCAL/MOL
REMARK 924 INTRA-LIGAND FREE ENERGY PREDICTED BY IDOCK:   -0.16 KCAL/MOL
REMARK 927      BINDING AFFINITY PREDICTED BY RF-SCORE:    0.00 PKD
ROOT
HETATM    1  C   UNL     1      -8.530  11.871  66.812  1.00  0.00    -0.167 C  
HETATM    2  C   UNL     1      -9.255  11.804  68.148  1.00  0.00    -0.186 C  
ENDROOT
BRANCH   2   3
HETATM    3  N   UNL     1     -10.709  12.322  68.105  1.00  0.00    -0.208 N  
HETATM    4  C   UNL     1     -11.101  12.554  66.643  1.00  0.00    -0.283 C  
HETATM    5  C   UNL     1     -11.627  11.243  68.686  1.00  0.00    -0.318 C  
BRANCH   3   6
HETATM    6  C   UNL     1     -10.880  13.659  68.817  1.00  0.00    -0.255 A  
HETATM    7  C   UNL     1     -12.130  14.062  69.320  1.00  0.00    -0.380 A  
HETATM    8  C   UNL     1     -12.276  15.320  69.906  1.00  0.00    -0.323 A  
HETATM    9  O   UNL     1     -13.471  15.749  70.400  1.00  0.00    -0.755 OA 
HETATM   10  C   UNL     1     -11.206  16.196  70.000  1.00  0.00    -0.359 A  
HETATM   11  H   UNL     1     -13.570  16.606  70.799  1.00  0.00     0.000 HD 
HETATM   12  C   UNL     1      -9.970  15.822  69.485  1.00  0.00    -0.283 A  
HETATM   13  C   UNL     1      -9.811  14.570  68.885  1.00  0.00    -0.191 A  
ENDBRANCH   3   6
ENDBRANCH   2   3
TORSDOF 2
ENDMDL
MODEL       93
REMARK 921   NORMALIZED FREE ENERGY PREDICTED BY IDOCK:   -3.28 KCAL/MOL
REMARK 922        TOTAL FREE ENERGY PREDICTED BY IDOCK:   -3.83 KCAL/MOL
REMARK 923 INTER-LIGAND FREE ENERGY PREDICTED BY IDOCK:   -3.63 KCAL/MOL
REMARK 924 INTRA-LIGAND FREE ENERGY PREDICTED BY IDOCK:   -0.20 KCAL/MOL
REMARK 927      BINDING AFFINITY PREDICTED BY RF-SCORE:    0.00 PKD
ROOT
HETATM    1  C   UNL     1     -10.145  12.308  65.852  1.00  0.00    -0.272 C  
HETATM    2  C   UNL     1     -10.331  13.546  64.987  1.00  0.00    -0.362 C  
ENDROOT
BRANCH   2   3
HETATM    3  N   UNL     1     -11.261  14.614  65.603  1.00  0.00    -0.335 N  
HETATM    4  C   UNL     1     -11.985  15.344  64.468  1.00  0.00    -0.223 C  
HETATM    5  C   UNL     1     -12.309  13.906  66.467  1.00  0.00    -0.404 C  
BRANCH   3   6
HETATM    6  C   UNL     1     -10.501  15.678  66.387  1.00  0.00    -0.305 A  
HETATM    7  C   UNL     1      -9.223  16.105  65.986  1.00  0.00    -0.363 A  
HETATM    8  C   UNL     1      -8.519  17.030  66.758  1.00  0.00    -0.234 A  
HETATM    9  O   UNL     1      -7.277  17.464  66.406  1.00  0.00    -0.239 OA 
HETATM   10  C   UNL     1      -9.054  17.538  67.932  1.00  0.00    -0.261 A  
HETATM   11  H   UNL     1      -6.798  18.094  66.933  1.00  0.00     0.000 HD 
HETATM   12  C   UNL     1     -10.306  17.106  68.355  1.00  0.00    -0.362 A  
HETATM   13  C   UNL     1     -11.018  16.172  67.597  1.00  0.00    -0.268 A  
ENDBRANCH   3   6
ENDBRANCH   2   3
TORSDOF 2
ENDMDL
MODEL       94
REMARK 921   NORMALIZED FREE ENERGY PREDICTED BY IDOCK:   -3.27 KCAL/MOL
REMARK 922        TOTAL FREE ENERGY PREDICTED BY IDOCK:   -3.82 KCAL/MOL
REMARK 923 INTER-LIGAND FREE ENERGY PREDICTED BY IDOCK:   -3.65 KCAL/MOL
REMARK 924 INTRA-LIGAND FREE ENERGY PREDICTED BY IDOCK:   -0.18 KCAL/MOL
REMARK 927      BINDING AFFINITY PREDICTED BY RF-SCORE:    0.00 PKD
ROOT
HETATM    1  C   UNL     1     -10.146   5.232  69.597  1.00  0.00    -0.327 C  
HETATM    2  C   UNL     1     -11.267   6.261  69.561  1.00  0.00    -0.430 C  
ENDROOT
BRANCH   2   3
HETATM    3  N   UNL     1     -11.092   7.422  70.563  1.00  0.00    -0.257 N  
HETATM    4  C   UNL     1     -12.318   7.466  71.479  1.00  0.00    -0.353 C  
HETATM    5  C   UNL     1      -9.857   7.140  71.423  1.00  0.00    -0.176 C  
BRANCH   3   6
HETATM    6  C   UNL     1     -11.012   8.783  69.880  1.00  0.00    -0.179 A  
HETATM    7  C   UNL     1     -11.399   9.958  70.549  1.00  0.00    -0.399 A  
HETATM    8  C   UNL     1     -11.381  11.182  69.881  1.00  0.00    -0.268 A  
HETATM    9  O   UNL     1     -11.754  12.341  70.492  1.00  0.00    -0.517 OA 
HETATM   10  C   UNL     1     -10.994  11.268  68.552  1.00  0.00    -0.266 A  
HETATM   11  H   UNL     1     -11.742  13.175  70.037  1.00  0.00     0.000 HD 
HETATM   12  C   UNL     1     -10.633  10.112  67.870  1.00  0.00    -0.294 A  
HETATM   13  C   UNL     1     -10.656   8.877  68.524  1.00  0.00    -0.183 A  
ENDBRANCH   3   6
ENDBRANCH   2   3
TORSDOF 2
ENDMDL
MODEL       95
REMARK 921   NORMALIZED FREE ENERGY PREDICTED BY IDOCK:   -3.26 KCAL/MOL
REMARK 922        TOTAL FREE ENERGY PREDICTED BY IDOCK:   -3.81 KCAL/MOL
REMARK 923 INTER-LIGAND FREE ENERGY PREDICTED BY IDOCK:   -3.63 KCAL/MOL
REMARK 924 INTRA-LIGAND FREE ENERGY PREDICTED BY IDOCK:   -0.19 KCAL/MOL
REMARK 927      BINDING AFFINITY PREDICTED BY RF-SCORE:    0.00 PKD
ROOT
HETATM    1  C   UNL     1      -7.625   7.988  68.303  1.00  0.00    -0.109 C  
HETATM    2  C   UNL     1      -8.655   6.868  68.337  1.00  0.00    -0.125 C  
ENDROOT
BRANCH   2   3
HETATM    3  N   UNL     1     -10.119   7.354  68.282  1.00  0.00    -0.171 N  
HETATM    4  C   UNL     1     -10.175   8.644  67.460  1.00  0.00    -0.245 C  
HETATM    5  C   UNL     1     -10.959   6.290  67.568  1.00  0.00    -0.350 C  
BRANCH   3   6
HETATM    6  C   UNL     1     -10.681   7.693  69.659  1.00  0.00    -0.228 A  
HETATM    7  C   UNL     1     -11.390   6.741  70.412  1.00  0.00    -0.399 A  
HETATM    8  C   UNL     1     -11.952   7.095  71.638  1.00  0.00    -0.318 A  
HETATM    9  O   UNL     1     -12.651   6.203  72.394  1.00  0.00    -0.542 OA 
HETATM   10  C   UNL     1     -11.834   8.385  72.135  1.00  0.00    -0.441 A  
HETATM   11  H   UNL     1     -13.034   6.446  73.229  1.00  0.00     0.000 HD 
HETATM   12  C   UNL     1     -11.157   9.344  71.391  1.00  0.00    -0.450 A  
HETATM   13  C   UNL     1     -10.598   9.005  70.155  1.00  0.00    -0.250 A  
ENDBRANCH   3   6
ENDBRANCH   2   3
TORSDOF 2
ENDMDL
MODEL       96
REMARK 921   NORMALIZED FREE ENERGY PREDICTED BY IDOCK:   -3.26 KCAL/MOL
REMARK 922        TOTAL FREE ENERGY PREDICTED BY IDOCK:   -3.81 KCAL/MOL
REMARK 923 INTER-LIGAND FREE ENERGY PREDICTED BY IDOCK:   -3.71 KCAL/MOL
REMARK 924 INTRA-LIGAND FREE ENERGY PREDICTED BY IDOCK:   -0.09 KCAL/MOL
REMARK 927      BINDING AFFINITY PREDICTED BY RF-SCORE:    0.00 PKD
ROOT
HETATM    1  C   UNL     1     -12.087  13.884  67.996  1.00  0.00    -0.318 C  
HETATM    2  C   UNL     1     -10.771  13.607  67.282  1.00  0.00    -0.279 C  
ENDROOT
BRANCH   2   3
HETATM    3  N   UNL     1     -10.921  12.807  65.970  1.00  0.00    -0.274 N  
HETATM    4  C   UNL     1     -12.380  12.887  65.512  1.00  0.00    -0.461 C  
HETATM    5  C   UNL     1     -10.042  13.460  64.899  1.00  0.00    -0.233 C  
BRANCH   3   6
HETATM    6  C   UNL     1     -10.601  11.326  66.142  1.00  0.00    -0.258 A  
HETATM    7  C   UNL     1     -10.831  10.668  67.363  1.00  0.00    -0.353 A  
HETATM    8  C   UNL     1     -10.467   9.330  67.517  1.00  0.00    -0.274 A  
HETATM    9  O   UNL     1     -10.668   8.659  68.685  1.00  0.00    -0.377 OA 
HETATM   10  C   UNL     1      -9.868   8.626  66.482  1.00  0.00    -0.348 A  
HETATM   11  H   UNL     1     -10.419   7.747  68.789  1.00  0.00     0.000 HD 
HETATM   12  C   UNL     1      -9.612   9.270  65.278  1.00  0.00    -0.175 A  
HETATM   13  C   UNL     1      -9.962  10.614  65.113  1.00  0.00    -0.366 A  
ENDBRANCH   3   6
ENDBRANCH   2   3
TORSDOF 2
ENDMDL
MODEL       97
REMARK 921   NORMALIZED FREE ENERGY PREDICTED BY IDOCK:   -3.25 KCAL/MOL
REMARK 922        TOTAL FREE ENERGY PREDICTED BY IDOCK:   -3.79 KCAL/MOL
REMARK 923 INTER-LIGAND FREE ENERGY PREDICTED BY IDOCK:   -3.84 KCAL/MOL
REMARK 924 INTRA-LIGAND FREE ENERGY PREDICTED BY IDOCK:    0.05 KCAL/MOL
REMARK 927      BINDING AFFINITY PREDICTED BY RF-SCORE:    0.00 PKD
ROOT
HETATM    1  C   UNL     1     -11.806  12.204  69.826  1.00  0.00    -0.397 C  
HETATM    2  C   UNL     1     -10.966  10.993  69.447  1.00  0.00    -0.248 C  
ENDROOT
BRANCH   2   3
HETATM    3  N   UNL     1     -10.359  11.063  68.030  1.00  0.00    -0.178 N  
HETATM    4  C   UNL     1      -8.838  10.926  68.142  1.00  0.00    -0.137 C  
HETATM    5  C   UNL     1     -10.891   9.880  67.214  1.00  0.00    -0.199 C  
BRANCH   3   6
HETATM    6  C   UNL     1     -10.624  12.396  67.339  1.00  0.00    -0.216 A  
HETATM    7  C   UNL     1     -11.790  12.605  66.582  1.00  0.00    -0.449 A  
HETATM    8  C   UNL     1     -11.977  13.810  65.904  1.00  0.00    -0.406 A  
HETATM    9  O   UNL     1     -13.091  14.049  65.156  1.00  0.00    -0.776 OA 
HETATM   10  C   UNL     1     -11.024  14.816  65.952  1.00  0.00    -0.335 A  
HETATM   11  H   UNL     1     -13.218  14.870  64.693  1.00  0.00     0.000 HD 
HETATM   12  C   UNL     1      -9.854  14.614  66.675  1.00  0.00    -0.280 A  
HETATM   13  C   UNL     1      -9.648  13.408  67.351  1.00  0.00    -0.223 A  
ENDBRANCH   3   6
ENDBRANCH   2   3
TORSDOF 2
ENDMDL
MODEL       98
REMARK 921   NORMALIZED FREE ENERGY PREDICTED BY IDOCK:   -3.23 KCAL/MOL
REMARK 922        TOTAL FREE ENERGY PREDICTED BY IDOCK:   -3.78 KCAL/MOL
REMARK 923 INTER-LIGAND FREE ENERGY PREDICTED BY IDOCK:   -3.68 KCAL/MOL
REMARK 924 INTRA-LIGAND FREE ENERGY PREDICTED BY IDOCK:   -0.10 KCAL/MOL
REMARK 927      BINDING AFFINITY PREDICTED BY RF-SCORE:    0.00 PKD
ROOT
HETATM    1  C   UNL     1      -6.445  13.330  68.663  1.00  0.00    -0.087 C  
HETATM    2  C   UNL     1      -6.491  14.336  67.523  1.00  0.00    -0.041 C  
ENDROOT
BRANCH   2   3
HETATM    3  N   UNL     1      -7.658  15.343  67.615  1.00  0.00    -0.150 N  
HETATM    4  C   UNL     1      -8.115  15.428  69.074  1.00  0.00    -0.213 C  
HETATM    5  C   UNL     1      -7.146  16.722  67.188  1.00  0.00    -0.187 C  
BRANCH   3   6
HETATM    6  C   UNL     1      -8.876  14.912  66.804  1.00  0.00    -0.261 A  
HETATM    7  C   UNL     1      -9.426  15.747  65.816  1.00  0.00    -0.334 A  
HETATM    8  C   UNL     1     -10.580  15.359  65.135  1.00  0.00    -0.434 A  
HETATM    9  O   UNL     1     -11.147  16.142  64.175  1.00  0.00    -1.113 OA 
HETATM   10  C   UNL     1     -11.211  14.157  65.420  1.00  0.00    -0.325 A  
HETATM   11  H   UNL     1     -11.934  15.878  63.712  1.00  0.00     0.000 HD 
HETATM   12  C   UNL     1     -10.693  13.333  66.411  1.00  0.00    -0.291 A  
HETATM   13  C   UNL     1      -9.543  13.713  67.109  1.00  0.00    -0.241 A  
ENDBRANCH   3   6
ENDBRANCH   2   3
TORSDOF 2
ENDMDL
MODEL       99
REMARK 921   NORMALIZED FREE ENERGY PREDICTED BY IDOCK:   -3.23 KCAL/MOL
REMARK 922        TOTAL FREE ENERGY PREDICTED BY IDOCK:   -3.77 KCAL/MOL
REMARK 923 INTER-LIGAND FREE ENERGY PREDICTED BY IDOCK:   -3.63 KCAL/MOL
REMARK 924 INTRA-LIGAND FREE ENERGY PREDICTED BY IDOCK:   -0.14 KCAL/MOL
REMARK 927      BINDING AFFINITY PREDICTED BY RF-SCORE:    0.00 PKD
ROOT
HETATM    1  C   UNL     1      -7.901   6.464  68.512  1.00  0.00    -0.105 C  
HETATM    2  C   UNL     1      -8.676   7.334  69.491  1.00  0.00    -0.134 C  
ENDROOT
BRANCH   2   3
HETATM    3  N   UNL     1      -9.692   6.560  70.357  1.00  0.00    -0.171 N  
HETATM    4  C   UNL     1     -10.389   5.518  69.478  1.00  0.00    -0.287 C  
HETATM    5  C   UNL     1      -8.929   5.827  71.464  1.00  0.00    -0.140 C  
BRANCH   3   6
HETATM    6  C   UNL     1     -10.791   7.456  70.920  1.00  0.00    -0.240 A  
HETATM    7  C   UNL     1     -12.056   6.938  71.248  1.00  0.00    -0.419 A  
HETATM    8  C   UNL     1     -13.066   7.790  71.697  1.00  0.00    -0.345 A  
HETATM    9  O   UNL     1     -14.307   7.328  72.020  1.00  0.00    -0.571 OA 
HETATM   10  C   UNL     1     -12.851   9.154  71.822  1.00  0.00    -0.448 A  
HETATM   11  H   UNL     1     -14.994   7.908  72.325  1.00  0.00     0.000 HD 
HETATM   12  C   UNL     1     -11.613   9.684  71.477  1.00  0.00    -0.451 A  
HETATM   13  C   UNL     1     -10.595   8.844  71.016  1.00  0.00    -0.315 A  
ENDBRANCH   3   6
ENDBRANCH   2   3
TORSDOF 2
ENDMDL
MODEL      100
REMARK 921   NORMALIZED FREE ENERGY PREDICTED BY IDOCK:   -3.23 KCAL/MOL
REMARK 922        TOTAL FREE ENERGY PREDICTED BY IDOCK:   -3.77 KCAL/MOL
REMARK 923 INTER-LIGAND FREE ENERGY PREDICTED BY IDOCK:   -3.61 KCAL/MOL
REMARK 924 INTRA-LIGAND FREE ENERGY PREDICTED BY IDOCK:   -0.16 KCAL/MOL
REMARK 927      BINDING AFFINITY PREDICTED BY RF-SCORE:    0.00 PKD
ROOT
HETATM    1  C   UNL     1     -12.073  14.747  64.482  1.00  0.00    -0.460 C  
HETATM    2  C   UNL     1     -10.704  14.435  65.069  1.00  0.00    -0.423 C  
ENDROOT
BRANCH   2   3
HETATM    3  N   UNL     1     -10.706  14.220  66.598  1.00  0.00    -0.288 N  
HETATM    4  C   UNL     1     -12.157  14.174  67.083  1.00  0.00    -0.397 C  
HETATM    5  C   UNL     1     -10.052  12.868  66.900  1.00  0.00    -0.241 C  
BRANCH   3   6
HETATM    6  C   UNL     1     -10.032  15.360  67.354  1.00  0.00    -0.229 A  
HETATM    7  C   UNL     1     -10.354  16.702  67.088  1.00  0.00    -0.300 A  
HETATM    8  C   UNL     1      -9.674  17.729  67.745  1.00  0.00    -0.285 A  
HETATM    9  O   UNL     1      -9.953  19.042  67.511  1.00  0.00    -0.321 OA 
HETATM   10  C   UNL     1      -8.671  17.452  68.661  1.00  0.00    -0.261 A  
HETATM   11  H   UNL     1      -9.490  19.740  67.958  1.00  0.00     0.000 HD 
HETATM   12  C   UNL     1      -8.324  16.131  68.917  1.00  0.00    -0.233 A  
HETATM   13  C   UNL     1      -8.989  15.093  68.258  1.00  0.00    -0.175 A  
ENDBRANCH   3   6
ENDBRANCH   2   3
TORSDOF 2
ENDMDL
MODEL      101
REMARK 921   NORMALIZED FREE ENERGY PREDICTED BY IDOCK:   -3.22 KCAL/MOL
REMARK 922        TOTAL FREE ENERGY PREDICTED BY IDOCK:   -3.76 KCAL/MOL
REMARK 923 INTER-LIGAND FREE ENERGY PREDICTED BY IDOCK:   -3.61 KCAL/MOL
REMARK 924 INTRA-LIGAND FREE ENERGY PREDICTED BY IDOCK:   -0.15 KCAL/MOL
REMARK 927      BINDING AFFINITY PREDICTED BY RF-SCORE:    0.00 PKD
ROOT
HETATM    1  C   UNL     1     -12.260  13.891  64.429  1.00  0.00    -0.449 C  
HETATM    2  C   UNL     1     -10.939  14.569  64.764  1.00  0.00    -0.391 C  
ENDROOT
BRANCH   2   3
HETATM    3  N   UNL     1     -10.544  14.481  66.254  1.00  0.00    -0.297 N  
HETATM    4  C   UNL     1     -11.817  14.313  67.088  1.00  0.00    -0.425 C  
HETATM    5  C   UNL     1      -9.669  13.239  66.452  1.00  0.00    -0.276 C  
BRANCH   3   6
HETATM    6  C   UNL     1      -9.859  15.746  66.759  1.00  0.00    -0.245 A  
HETATM    7  C   UNL     1      -8.866  15.690  67.753  1.00  0.00    -0.173 A  
HETATM    8  C   UNL     1      -8.304  16.867  68.248  1.00  0.00    -0.224 A  
HETATM    9  O   UNL     1      -7.344  16.856  69.214  1.00  0.00    -0.238 OA 
HETATM   10  C   UNL     1      -8.712  18.108  67.781  1.00  0.00    -0.259 A  
HETATM   11  H   UNL     1      -6.961  17.658  69.551  1.00  0.00     0.000 HD 
HETATM   12  C   UNL     1      -9.710  18.181  66.817  1.00  0.00    -0.324 A  
HETATM   13  C   UNL     1     -10.290  17.010  66.320  1.00  0.00    -0.309 A  
ENDBRANCH   3   6
ENDBRANCH   2   3
TORSDOF 2
ENDMDL
MODEL      102
REMARK 921   NORMALIZED FREE ENERGY PREDICTED BY IDOCK:   -3.21 KCAL/MOL
REMARK 922        TOTAL FREE ENERGY PREDICTED BY IDOCK:   -3.76 KCAL/MOL
REMARK 923 INTER-LIGAND FREE ENERGY PREDICTED BY IDOCK:   -3.58 KCAL/MOL
REMARK 924 INTRA-LIGAND FREE ENERGY PREDICTED BY IDOCK:   -0.18 KCAL/MOL
REMARK 927      BINDING AFFINITY PREDICTED BY RF-SCORE:    0.00 PKD
ROOT
HETATM    1  C   UNL     1     -11.315  15.702  71.083  1.00  0.00    -0.446 C  
HETATM    2  C   UNL     1     -12.045  15.140  69.871  1.00  0.00    -0.336 C  
ENDROOT
BRANCH   2   3
HETATM    3  N   UNL     1     -11.114  14.675  68.731  1.00  0.00    -0.248 N  
HETATM    4  C   UNL     1     -11.588  15.313  67.422  1.00  0.00    -0.188 C  
HETATM    5  C   UNL     1      -9.696  15.176  69.026  1.00  0.00    -0.234 C  
BRANCH   3   6
HETATM    6  C   UNL     1     -11.151  13.166  68.516  1.00  0.00    -0.266 A  
HETATM    7  C   UNL     1     -10.684  12.588  67.322  1.00  0.00    -0.259 A  
HETATM    8  C   UNL     1     -10.792  11.212  67.121  1.00  0.00    -0.273 A  
HETATM    9  O   UNL     1     -10.357  10.615  65.976  1.00  0.00    -0.250 OA 
HETATM   10  C   UNL     1     -11.364  10.390  68.081  1.00  0.00    -0.284 A  
HETATM   11  H   UNL     1     -10.431   9.678  65.840  1.00  0.00     0.000 HD 
HETATM   12  C   UNL     1     -11.852  10.950  69.256  1.00  0.00    -0.395 A  
HETATM   13  C   UNL     1     -11.761  12.329  69.466  1.00  0.00    -0.398 A  
ENDBRANCH   3   6
ENDBRANCH   2   3
TORSDOF 2
ENDMDL
MODEL      103
REMARK 921   NORMALIZED FREE ENERGY PREDICTED BY IDOCK:   -3.21 KCAL/MOL
REMARK 922        TOTAL FREE ENERGY PREDICTED BY IDOCK:   -3.75 KCAL/MOL
REMARK 923 INTER-LIGAND FREE ENERGY PREDICTED BY IDOCK:   -3.60 KCAL/MOL
REMARK 924 INTRA-LIGAND FREE ENERGY PREDICTED BY IDOCK:   -0.15 KCAL/MOL
REMARK 927      BINDING AFFINITY PREDICTED BY RF-SCORE:    0.00 PKD
ROOT
HETATM    1  C   UNL     1      -6.490  21.021  67.817  1.00  0.00    -0.407 C  
HETATM    2  C   UNL     1      -7.606  20.025  68.095  1.00  0.00    -0.253 C  
ENDROOT
BRANCH   2   3
HETATM    3  N   UNL     1      -8.044  19.206  66.862  1.00  0.00    -0.255 N  
HETATM    4  C   UNL     1      -9.232  19.911  66.203  1.00  0.00    -0.336 C  
HETATM    5  C   UNL     1      -6.885  19.176  65.861  1.00  0.00    -0.267 C  
BRANCH   3   6
HETATM    6  C   UNL     1      -8.519  17.802  67.224  1.00  0.00    -0.231 A  
HETATM    7  C   UNL     1      -8.726  16.825  66.234  1.00  0.00    -0.342 A  
HETATM    8  C   UNL     1      -9.226  15.571  66.583  1.00  0.00    -0.271 A  
HETATM    9  O   UNL     1      -9.446  14.599  65.654  1.00  0.00    -0.511 OA 
HETATM   10  C   UNL     1      -9.537  15.263  67.900  1.00  0.00    -0.199 A  
HETATM   11  H   UNL     1      -9.787  13.745  65.892  1.00  0.00     0.000 HD 
HETATM   12  C   UNL     1      -9.361  16.227  68.885  1.00  0.00    -0.248 A  
HETATM   13  C   UNL     1      -8.871  17.492  68.549  1.00  0.00    -0.282 A  
ENDBRANCH   3   6
ENDBRANCH   2   3
TORSDOF 2
ENDMDL
MODEL      104
REMARK 921   NORMALIZED FREE ENERGY PREDICTED BY IDOCK:   -3.20 KCAL/MOL
REMARK 922        TOTAL FREE ENERGY PREDICTED BY IDOCK:   -3.74 KCAL/MOL
REMARK 923 INTER-LIGAND FREE ENERGY PREDICTED BY IDOCK:   -3.51 KCAL/MOL
REMARK 924 INTRA-LIGAND FREE ENERGY PREDICTED BY IDOCK:   -0.23 KCAL/MOL
REMARK 927      BINDING AFFINITY PREDICTED BY RF-SCORE:    0.00 PKD
ROOT
HETATM    1  C   UNL     1     -13.747   7.747  71.642  1.00  0.00    -0.434 C  
HETATM    2  C   UNL     1     -12.530   8.256  72.401  1.00  0.00    -0.302 C  
ENDROOT
BRANCH   2   3
HETATM    3  N   UNL     1     -11.184   7.710  71.877  1.00  0.00    -0.249 N  
HETATM    4  C   UNL     1     -10.093   8.037  72.900  1.00  0.00    -0.306 C  
HETATM    5  C   UNL     1     -11.291   6.187  71.755  1.00  0.00    -0.291 C  
BRANCH   3   6
HETATM    6  C   UNL     1     -10.755   8.358  70.565  1.00  0.00    -0.227 A  
HETATM    7  C   UNL     1     -10.577   9.748  70.462  1.00  0.00    -0.376 A  
HETATM    8  C   UNL     1     -10.251  10.323  69.233  1.00  0.00    -0.227 A  
HETATM    9  O   UNL     1     -10.075  11.667  69.091  1.00  0.00    -0.406 OA 
HETATM   10  C   UNL     1     -10.104   9.546  68.094  1.00  0.00    -0.214 A  
HETATM   11  H   UNL     1      -9.854  12.058  68.254  1.00  0.00     0.000 HD 
HETATM   12  C   UNL     1     -10.301   8.172  68.175  1.00  0.00    -0.251 A  
HETATM   13  C   UNL     1     -10.639   7.584  69.397  1.00  0.00    -0.225 A  
ENDBRANCH   3   6
ENDBRANCH   2   3
TORSDOF 2
ENDMDL
MODEL      105
REMARK 921   NORMALIZED FREE ENERGY PREDICTED BY IDOCK:   -3.17 KCAL/MOL
REMARK 922        TOTAL FREE ENERGY PREDICTED BY IDOCK:   -3.71 KCAL/MOL
REMARK 923 INTER-LIGAND FREE ENERGY PREDICTED BY IDOCK:   -3.54 KCAL/MOL
REMARK 924 INTRA-LIGAND FREE ENERGY PREDICTED BY IDOCK:   -0.17 KCAL/MOL
REMARK 927      BINDING AFFINITY PREDICTED BY RF-SCORE:    0.00 PKD
ROOT
HETATM    1  C   UNL     1     -10.754   6.484  73.087  1.00  0.00    -0.297 C  
HETATM    2  C   UNL     1     -11.134   7.957  73.029  1.00  0.00    -0.314 C  
ENDROOT
BRANCH   2   3
HETATM    3  N   UNL     1     -12.093   8.318  71.875  1.00  0.00    -0.312 N  
HETATM    4  C   UNL     1     -12.445   7.036  71.114  1.00  0.00    -0.362 C  
HETATM    5  C   UNL     1     -13.380   8.892  72.474  1.00  0.00    -0.399 C  
BRANCH   3   6
HETATM    6  C   UNL     1     -11.465   9.266  70.859  1.00  0.00    -0.303 A  
HETATM    7  C   UNL     1     -10.069   9.400  70.753  1.00  0.00    -0.366 A  
HETATM    8  C   UNL     1      -9.520  10.324  69.864  1.00  0.00    -0.015 A  
HETATM    9  O   UNL     1      -8.174  10.488  69.736  1.00  0.00    -0.361 OA 
HETATM   10  C   UNL     1     -10.330  11.130  69.077  1.00  0.00    -0.214 A  
HETATM   11  H   UNL     1      -7.801  11.118  69.130  1.00  0.00     0.000 HD 
HETATM   12  C   UNL     1     -11.711  11.027  69.189  1.00  0.00    -0.403 A  
HETATM   13  C   UNL     1     -12.275  10.113  70.084  1.00  0.00    -0.188 A  
ENDBRANCH   3   6
ENDBRANCH   2   3
TORSDOF 2
ENDMDL
MODEL      106
REMARK 921   NORMALIZED FREE ENERGY PREDICTED BY IDOCK:   -3.15 KCAL/MOL
REMARK 922        TOTAL FREE ENERGY PREDICTED BY IDOCK:   -3.69 KCAL/MOL
REMARK 923 INTER-LIGAND FREE ENERGY PREDICTED BY IDOCK:   -3.54 KCAL/MOL
REMARK 924 INTRA-LIGAND FREE ENERGY PREDICTED BY IDOCK:   -0.15 KCAL/MOL
REMARK 927      BINDING AFFINITY PREDICTED BY RF-SCORE:    0.00 PKD
ROOT
HETATM    1  C   UNL     1     -11.771  14.836  66.612  1.00  0.00    -0.293 C  
HETATM    2  C   UNL     1     -12.206  14.497  68.031  1.00  0.00    -0.092 C  
ENDROOT
BRANCH   2   3
HETATM    3  N   UNL     1     -11.357  15.169  69.131  1.00  0.00    -0.279 N  
HETATM    4  C   UNL     1     -10.152  14.273  69.433  1.00  0.00     0.130 C  
HETATM    5  C   UNL     1     -10.840  16.508  68.596  1.00  0.00    -0.345 C  
BRANCH   3   6
HETATM    6  C   UNL     1     -12.115  15.334  70.444  1.00  0.00    -0.348 A  
HETATM    7  C   UNL     1     -11.439  15.367  71.676  1.00  0.00    -0.492 A  
HETATM    8  C   UNL     1     -12.160  15.450  72.867  1.00  0.00    -0.437 A  
HETATM    9  O   UNL     1     -11.542  15.480  74.082  1.00  0.00    -0.000 OA 
HETATM   10  C   UNL     1     -13.546  15.493  72.866  1.00  0.00    -0.633 A  
HETATM   11  H   UNL     1     -12.034  15.536  74.893  1.00  0.00     0.000 HD 
HETATM   12  C   UNL     1     -14.229  15.436  71.657  1.00  0.00    -0.621 A  
HETATM   13  C   UNL     1     -13.520  15.341  70.455  1.00  0.00    -0.128 A  
ENDBRANCH   3   6
ENDBRANCH   2   3
TORSDOF 2
ENDMDL
MODEL      107
REMARK 921   NORMALIZED FREE ENERGY PREDICTED BY IDOCK:   -3.14 KCAL/MOL
REMARK 922        TOTAL FREE ENERGY PREDICTED BY IDOCK:   -3.68 KCAL/MOL
REMARK 923 INTER-LIGAND FREE ENERGY PREDICTED BY IDOCK:   -3.49 KCAL/MOL
REMARK 924 INTRA-LIGAND FREE ENERGY PREDICTED BY IDOCK:   -0.19 KCAL/MOL
REMARK 927      BINDING AFFINITY PREDICTED BY RF-SCORE:    0.00 PKD
ROOT
HETATM    1  C   UNL     1     -10.722  15.802  65.222  1.00  0.00    -0.446 C  
HETATM    2  C   UNL     1      -9.538  15.299  66.035  1.00  0.00    -0.338 C  
ENDROOT
BRANCH   2   3
HETATM    3  N   UNL     1      -9.847  15.079  67.532  1.00  0.00    -0.217 N  
HETATM    4  C   UNL     1      -8.546  15.227  68.326  1.00  0.00    -0.159 C  
HETATM    5  C   UNL     1     -10.821  16.168  67.993  1.00  0.00    -0.333 C  
BRANCH   3   6
HETATM    6  C   UNL     1     -10.377  13.680  67.825  1.00  0.00    -0.241 A  
HETATM    7  C   UNL     1     -10.051  12.589  67.001  1.00  0.00    -0.222 A  
HETATM    8  C   UNL     1     -10.603  11.332  67.251  1.00  0.00    -0.233 A  
HETATM    9  O   UNL     1     -10.316  10.252  66.472  1.00  0.00    -0.232 OA 
HETATM   10  C   UNL     1     -11.484  11.133  68.303  1.00  0.00    -0.373 A  
HETATM   11  H   UNL     1     -10.693   9.396  66.643  1.00  0.00     0.000 HD 
HETATM   12  C   UNL     1     -11.836  12.207  69.112  1.00  0.00    -0.361 A  
HETATM   13  C   UNL     1     -11.299  13.474  68.867  1.00  0.00    -0.332 A  
ENDBRANCH   3   6
ENDBRANCH   2   3
TORSDOF 2
ENDMDL
MODEL      108
REMARK 921   NORMALIZED FREE ENERGY PREDICTED BY IDOCK:   -3.14 KCAL/MOL
REMARK 922        TOTAL FREE ENERGY PREDICTED BY IDOCK:   -3.67 KCAL/MOL
REMARK 923 INTER-LIGAND FREE ENERGY PREDICTED BY IDOCK:   -3.59 KCAL/MOL
REMARK 924 INTRA-LIGAND FREE ENERGY PREDICTED BY IDOCK:   -0.08 KCAL/MOL
REMARK 927      BINDING AFFINITY PREDICTED BY RF-SCORE:    0.00 PKD
ROOT
HETATM    1  C   UNL     1     -11.829  11.721  68.031  1.00  0.00    -0.304 C  
HETATM    2  C   UNL     1     -11.085  12.052  66.745  1.00  0.00    -0.305 C  
ENDROOT
BRANCH   2   3
HETATM    3  N   UNL     1     -11.230  13.520  66.291  1.00  0.00    -0.294 N  
HETATM    4  C   UNL     1     -10.417  13.717  65.008  1.00  0.00    -0.402 C  
HETATM    5  C   UNL     1     -12.704  13.788  65.973  1.00  0.00    -0.354 C  
BRANCH   3   6
HETATM    6  C   UNL     1     -10.678  14.511  67.310  1.00  0.00    -0.287 A  
HETATM    7  C   UNL     1      -9.525  14.219  68.060  1.00  0.00    -0.204 A  
HETATM    8  C   UNL     1      -9.080  15.113  69.035  1.00  0.00    -0.218 A  
HETATM    9  O   UNL     1      -7.971  14.864  69.786  1.00  0.00    -0.406 OA 
HETATM   10  C   UNL     1      -9.761  16.294  69.290  1.00  0.00    -0.238 A  
HETATM   11  H   UNL     1      -7.668  15.472  70.451  1.00  0.00     0.000 HD 
HETATM   12  C   UNL     1     -10.915  16.584  68.574  1.00  0.00    -0.350 A  
HETATM   13  C   UNL     1     -11.380  15.694  67.602  1.00  0.00    -0.228 A  
ENDBRANCH   3   6
ENDBRANCH   2   3
TORSDOF 2
ENDMDL
MODEL      109
REMARK 921   NORMALIZED FREE ENERGY PREDICTED BY IDOCK:   -3.14 KCAL/MOL
REMARK 922        TOTAL FREE ENERGY PREDICTED BY IDOCK:   -3.67 KCAL/MOL
REMARK 923 INTER-LIGAND FREE ENERGY PREDICTED BY IDOCK:   -3.43 KCAL/MOL
REMARK 924 INTRA-LIGAND FREE ENERGY PREDICTED BY IDOCK:   -0.24 KCAL/MOL
REMARK 927      BINDING AFFINITY PREDICTED BY RF-SCORE:    0.00 PKD
ROOT
HETATM    1  C   UNL     1      -8.021   8.076  73.332  1.00  0.00    -0.236 C  
HETATM    2  C   UNL     1      -8.927   7.223  74.209  1.00  0.00    -0.208 C  
ENDROOT
BRANCH   2   3
HETATM    3  N   UNL     1      -9.374   5.898  73.556  1.00  0.00    -0.134 N  
HETATM    4  C   UNL     1      -8.131   5.048  73.276  1.00  0.00    -0.104 C  
HETATM    5  C   UNL     1     -10.261   5.141  74.549  1.00  0.00    -0.274 C  
BRANCH   3   6
HETATM    6  C   UNL     1     -10.068   6.105  72.215  1.00  0.00    -0.179 A  
HETATM    7  C   UNL     1     -11.301   6.775  72.128  1.00  0.00    -0.307 A  
HETATM    8  C   UNL     1     -11.949   6.892  70.898  1.00  0.00    -0.381 A  
HETATM    9  O   UNL     1     -13.148   7.529  70.774  1.00  0.00    -0.579 OA 
HETATM   10  C   UNL     1     -11.403   6.349  69.745  1.00  0.00    -0.494 A  
HETATM   11  H   UNL     1     -13.589   7.608  69.936  1.00  0.00     0.000 HD 
HETATM   12  C   UNL     1     -10.197   5.662  69.819  1.00  0.00    -0.321 A  
HETATM   13  C   UNL     1      -9.542   5.527  71.046  1.00  0.00    -0.217 A  
ENDBRANCH   3   6
ENDBRANCH   2   3
TORSDOF 2
ENDMDL
MODEL      110
REMARK 921   NORMALIZED FREE ENERGY PREDICTED BY IDOCK:   -3.12 KCAL/MOL
REMARK 922        TOTAL FREE ENERGY PREDICTED BY IDOCK:   -3.65 KCAL/MOL
REMARK 923 INTER-LIGAND FREE ENERGY PREDICTED BY IDOCK:   -3.47 KCAL/MOL
REMARK 924 INTRA-LIGAND FREE ENERGY PREDICTED BY IDOCK:   -0.18 KCAL/MOL
REMARK 927      BINDING AFFINITY PREDICTED BY RF-SCORE:    0.00 PKD
ROOT
HETATM    1  C   UNL     1      -7.000  15.220  67.450  1.00  0.00    -0.212 C  
HETATM    2  C   UNL     1      -7.381  16.469  66.667  1.00  0.00    -0.233 C  
ENDROOT
BRANCH   2   3
HETATM    3  N   UNL     1      -8.488  17.317  67.328  1.00  0.00    -0.195 N  
HETATM    4  C   UNL     1      -7.877  18.092  68.499  1.00  0.00    -0.303 C  
HETATM    5  C   UNL     1      -9.008  18.326  66.299  1.00  0.00    -0.181 C  
BRANCH   3   6
HETATM    6  C   UNL     1      -9.613  16.468  67.911  1.00  0.00    -0.233 A  
HETATM    7  C   UNL     1     -10.504  15.768  67.079  1.00  0.00    -0.309 A  
HETATM    8  C   UNL     1     -11.567  15.054  67.634  1.00  0.00    -0.312 A  
HETATM    9  O   UNL     1     -12.455  14.368  66.861  1.00  0.00    -0.568 OA 
HETATM   10  C   UNL     1     -11.772  15.025  69.005  1.00  0.00    -0.351 A  
HETATM   11  H   UNL     1     -13.178  13.882  67.240  1.00  0.00     0.000 HD 
HETATM   12  C   UNL     1     -10.914  15.732  69.839  1.00  0.00    -0.335 A  
HETATM   13  C   UNL     1      -9.852  16.461  69.296  1.00  0.00    -0.240 A  
ENDBRANCH   3   6
ENDBRANCH   2   3
TORSDOF 2
ENDMDL
MODEL      111
REMARK 921   NORMALIZED FREE ENERGY PREDICTED BY IDOCK:   -3.10 KCAL/MOL
REMARK 922        TOTAL FREE ENERGY PREDICTED BY IDOCK:   -3.63 KCAL/MOL
REMARK 923 INTER-LIGAND FREE ENERGY PREDICTED BY IDOCK:   -3.41 KCAL/MOL
REMARK 924 INTRA-LIGAND FREE ENERGY PREDICTED BY IDOCK:   -0.22 KCAL/MOL
REMARK 927      BINDING AFFINITY PREDICTED BY RF-SCORE:    0.00 PKD
ROOT
HETATM    1  C   UNL     1      -8.205   8.570  72.379  1.00  0.00    -0.156 C  
HETATM    2  C   UNL     1      -9.688   8.827  72.152  1.00  0.00    -0.265 C  
ENDROOT
BRANCH   2   3
HETATM    3  N   UNL     1     -10.562   7.555  72.182  1.00  0.00    -0.213 N  
HETATM    4  C   UNL     1     -10.107   6.677  73.351  1.00  0.00    -0.228 C  
HETATM    5  C   UNL     1     -12.016   7.970  72.428  1.00  0.00    -0.350 C  
BRANCH   3   6
HETATM    6  C   UNL     1     -10.417   6.709  70.922  1.00  0.00    -0.215 A  
HETATM    7  C   UNL     1     -11.085   7.051  69.733  1.00  0.00    -0.278 A  
HETATM    8  C   UNL     1     -10.991   6.223  68.614  1.00  0.00    -0.346 A  
HETATM    9  O   UNL     1     -11.627   6.517  67.446  1.00  0.00    -0.719 OA 
HETATM   10  C   UNL     1     -10.251   5.051  68.650  1.00  0.00    -0.154 A  
HETATM   11  H   UNL     1     -11.563   5.953  66.684  1.00  0.00     0.000 HD 
HETATM   12  C   UNL     1      -9.606   4.686  69.826  1.00  0.00    -0.258 A  
HETATM   13  C   UNL     1      -9.700   5.500  70.958  1.00  0.00    -0.229 A  
ENDBRANCH   3   6
ENDBRANCH   2   3
TORSDOF 2
ENDMDL
MODEL      112
REMARK 921   NORMALIZED FREE ENERGY PREDICTED BY IDOCK:   -3.06 KCAL/MOL
REMARK 922        TOTAL FREE ENERGY PREDICTED BY IDOCK:   -3.58 KCAL/MOL
REMARK 923 INTER-LIGAND FREE ENERGY PREDICTED BY IDOCK:   -3.40 KCAL/MOL
REMARK 924 INTRA-LIGAND FREE ENERGY PREDICTED BY IDOCK:   -0.18 KCAL/MOL
REMARK 927      BINDING AFFINITY PREDICTED BY RF-SCORE:    0.00 PKD
ROOT
HETATM    1  C   UNL     1     -10.343  14.140  67.909  1.00  0.00    -0.234 C  
HETATM    2  C   UNL     1      -9.786  15.182  68.868  1.00  0.00    -0.229 C  
ENDROOT
BRANCH   2   3
HETATM    3  N   UNL     1      -8.521  15.902  68.355  1.00  0.00    -0.170 N  
HETATM    4  C   UNL     1      -7.496  15.958  69.491  1.00  0.00    -0.157 C  
HETATM    5  C   UNL     1      -7.926  15.081  67.207  1.00  0.00    -0.206 C  
BRANCH   3   6
HETATM    6  C   UNL     1      -8.789  17.346  67.943  1.00  0.00    -0.237 A  
HETATM    7  C   UNL     1      -9.485  18.228  68.788  1.00  0.00    -0.298 A  
HETATM    8  C   UNL     1      -9.778  19.523  68.360  1.00  0.00    -0.410 A  
HETATM    9  O   UNL     1     -10.454  20.406  69.147  1.00  0.00    -0.390 OA 
HETATM   10  C   UNL     1      -9.400  19.964  67.100  1.00  0.00    -0.479 A  
HETATM   11  H   UNL     1     -10.654  21.288  68.855  1.00  0.00     0.000 HD 
HETATM   12  C   UNL     1      -8.734  19.096  66.244  1.00  0.00    -0.304 A  
HETATM   13  C   UNL     1      -8.444  17.792  66.656  1.00  0.00    -0.283 A  
ENDBRANCH   3   6
ENDBRANCH   2   3
TORSDOF 2
ENDMDL
MODEL      113
REMARK 921   NORMALIZED FREE ENERGY PREDICTED BY IDOCK:   -3.06 KCAL/MOL
REMARK 922        TOTAL FREE ENERGY PREDICTED BY IDOCK:   -3.58 KCAL/MOL
REMARK 923 INTER-LIGAND FREE ENERGY PREDICTED BY IDOCK:   -3.43 KCAL/MOL
REMARK 924 INTRA-LIGAND FREE ENERGY PREDICTED BY IDOCK:   -0.15 KCAL/MOL
REMARK 927      BINDING AFFINITY PREDICTED BY RF-SCORE:    0.00 PKD
ROOT
HETATM    1  C   UNL     1     -10.478   5.907  73.350  1.00  0.00    -0.263 C  
HETATM    2  C   UNL     1      -9.983   6.523  72.049  1.00  0.00    -0.169 C  
ENDROOT
BRANCH   2   3
HETATM    3  N   UNL     1     -11.109   6.955  71.085  1.00  0.00    -0.250 N  
HETATM    4  C   UNL     1     -11.145   5.978  69.906  1.00  0.00    -0.399 C  
HETATM    5  C   UNL     1     -12.446   6.865  71.828  1.00  0.00    -0.356 C  
BRANCH   3   6
HETATM    6  C   UNL     1     -10.880   8.341  70.493  1.00  0.00    -0.232 A  
HETATM    7  C   UNL     1     -11.555   9.468  70.992  1.00  0.00    -0.419 A  
HETATM    8  C   UNL     1     -11.380  10.714  70.389  1.00  0.00    -0.304 A  
HETATM    9  O   UNL     1     -12.021  11.829  70.839  1.00  0.00    -0.402 OA 
HETATM   10  C   UNL     1     -10.550  10.867  69.288  1.00  0.00    -0.251 A  
HETATM   11  H   UNL     1     -11.902  12.677  70.427  1.00  0.00     0.000 HD 
HETATM   12  C   UNL     1      -9.895   9.757  68.767  1.00  0.00    -0.176 A  
HETATM   13  C   UNL     1     -10.070   8.501  69.355  1.00  0.00    -0.205 A  
ENDBRANCH   3   6
ENDBRANCH   2   3
TORSDOF 2
ENDMDL
MODEL      114
REMARK 921   NORMALIZED FREE ENERGY PREDICTED BY IDOCK:   -3.05 KCAL/MOL
REMARK 922        TOTAL FREE ENERGY PREDICTED BY IDOCK:   -3.58 KCAL/MOL
REMARK 923 INTER-LIGAND FREE ENERGY PREDICTED BY IDOCK:   -3.40 KCAL/MOL
REMARK 924 INTRA-LIGAND FREE ENERGY PREDICTED BY IDOCK:   -0.17 KCAL/MOL
REMARK 927      BINDING AFFINITY PREDICTED BY RF-SCORE:    0.00 PKD
ROOT
HETATM    1  C   UNL     1      -9.485   6.817  66.469  1.00  0.00    -0.193 C  
HETATM    2  C   UNL     1     -10.299   6.959  67.747  1.00  0.00    -0.203 C  
ENDROOT
BRANCH   2   3
HETATM    3  N   UNL     1      -9.709   7.958  68.765  1.00  0.00    -0.156 N  
HETATM    4  C   UNL     1      -9.651   7.280  70.137  1.00  0.00    -0.168 C  
HETATM    5  C   UNL     1      -8.279   8.302  68.336  1.00  0.00    -0.132 C  
BRANCH   3   6
HETATM    6  C   UNL     1     -10.569   9.206  68.935  1.00  0.00    -0.191 A  
HETATM    7  C   UNL     1     -10.927  10.000  67.831  1.00  0.00    -0.311 A  
HETATM    8  C   UNL     1     -11.656  11.174  68.020  1.00  0.00    -0.263 A  
HETATM    9  O   UNL     1     -12.017  11.973  66.977  1.00  0.00    -0.609 OA 
HETATM   10  C   UNL     1     -12.034  11.587  69.289  1.00  0.00    -0.397 A  
HETATM   11  H   UNL     1     -12.513  12.773  67.106  1.00  0.00     0.000 HD 
HETATM   12  C   UNL     1     -11.666  10.826  70.392  1.00  0.00    -0.445 A  
HETATM   13  C   UNL     1     -10.926   9.653  70.219  1.00  0.00    -0.337 A  
ENDBRANCH   3   6
ENDBRANCH   2   3
TORSDOF 2
ENDMDL
MODEL      115
REMARK 921   NORMALIZED FREE ENERGY PREDICTED BY IDOCK:   -3.05 KCAL/MOL
REMARK 922        TOTAL FREE ENERGY PREDICTED BY IDOCK:   -3.57 KCAL/MOL
REMARK 923 INTER-LIGAND FREE ENERGY PREDICTED BY IDOCK:   -3.37 KCAL/MOL
REMARK 924 INTRA-LIGAND FREE ENERGY PREDICTED BY IDOCK:   -0.20 KCAL/MOL
REMARK 927      BINDING AFFINITY PREDICTED BY RF-SCORE:    0.00 PKD
ROOT
HETATM    1  C   UNL     1      -9.091   7.615  72.693  1.00  0.00    -0.209 C  
HETATM    2  C   UNL     1     -10.304   6.855  72.177  1.00  0.00    -0.199 C  
ENDROOT
BRANCH   2   3
HETATM    3  N   UNL     1     -11.185   7.659  71.198  1.00  0.00    -0.256 N  
HETATM    4  C   UNL     1     -12.637   7.197  71.355  1.00  0.00    -0.394 C  
HETATM    5  C   UNL     1     -11.107   9.141  71.578  1.00  0.00    -0.365 C  
BRANCH   3   6
HETATM    6  C   UNL     1     -10.812   7.425  69.738  1.00  0.00    -0.234 A  
HETATM    7  C   UNL     1     -10.576   8.501  68.865  1.00  0.00    -0.166 A  
HETATM    8  C   UNL     1     -10.303   8.263  67.518  1.00  0.00    -0.265 A  
HETATM    9  O   UNL     1     -10.075   9.278  66.639  1.00  0.00    -0.242 OA 
HETATM   10  C   UNL     1     -10.266   6.972  67.011  1.00  0.00    -0.330 A  
HETATM   11  H   UNL     1      -9.890   9.115  65.721  1.00  0.00     0.000 HD 
HETATM   12  C   UNL     1     -10.521   5.899  67.857  1.00  0.00    -0.297 A  
HETATM   13  C   UNL     1     -10.807   6.124  69.207  1.00  0.00    -0.418 A  
ENDBRANCH   3   6
ENDBRANCH   2   3
TORSDOF 2
ENDMDL
MODEL      116
REMARK 921   NORMALIZED FREE ENERGY PREDICTED BY IDOCK:   -3.04 KCAL/MOL
REMARK 922        TOTAL FREE ENERGY PREDICTED BY IDOCK:   -3.57 KCAL/MOL
REMARK 923 INTER-LIGAND FREE ENERGY PREDICTED BY IDOCK:   -3.39 KCAL/MOL
REMARK 924 INTRA-LIGAND FREE ENERGY PREDICTED BY IDOCK:   -0.17 KCAL/MOL
REMARK 927      BINDING AFFINITY PREDICTED BY RF-SCORE:    0.00 PKD
ROOT
HETATM    1  C   UNL     1     -12.059  12.123  63.579  1.00  0.00    -0.649 C  
HETATM    2  C   UNL     1     -10.775  12.801  64.035  1.00  0.00    -0.426 C  
ENDROOT
BRANCH   2   3
HETATM    3  N   UNL     1     -10.640  12.933  65.567  1.00  0.00    -0.275 N  
HETATM    4  C   UNL     1     -10.026  14.299  65.888  1.00  0.00    -0.319 C  
HETATM    5  C   UNL     1     -12.041  12.877  66.186  1.00  0.00    -0.393 C  
BRANCH   3   6
HETATM    6  C   UNL     1      -9.710  11.887  66.171  1.00  0.00    -0.232 A  
HETATM    7  C   UNL     1      -9.404  11.888  67.543  1.00  0.00    -0.177 A  
HETATM    8  C   UNL     1      -8.496  10.962  68.059  1.00  0.00    -0.130 A  
HETATM    9  O   UNL     1      -8.170  10.935  69.381  1.00  0.00    -0.347 OA 
HETATM   10  C   UNL     1      -7.874  10.034  67.237  1.00  0.00    -0.102 A  
HETATM   11  H   UNL     1      -7.551  10.304  69.732  1.00  0.00     0.000 HD 
HETATM   12  C   UNL     1      -8.148  10.037  65.875  1.00  0.00    -0.126 A  
HETATM   13  C   UNL     1      -9.046  10.965  65.342  1.00  0.00    -0.218 A  
ENDBRANCH   3   6
ENDBRANCH   2   3
TORSDOF 2
ENDMDL
MODEL      117
REMARK 921   NORMALIZED FREE ENERGY PREDICTED BY IDOCK:   -3.04 KCAL/MOL
REMARK 922        TOTAL FREE ENERGY PREDICTED BY IDOCK:   -3.56 KCAL/MOL
REMARK 923 INTER-LIGAND FREE ENERGY PREDICTED BY IDOCK:   -3.43 KCAL/MOL
REMARK 924 INTRA-LIGAND FREE ENERGY PREDICTED BY IDOCK:   -0.13 KCAL/MOL
REMARK 927      BINDING AFFINITY PREDICTED BY RF-SCORE:    0.00 PKD
ROOT
HETATM    1  C   UNL     1     -10.308  10.869  67.091  1.00  0.00    -0.262 C  
HETATM    2  C   UNL     1     -10.985  10.041  68.174  1.00  0.00    -0.235 C  
ENDROOT
BRANCH   2   3
HETATM    3  N   UNL     1     -10.025   9.127  68.964  1.00  0.00    -0.178 N  
HETATM    4  C   UNL     1      -9.362   8.153  67.986  1.00  0.00    -0.135 C  
HETATM    5  C   UNL     1      -8.932   9.997  69.593  1.00  0.00    -0.202 C  
BRANCH   3   6
HETATM    6  C   UNL     1     -10.743   8.274  70.004  1.00  0.00    -0.239 A  
HETATM    7  C   UNL     1     -11.666   8.841  70.900  1.00  0.00    -0.299 A  
HETATM    8  C   UNL     1     -12.258   8.052  71.887  1.00  0.00    -0.319 A  
HETATM    9  O   UNL     1     -13.153   8.565  72.777  1.00  0.00    -0.636 OA 
HETATM   10  C   UNL     1     -11.948   6.706  72.012  1.00  0.00    -0.361 A  
HETATM   11  H   UNL     1     -13.556   8.028  73.449  1.00  0.00     0.000 HD 
HETATM   12  C   UNL     1     -11.018   6.138  71.150  1.00  0.00    -0.343 A  
HETATM   13  C   UNL     1     -10.408   6.918  70.163  1.00  0.00    -0.218 A  
ENDBRANCH   3   6
ENDBRANCH   2   3
TORSDOF 2
ENDMDL
MODEL      118
REMARK 921   NORMALIZED FREE ENERGY PREDICTED BY IDOCK:   -3.04 KCAL/MOL
REMARK 922        TOTAL FREE ENERGY PREDICTED BY IDOCK:   -3.56 KCAL/MOL
REMARK 923 INTER-LIGAND FREE ENERGY PREDICTED BY IDOCK:   -3.39 KCAL/MOL
REMARK 924 INTRA-LIGAND FREE ENERGY PREDICTED BY IDOCK:   -0.17 KCAL/MOL
REMARK 927      BINDING AFFINITY PREDICTED BY RF-SCORE:    0.00 PKD
ROOT
HETATM    1  C   UNL     1      -7.958  16.022  67.552  1.00  0.00    -0.165 C  
HETATM    2  C   UNL     1      -9.426  15.825  67.200  1.00  0.00    -0.213 C  
ENDROOT
BRANCH   2   3
HETATM    3  N   UNL     1     -10.009  14.470  67.654  1.00  0.00    -0.223 N  
HETATM    4  C   UNL     1     -10.942  13.948  66.558  1.00  0.00    -0.300 C  
HETATM    5  C   UNL     1      -8.855  13.475  67.820  1.00  0.00    -0.198 C  
BRANCH   3   6
HETATM    6  C   UNL     1     -10.849  14.583  68.921  1.00  0.00    -0.253 A  
HETATM    7  C   UNL     1     -11.514  13.466  69.457  1.00  0.00    -0.308 A  
HETATM    8  C   UNL     1     -12.332  13.609  70.578  1.00  0.00    -0.355 A  
HETATM    9  O   UNL     1     -12.997  12.553  71.123  1.00  0.00    -0.271 OA 
HETATM   10  C   UNL     1     -12.514  14.846  71.179  1.00  0.00    -0.395 A  
HETATM   11  H   UNL     1     -13.555  12.651  71.886  1.00  0.00     0.000 HD 
HETATM   12  C   UNL     1     -11.883  15.963  70.646  1.00  0.00    -0.398 A  
HETATM   13  C   UNL     1     -11.069  15.837  69.517  1.00  0.00    -0.306 A  
ENDBRANCH   3   6
ENDBRANCH   2   3
TORSDOF 2
ENDMDL
MODEL      119
REMARK 921   NORMALIZED FREE ENERGY PREDICTED BY IDOCK:   -3.04 KCAL/MOL
REMARK 922        TOTAL FREE ENERGY PREDICTED BY IDOCK:   -3.56 KCAL/MOL
REMARK 923 INTER-LIGAND FREE ENERGY PREDICTED BY IDOCK:   -3.40 KCAL/MOL
REMARK 924 INTRA-LIGAND FREE ENERGY PREDICTED BY IDOCK:   -0.16 KCAL/MOL
REMARK 927      BINDING AFFINITY PREDICTED BY RF-SCORE:    0.00 PKD
ROOT
HETATM    1  C   UNL     1      -6.794  18.828  68.118  1.00  0.00    -0.254 C  
HETATM    2  C   UNL     1      -7.807  17.751  68.481  1.00  0.00    -0.290 C  
ENDROOT
BRANCH   2   3
HETATM    3  N   UNL     1      -9.095  17.782  67.631  1.00  0.00    -0.244 N  
HETATM    4  C   UNL     1     -10.271  18.150  68.540  1.00  0.00    -0.384 C  
HETATM    5  C   UNL     1      -8.948  18.873  66.565  1.00  0.00    -0.323 C  
BRANCH   3   6
HETATM    6  C   UNL     1      -9.429  16.427  67.017  1.00  0.00    -0.230 A  
HETATM    7  C   UNL     1      -8.976  15.231  67.599  1.00  0.00    -0.182 A  
HETATM    8  C   UNL     1      -9.238  14.008  66.981  1.00  0.00    -0.254 A  
HETATM    9  O   UNL     1      -8.812  12.827  67.511  1.00  0.00    -0.168 OA 
HETATM   10  C   UNL     1      -9.936  13.944  65.784  1.00  0.00    -0.304 A  
HETATM   11  H   UNL     1      -8.989  11.995  67.089  1.00  0.00     0.000 HD 
HETATM   12  C   UNL     1     -10.369  15.120  65.183  1.00  0.00    -0.416 A  
HETATM   13  C   UNL     1     -10.105  16.354  65.786  1.00  0.00    -0.352 A  
ENDBRANCH   3   6
ENDBRANCH   2   3
TORSDOF 2
ENDMDL
MODEL      120
REMARK 921   NORMALIZED FREE ENERGY PREDICTED BY IDOCK:   -3.04 KCAL/MOL
REMARK 922        TOTAL FREE ENERGY PREDICTED BY IDOCK:   -3.56 KCAL/MOL
REMARK 923 INTER-LIGAND FREE ENERGY PREDICTED BY IDOCK:   -3.37 KCAL/MOL
REMARK 924 INTRA-LIGAND FREE ENERGY PREDICTED BY IDOCK:   -0.19 KCAL/MOL
REMARK 927      BINDING AFFINITY PREDICTED BY RF-SCORE:    0.00 PKD
ROOT
HETATM    1  C   UNL     1     -10.894   5.965  66.883  1.00  0.00    -0.376 C  
HETATM    2  C   UNL     1     -10.137   5.993  68.204  1.00  0.00    -0.160 C  
ENDROOT
BRANCH   2   3
HETATM    3  N   UNL     1      -9.971   7.404  68.807  1.00  0.00    -0.165 N  
HETATM    4  C   UNL     1      -8.587   7.498  69.457  1.00  0.00    -0.133 C  
HETATM    5  C   UNL     1     -10.043   8.430  67.673  1.00  0.00    -0.209 C  
BRANCH   3   6
HETATM    6  C   UNL     1     -10.986   7.699  69.907  1.00  0.00    -0.200 A  
HETATM    7  C   UNL     1     -11.351   9.019  70.227  1.00  0.00    -0.202 A  
HETATM    8  C   UNL     1     -12.229   9.266  71.282  1.00  0.00    -0.334 A  
HETATM    9  O   UNL     1     -12.603  10.530  71.627  1.00  0.00    -0.394 OA 
HETATM   10  C   UNL     1     -12.753   8.227  72.038  1.00  0.00    -0.376 A  
HETATM   11  H   UNL     1     -13.201  10.697  72.346  1.00  0.00     0.000 HD 
HETATM   12  C   UNL     1     -12.382   6.919  71.749  1.00  0.00    -0.401 A  
HETATM   13  C   UNL     1     -11.494   6.657  70.702  1.00  0.00    -0.420 A  
ENDBRANCH   3   6
ENDBRANCH   2   3
TORSDOF 2
ENDMDL
MODEL      121
REMARK 921   NORMALIZED FREE ENERGY PREDICTED BY IDOCK:   -3.04 KCAL/MOL
REMARK 922        TOTAL FREE ENERGY PREDICTED BY IDOCK:   -3.56 KCAL/MOL
REMARK 923 INTER-LIGAND FREE ENERGY PREDICTED BY IDOCK:   -3.40 KCAL/MOL
REMARK 924 INTRA-LIGAND FREE ENERGY PREDICTED BY IDOCK:   -0.16 KCAL/MOL
REMARK 927      BINDING AFFINITY PREDICTED BY RF-SCORE:    0.00 PKD
ROOT
HETATM    1  C   UNL     1      -7.923   9.613  67.400  1.00  0.00    -0.106 C  
HETATM    2  C   UNL     1      -9.120   8.983  68.096  1.00  0.00    -0.132 C  
ENDROOT
BRANCH   2   3
HETATM    3  N   UNL     1      -8.999   8.924  69.633  1.00  0.00    -0.143 N  
HETATM    4  C   UNL     1      -8.603   7.502  70.039  1.00  0.00    -0.139 C  
HETATM    5  C   UNL     1      -7.884   9.880  70.070  1.00  0.00    -0.180 C  
BRANCH   3   6
HETATM    6  C   UNL     1     -10.316   9.225  70.341  1.00  0.00    -0.240 A  
HETATM    7  C   UNL     1     -10.909   8.288  71.206  1.00  0.00    -0.285 A  
HETATM    8  C   UNL     1     -12.148   8.559  71.788  1.00  0.00    -0.333 A  
HETATM    9  O   UNL     1     -12.758   7.675  72.626  1.00  0.00    -0.509 OA 
HETATM   10  C   UNL     1     -12.821   9.743  71.524  1.00  0.00    -0.502 A  
HETATM   11  H   UNL     1     -13.602   7.860  73.022  1.00  0.00     0.000 HD 
HETATM   12  C   UNL     1     -12.259  10.668  70.652  1.00  0.00    -0.459 A  
HETATM   13  C   UNL     1     -11.024  10.405  70.053  1.00  0.00    -0.370 A  
ENDBRANCH   3   6
ENDBRANCH   2   3
TORSDOF 2
ENDMDL
MODEL      122
REMARK 921   NORMALIZED FREE ENERGY PREDICTED BY IDOCK:   -3.02 KCAL/MOL
REMARK 922        TOTAL FREE ENERGY PREDICTED BY IDOCK:   -3.54 KCAL/MOL
REMARK 923 INTER-LIGAND FREE ENERGY PREDICTED BY IDOCK:   -3.38 KCAL/MOL
REMARK 924 INTRA-LIGAND FREE ENERGY PREDICTED BY IDOCK:   -0.16 KCAL/MOL
REMARK 927      BINDING AFFINITY PREDICTED BY RF-SCORE:    0.00 PKD
ROOT
HETATM    1  C   UNL     1     -10.988  13.606  65.437  1.00  0.00    -0.302 C  
HETATM    2  C   UNL     1     -11.550  12.470  66.279  1.00  0.00    -0.394 C  
ENDROOT
BRANCH   2   3
HETATM    3  N   UNL     1     -10.907  12.341  67.677  1.00  0.00    -0.218 N  
HETATM    4  C   UNL     1      -9.569  13.086  67.670  1.00  0.00    -0.206 C  
HETATM    5  C   UNL     1     -11.828  13.013  68.700  1.00  0.00    -0.318 C  
BRANCH   3   6
HETATM    6  C   UNL     1     -10.596  10.896  68.053  1.00  0.00    -0.202 A  
HETATM    7  C   UNL     1     -10.557   9.882  67.081  1.00  0.00    -0.295 A  
HETATM    8  C   UNL     1     -10.338   8.557  67.460  1.00  0.00    -0.267 A  
HETATM    9  O   UNL     1     -10.299   7.545  66.548  1.00  0.00    -0.474 OA 
HETATM   10  C   UNL     1     -10.163   8.211  68.791  1.00  0.00    -0.221 A  
HETATM   11  H   UNL     1     -10.151   6.643  66.807  1.00  0.00     0.000 HD 
HETATM   12  C   UNL     1     -10.224   9.200  69.766  1.00  0.00    -0.219 A  
HETATM   13  C   UNL     1     -10.453  10.530  69.403  1.00  0.00    -0.264 A  
ENDBRANCH   3   6
ENDBRANCH   2   3
TORSDOF 2
ENDMDL
MODEL      123
REMARK 921   NORMALIZED FREE ENERGY PREDICTED BY IDOCK:   -3.00 KCAL/MOL
REMARK 922        TOTAL FREE ENERGY PREDICTED BY IDOCK:   -3.52 KCAL/MOL
REMARK 923 INTER-LIGAND FREE ENERGY PREDICTED BY IDOCK:   -3.38 KCAL/MOL
REMARK 924 INTRA-LIGAND FREE ENERGY PREDICTED BY IDOCK:   -0.13 KCAL/MOL
REMARK 927      BINDING AFFINITY PREDICTED BY RF-SCORE:    0.00 PKD
ROOT
HETATM    1  C   UNL     1      -7.582   4.160  72.208  1.00  0.00    -0.076 C  
HETATM    2  C   UNL     1      -8.149   5.548  71.951  1.00  0.00    -0.115 C  
ENDROOT
BRANCH   2   3
HETATM    3  N   UNL     1      -9.642   5.558  71.560  1.00  0.00    -0.148 N  
HETATM    4  C   UNL     1      -9.774   5.057  70.119  1.00  0.00    -0.210 C  
HETATM    5  C   UNL     1     -10.392   4.589  72.479  1.00  0.00    -0.195 C  
BRANCH   3   6
HETATM    6  C   UNL     1     -10.251   6.956  71.590  1.00  0.00    -0.191 A  
HETATM    7  C   UNL     1     -11.403   7.234  72.347  1.00  0.00    -0.324 A  
HETATM    8  C   UNL     1     -11.980   8.503  72.303  1.00  0.00    -0.385 A  
HETATM    9  O   UNL     1     -13.099   8.810  73.017  1.00  0.00    -0.748 OA 
HETATM   10  C   UNL     1     -11.442   9.509  71.514  1.00  0.00    -0.466 A  
HETATM   11  H   UNL     1     -13.492   9.674  72.987  1.00  0.00     0.000 HD 
HETATM   12  C   UNL     1     -10.318   9.242  70.741  1.00  0.00    -0.348 A  
HETATM   13  C   UNL     1      -9.736   7.972  70.767  1.00  0.00    -0.179 A  
ENDBRANCH   3   6
ENDBRANCH   2   3
TORSDOF 2
ENDMDL
MODEL      124
REMARK 921   NORMALIZED FREE ENERGY PREDICTED BY IDOCK:   -2.99 KCAL/MOL
REMARK 922        TOTAL FREE ENERGY PREDICTED BY IDOCK:   -3.51 KCAL/MOL
REMARK 923 INTER-LIGAND FREE ENERGY PREDICTED BY IDOCK:   -3.33 KCAL/MOL
REMARK 924 INTRA-LIGAND FREE ENERGY PREDICTED BY IDOCK:   -0.18 KCAL/MOL
REMARK 927      BINDING AFFINITY PREDICTED BY RF-SCORE:    0.00 PKD
ROOT
HETATM    1  C   UNL     1      -8.183  16.923  67.065  1.00  0.00    -0.228 C  
HETATM    2  C   UNL     1      -7.902  15.428  67.016  1.00  0.00    -0.209 C  
ENDROOT
BRANCH   2   3
HETATM    3  N   UNL     1      -8.140  14.696  68.354  1.00  0.00    -0.140 N  
HETATM    4  C   UNL     1      -7.747  13.226  68.183  1.00  0.00    -0.143 C  
HETATM    5  C   UNL     1      -7.230  15.318  69.418  1.00  0.00    -0.201 C  
BRANCH   3   6
HETATM    6  C   UNL     1      -9.604  14.706  68.781  1.00  0.00    -0.210 A  
HETATM    7  C   UNL     1     -10.057  15.549  69.811  1.00  0.00    -0.291 A  
HETATM    8  C   UNL     1     -11.386  15.490  70.229  1.00  0.00    -0.332 A  
HETATM    9  O   UNL     1     -11.863  16.286  71.228  1.00  0.00    -0.588 OA 
HETATM   10  C   UNL     1     -12.282  14.603  69.651  1.00  0.00    -0.325 A  
HETATM   11  H   UNL     1     -12.768  16.246  71.513  1.00  0.00     0.000 HD 
HETATM   12  C   UNL     1     -11.843  13.746  68.649  1.00  0.00    -0.409 A  
HETATM   13  C   UNL     1     -10.511  13.786  68.227  1.00  0.00    -0.251 A  
ENDBRANCH   3   6
ENDBRANCH   2   3
TORSDOF 2
ENDMDL
MODEL      125
REMARK 921   NORMALIZED FREE ENERGY PREDICTED BY IDOCK:   -2.99 KCAL/MOL
REMARK 922        TOTAL FREE ENERGY PREDICTED BY IDOCK:   -3.51 KCAL/MOL
REMARK 923 INTER-LIGAND FREE ENERGY PREDICTED BY IDOCK:   -3.37 KCAL/MOL
REMARK 924 INTRA-LIGAND FREE ENERGY PREDICTED BY IDOCK:   -0.14 KCAL/MOL
REMARK 927      BINDING AFFINITY PREDICTED BY RF-SCORE:    0.00 PKD
ROOT
HETATM    1  C   UNL     1      -7.993   9.649  70.279  1.00  0.00    -0.198 C  
HETATM    2  C   UNL     1      -8.568  10.535  69.183  1.00  0.00    -0.150 C  
ENDROOT
BRANCH   2   3
HETATM    3  N   UNL     1     -10.038  10.227  68.827  1.00  0.00    -0.178 N  
HETATM    4  C   UNL     1     -10.073   8.989  67.927  1.00  0.00    -0.197 C  
HETATM    5  C   UNL     1     -10.794   9.906  70.119  1.00  0.00    -0.304 C  
BRANCH   3   6
HETATM    6  C   UNL     1     -10.703  11.353  68.042  1.00  0.00    -0.200 A  
HETATM    7  C   UNL     1     -10.771  11.322  66.638  1.00  0.00    -0.321 A  
HETATM    8  C   UNL     1     -11.324  12.395  65.940  1.00  0.00    -0.356 A  
HETATM    9  O   UNL     1     -11.402  12.406  64.580  1.00  0.00    -0.304 OA 
HETATM   10  C   UNL     1     -11.808  13.511  66.607  1.00  0.00    -0.450 A  
HETATM   11  H   UNL     1     -11.779  13.138  64.105  1.00  0.00     0.000 HD 
HETATM   12  C   UNL     1     -11.725  13.567  67.993  1.00  0.00    -0.394 A  
HETATM   13  C   UNL     1     -11.164  12.504  68.705  1.00  0.00    -0.319 A  
ENDBRANCH   3   6
ENDBRANCH   2   3
TORSDOF 2
ENDMDL
MODEL      126
REMARK 921   NORMALIZED FREE ENERGY PREDICTED BY IDOCK:   -2.98 KCAL/MOL
REMARK 922        TOTAL FREE ENERGY PREDICTED BY IDOCK:   -3.49 KCAL/MOL
REMARK 923 INTER-LIGAND FREE ENERGY PREDICTED BY IDOCK:   -3.32 KCAL/MOL
REMARK 924 INTRA-LIGAND FREE ENERGY PREDICTED BY IDOCK:   -0.17 KCAL/MOL
REMARK 927      BINDING AFFINITY PREDICTED BY RF-SCORE:    0.00 PKD
ROOT
HETATM    1  C   UNL     1     -11.398  12.700  68.705  1.00  0.00    -0.331 C  
HETATM    2  C   UNL     1      -9.996  12.439  68.173  1.00  0.00    -0.215 C  
ENDROOT
BRANCH   2   3
HETATM    3  N   UNL     1      -9.696  10.952  67.886  1.00  0.00    -0.163 N  
HETATM    4  C   UNL     1      -8.387  10.575  68.584  1.00  0.00    -0.132 C  
HETATM    5  C   UNL     1     -10.824  10.104  68.483  1.00  0.00    -0.237 C  
BRANCH   3   6
HETATM    6  C   UNL     1      -9.494  10.667  66.402  1.00  0.00    -0.171 A  
HETATM    7  C   UNL     1     -10.429  11.095  65.443  1.00  0.00    -0.321 A  
HETATM    8  C   UNL     1     -10.256  10.762  64.099  1.00  0.00    -0.344 A  
HETATM    9  O   UNL     1     -11.142  11.153  63.141  1.00  0.00    -0.811 OA 
HETATM   10  C   UNL     1      -9.174  10.001  63.682  1.00  0.00    -0.314 A  
HETATM   11  H   UNL     1     -11.024  10.926  62.226  1.00  0.00     0.000 HD 
HETATM   12  C   UNL     1      -8.255   9.550  64.622  1.00  0.00    -0.146 A  
HETATM   13  C   UNL     1      -8.421   9.866  65.973  1.00  0.00    -0.135 A  
ENDBRANCH   3   6
ENDBRANCH   2   3
TORSDOF 2
ENDMDL
MODEL      127
REMARK 921   NORMALIZED FREE ENERGY PREDICTED BY IDOCK:   -2.97 KCAL/MOL
REMARK 922        TOTAL FREE ENERGY PREDICTED BY IDOCK:   -3.48 KCAL/MOL
REMARK 923 INTER-LIGAND FREE ENERGY PREDICTED BY IDOCK:   -3.28 KCAL/MOL
REMARK 924 INTRA-LIGAND FREE ENERGY PREDICTED BY IDOCK:   -0.20 KCAL/MOL
REMARK 927      BINDING AFFINITY PREDICTED BY RF-SCORE:    0.00 PKD
ROOT
HETATM    1  C   UNL     1      -9.123   7.608  72.643  1.00  0.00    -0.209 C  
HETATM    2  C   UNL     1     -10.365   6.906  72.111  1.00  0.00    -0.199 C  
ENDROOT
BRANCH   2   3
HETATM    3  N   UNL     1     -11.291   7.810  71.271  1.00  0.00    -0.259 N  
HETATM    4  C   UNL     1     -12.737   7.348  71.471  1.00  0.00    -0.372 C  
HETATM    5  C   UNL     1     -11.167   9.247  71.787  1.00  0.00    -0.343 C  
BRANCH   3   6
HETATM    6  C   UNL     1     -11.009   7.717  69.775  1.00  0.00    -0.170 A  
HETATM    7  C   UNL     1     -10.941   6.473  69.123  1.00  0.00    -0.380 A  
HETATM    8  C   UNL     1     -10.614   6.411  67.768  1.00  0.00    -0.266 A  
HETATM    9  O   UNL     1     -10.533   5.226  67.101  1.00  0.00    -0.223 OA 
HETATM   10  C   UNL     1     -10.343   7.561  67.042  1.00  0.00    -0.395 A  
HETATM   11  H   UNL     1     -10.310   5.184  66.178  1.00  0.00     0.000 HD 
HETATM   12  C   UNL     1     -10.382   8.796  67.679  1.00  0.00    -0.317 A  
HETATM   13  C   UNL     1     -10.698   8.873  69.038  1.00  0.00    -0.148 A  
ENDBRANCH   3   6
ENDBRANCH   2   3
TORSDOF 2
ENDMDL
MODEL      128
REMARK 921   NORMALIZED FREE ENERGY PREDICTED BY IDOCK:   -2.95 KCAL/MOL
REMARK 922        TOTAL FREE ENERGY PREDICTED BY IDOCK:   -3.47 KCAL/MOL
REMARK 923 INTER-LIGAND FREE ENERGY PREDICTED BY IDOCK:   -3.31 KCAL/MOL
REMARK 924 INTRA-LIGAND FREE ENERGY PREDICTED BY IDOCK:   -0.15 KCAL/MOL
REMARK 927      BINDING AFFINITY PREDICTED BY RF-SCORE:    0.00 PKD
ROOT
HETATM    1  C   UNL     1      -7.220   7.660  63.096  1.00  0.00    -0.083 C  
HETATM    2  C   UNL     1      -7.942   8.322  64.261  1.00  0.00    -0.148 C  
ENDROOT
BRANCH   2   3
HETATM    3  N   UNL     1      -7.810   9.860  64.295  1.00  0.00    -0.134 N  
HETATM    4  C   UNL     1      -6.792  10.239  65.374  1.00  0.00    -0.140 C  
HETATM    5  C   UNL     1      -7.276  10.333  62.940  1.00  0.00    -0.133 C  
BRANCH   3   6
HETATM    6  C   UNL     1      -9.115  10.556  64.667  1.00  0.00    -0.218 A  
HETATM    7  C   UNL     1     -10.102  10.819  63.700  1.00  0.00    -0.375 A  
HETATM    8  C   UNL     1     -11.257  11.518  64.052  1.00  0.00    -0.333 A  
HETATM    9  O   UNL     1     -12.233  11.798  63.144  1.00  0.00    -0.883 OA 
HETATM   10  C   UNL     1     -11.454  11.973  65.347  1.00  0.00    -0.361 A  
HETATM   11  H   UNL     1     -13.020  12.274  63.383  1.00  0.00     0.000 HD 
HETATM   12  C   UNL     1     -10.476  11.742  66.307  1.00  0.00    -0.281 A  
HETATM   13  C   UNL     1      -9.309  11.053  65.967  1.00  0.00    -0.225 A  
ENDBRANCH   3   6
ENDBRANCH   2   3
TORSDOF 2
ENDMDL
MODEL      129
REMARK 921   NORMALIZED FREE ENERGY PREDICTED BY IDOCK:   -2.95 KCAL/MOL
REMARK 922        TOTAL FREE ENERGY PREDICTED BY IDOCK:   -3.46 KCAL/MOL
REMARK 923 INTER-LIGAND FREE ENERGY PREDICTED BY IDOCK:   -3.29 KCAL/MOL
REMARK 924 INTRA-LIGAND FREE ENERGY PREDICTED BY IDOCK:   -0.17 KCAL/MOL
REMARK 927      BINDING AFFINITY PREDICTED BY RF-SCORE:    0.00 PKD
ROOT
HETATM    1  C   UNL     1     -12.873  10.120  71.159  1.00  0.00    -0.494 C  
HETATM    2  C   UNL     1     -11.567  10.569  70.519  1.00  0.00    -0.350 C  
ENDROOT
BRANCH   2   3
HETATM    3  N   UNL     1     -10.714   9.416  69.948  1.00  0.00    -0.225 N  
HETATM    4  C   UNL     1      -9.344   9.436  70.632  1.00  0.00    -0.252 C  
HETATM    5  C   UNL     1     -11.402   8.089  70.283  1.00  0.00    -0.141 C  
BRANCH   3   6
HETATM    6  C   UNL     1     -10.453   9.559  68.452  1.00  0.00    -0.224 A  
HETATM    7  C   UNL     1     -10.973  10.642  67.722  1.00  0.00    -0.364 A  
HETATM    8  C   UNL     1     -10.778  10.714  66.342  1.00  0.00    -0.129 A  
HETATM    9  O   UNL     1     -11.271  11.744  65.599  1.00  0.00    -0.314 OA 
HETATM   10  C   UNL     1     -10.080   9.726  65.664  1.00  0.00    -0.282 A  
HETATM   11  H   UNL     1     -11.138  11.793  64.659  1.00  0.00     0.000 HD 
HETATM   12  C   UNL     1      -9.581   8.637  66.369  1.00  0.00    -0.316 A  
HETATM   13  C   UNL     1      -9.779   8.546  67.749  1.00  0.00    -0.199 A  
ENDBRANCH   3   6
ENDBRANCH   2   3
TORSDOF 2
ENDMDL
MODEL      130
REMARK 921   NORMALIZED FREE ENERGY PREDICTED BY IDOCK:   -2.92 KCAL/MOL
REMARK 922        TOTAL FREE ENERGY PREDICTED BY IDOCK:   -3.43 KCAL/MOL
REMARK 923 INTER-LIGAND FREE ENERGY PREDICTED BY IDOCK:   -3.30 KCAL/MOL
REMARK 924 INTRA-LIGAND FREE ENERGY PREDICTED BY IDOCK:   -0.14 KCAL/MOL
REMARK 927      BINDING AFFINITY PREDICTED BY RF-SCORE:    0.00 PKD
ROOT
HETATM    1  C   UNL     1      -9.744   9.790  65.409  1.00  0.00    -0.383 C  
HETATM    2  C   UNL     1      -9.758  11.307  65.528  1.00  0.00    -0.229 C  
ENDROOT
BRANCH   2   3
HETATM    3  N   UNL     1      -9.580  11.830  66.970  1.00  0.00    -0.184 N  
HETATM    4  C   UNL     1     -10.476  11.009  67.901  1.00  0.00    -0.192 C  
HETATM    5  C   UNL     1      -8.123  11.615  67.389  1.00  0.00    -0.153 C  
BRANCH   3   6
HETATM    6  C   UNL     1     -10.009  13.285  67.127  1.00  0.00    -0.238 A  
HETATM    7  C   UNL     1      -9.532  14.283  66.260  1.00  0.00    -0.277 A  
HETATM    8  C   UNL     1      -9.885  15.617  66.467  1.00  0.00    -0.261 A  
HETATM    9  O   UNL     1      -9.440  16.614  65.653  1.00  0.00    -0.511 OA 
HETATM   10  C   UNL     1     -10.700  15.987  67.527  1.00  0.00    -0.314 A  
HETATM   11  H   UNL     1      -9.680  17.522  65.794  1.00  0.00     0.000 HD 
HETATM   12  C   UNL     1     -11.158  15.014  68.407  1.00  0.00    -0.284 A  
HETATM   13  C   UNL     1     -10.804  13.676  68.219  1.00  0.00    -0.268 A  
ENDBRANCH   3   6
ENDBRANCH   2   3
TORSDOF 2
ENDMDL
MODEL      131
REMARK 921   NORMALIZED FREE ENERGY PREDICTED BY IDOCK:   -2.92 KCAL/MOL
REMARK 922        TOTAL FREE ENERGY PREDICTED BY IDOCK:   -3.42 KCAL/MOL
REMARK 923 INTER-LIGAND FREE ENERGY PREDICTED BY IDOCK:   -3.20 KCAL/MOL
REMARK 924 INTRA-LIGAND FREE ENERGY PREDICTED BY IDOCK:   -0.22 KCAL/MOL
REMARK 927      BINDING AFFINITY PREDICTED BY RF-SCORE:    0.00 PKD
ROOT
HETATM    1  C   UNL     1     -11.379  11.651  67.240  1.00  0.00    -0.372 C  
HETATM    2  C   UNL     1     -10.350  10.908  66.399  1.00  0.00    -0.251 C  
ENDROOT
BRANCH   2   3
HETATM    3  N   UNL     1      -9.378  10.032  67.217  1.00  0.00    -0.147 N  
HETATM    4  C   UNL     1      -8.272   9.528  66.285  1.00  0.00    -0.115 C  
HETATM    5  C   UNL     1      -8.735  10.902  68.302  1.00  0.00    -0.140 C  
BRANCH   3   6
HETATM    6  C   UNL     1     -10.048   8.794  67.803  1.00  0.00    -0.207 A  
HETATM    7  C   UNL     1     -10.224   8.648  69.190  1.00  0.00    -0.215 A  
HETATM    8  C   UNL     1     -10.778   7.476  69.706  1.00  0.00    -0.242 A  
HETATM    9  O   UNL     1     -10.959   7.294  71.044  1.00  0.00    -0.243 OA 
HETATM   10  C   UNL     1     -11.157   6.435  68.872  1.00  0.00    -0.420 A  
HETATM   11  H   UNL     1     -11.336   6.495  71.395  1.00  0.00     0.000 HD 
HETATM   12  C   UNL     1     -10.967   6.555  67.501  1.00  0.00    -0.444 A  
HETATM   13  C   UNL     1     -10.403   7.719  66.971  1.00  0.00    -0.405 A  
ENDBRANCH   3   6
ENDBRANCH   2   3
TORSDOF 2
ENDMDL
MODEL      132
REMARK 921   NORMALIZED FREE ENERGY PREDICTED BY IDOCK:   -2.91 KCAL/MOL
REMARK 922        TOTAL FREE ENERGY PREDICTED BY IDOCK:   -3.42 KCAL/MOL
REMARK 923 INTER-LIGAND FREE ENERGY PREDICTED BY IDOCK:   -3.37 KCAL/MOL
REMARK 924 INTRA-LIGAND FREE ENERGY PREDICTED BY IDOCK:   -0.05 KCAL/MOL
REMARK 927      BINDING AFFINITY PREDICTED BY RF-SCORE:    0.00 PKD
ROOT
HETATM    1  C   UNL     1     -11.391  15.505  70.727  1.00  0.00    -0.384 C  
HETATM    2  C   UNL     1     -12.120  15.166  69.434  1.00  0.00    -0.260 C  
ENDROOT
BRANCH   2   3
HETATM    3  N   UNL     1     -11.188  14.921  68.229  1.00  0.00    -0.280 N  
HETATM    4  C   UNL     1     -10.074  13.963  68.660  1.00  0.00    -0.203 C  
HETATM    5  C   UNL     1     -11.999  14.249  67.116  1.00  0.00    -0.417 C  
BRANCH   3   6
HETATM    6  C   UNL     1     -10.502  16.194  67.744  1.00  0.00    -0.295 A  
HETATM    7  C   UNL     1      -9.243  16.150  67.120  1.00  0.00    -0.220 A  
HETATM    8  C   UNL     1      -8.606  17.334  66.747  1.00  0.00    -0.249 A  
HETATM    9  O   UNL     1      -7.383  17.334  66.145  1.00  0.00    -0.295 OA 
HETATM   10  C   UNL     1      -9.189  18.569  66.988  1.00  0.00    -0.284 A  
HETATM   11  H   UNL     1      -6.949  18.141  65.892  1.00  0.00     0.000 HD 
HETATM   12  C   UNL     1     -10.421  18.629  67.627  1.00  0.00    -0.468 A  
HETATM   13  C   UNL     1     -11.067  17.452  68.015  1.00  0.00    -0.016 A  
ENDBRANCH   3   6
ENDBRANCH   2   3
TORSDOF 2
ENDMDL
MODEL      133
REMARK 921   NORMALIZED FREE ENERGY PREDICTED BY IDOCK:   -2.91 KCAL/MOL
REMARK 922        TOTAL FREE ENERGY PREDICTED BY IDOCK:   -3.42 KCAL/MOL
REMARK 923 INTER-LIGAND FREE ENERGY PREDICTED BY IDOCK:   -3.29 KCAL/MOL
REMARK 924 INTRA-LIGAND FREE ENERGY PREDICTED BY IDOCK:   -0.13 KCAL/MOL
REMARK 927      BINDING AFFINITY PREDICTED BY RF-SCORE:    0.00 PKD
ROOT
HETATM    1  C   UNL     1      -7.577   9.255  67.973  1.00  0.00    -0.084 C  
HETATM    2  C   UNL     1      -8.794  10.124  67.685  1.00  0.00    -0.125 C  
ENDROOT
BRANCH   2   3
HETATM    3  N   UNL     1      -8.536  11.255  66.667  1.00  0.00    -0.162 N  
HETATM    4  C   UNL     1      -7.602  12.285  67.307  1.00  0.00    -0.152 C  
HETATM    5  C   UNL     1      -7.832  10.658  65.444  1.00  0.00    -0.070 C  
BRANCH   3   6
HETATM    6  C   UNL     1      -9.808  12.003  66.282  1.00  0.00    -0.231 A  
HETATM    7  C   UNL     1     -10.480  12.821  67.206  1.00  0.00    -0.238 A  
HETATM    8  C   UNL     1     -11.679  13.441  66.851  1.00  0.00    -0.389 A  
HETATM    9  O   UNL     1     -12.363  14.237  67.720  1.00  0.00    -0.596 OA 
HETATM   10  C   UNL     1     -12.234  13.260  65.593  1.00  0.00    -0.514 A  
HETATM   11  H   UNL     1     -13.179  14.658  67.477  1.00  0.00     0.000 HD 
HETATM   12  C   UNL     1     -11.594  12.434  64.677  1.00  0.00    -0.400 A  
HETATM   13  C   UNL     1     -10.398  11.798  65.023  1.00  0.00    -0.325 A  
ENDBRANCH   3   6
ENDBRANCH   2   3
TORSDOF 2
ENDMDL
MODEL      134
REMARK 921   NORMALIZED FREE ENERGY PREDICTED BY IDOCK:   -2.91 KCAL/MOL
REMARK 922        TOTAL FREE ENERGY PREDICTED BY IDOCK:   -3.42 KCAL/MOL
REMARK 923 INTER-LIGAND FREE ENERGY PREDICTED BY IDOCK:   -3.28 KCAL/MOL
REMARK 924 INTRA-LIGAND FREE ENERGY PREDICTED BY IDOCK:   -0.14 KCAL/MOL
REMARK 927      BINDING AFFINITY PREDICTED BY RF-SCORE:    0.00 PKD
ROOT
HETATM    1  C   UNL     1      -9.136   7.655  73.661  1.00  0.00    -0.327 C  
HETATM    2  C   UNL     1      -9.150   6.555  72.609  1.00  0.00    -0.131 C  
ENDROOT
BRANCH   2   3
HETATM    3  N   UNL     1     -10.553   6.232  72.051  1.00  0.00    -0.211 N  
HETATM    4  C   UNL     1     -10.393   5.384  70.786  1.00  0.00    -0.251 C  
HETATM    5  C   UNL     1     -11.313   5.406  73.094  1.00  0.00    -0.263 C  
BRANCH   3   6
HETATM    6  C   UNL     1     -11.327   7.480  71.640  1.00  0.00    -0.252 A  
HETATM    7  C   UNL     1     -10.969   8.216  70.497  1.00  0.00    -0.248 A  
HETATM    8  C   UNL     1     -11.649   9.392  70.180  1.00  0.00    -0.078 A  
HETATM    9  O   UNL     1     -11.330  10.136  69.084  1.00  0.00    -0.350 OA 
HETATM   10  C   UNL     1     -12.678   9.864  70.982  1.00  0.00    -0.425 A  
HETATM   11  H   UNL     1     -11.793  10.937  68.869  1.00  0.00     0.000 HD 
HETATM   12  C   UNL     1     -13.026   9.161  72.129  1.00  0.00    -0.498 A  
HETATM   13  C   UNL     1     -12.347   7.986  72.464  1.00  0.00    -0.243 A  
ENDBRANCH   3   6
ENDBRANCH   2   3
TORSDOF 2
ENDMDL
MODEL      135
REMARK 921   NORMALIZED FREE ENERGY PREDICTED BY IDOCK:   -2.90 KCAL/MOL
REMARK 922        TOTAL FREE ENERGY PREDICTED BY IDOCK:   -3.41 KCAL/MOL
REMARK 923 INTER-LIGAND FREE ENERGY PREDICTED BY IDOCK:   -3.57 KCAL/MOL
REMARK 924 INTRA-LIGAND FREE ENERGY PREDICTED BY IDOCK:    0.16 KCAL/MOL
REMARK 927      BINDING AFFINITY PREDICTED BY RF-SCORE:    0.00 PKD
ROOT
HETATM    1  C   UNL     1      -8.267   9.388  70.281  1.00  0.00    -0.194 C  
HETATM    2  C   UNL     1      -8.865  10.322  69.238  1.00  0.00    -0.177 C  
ENDROOT
BRANCH   2   3
HETATM    3  N   UNL     1     -10.342  10.027  68.900  1.00  0.00    -0.191 N  
HETATM    4  C   UNL     1     -11.180  11.259  69.256  1.00  0.00    -0.272 C  
HETATM    5  C   UNL     1     -10.457   9.785  67.391  1.00  0.00    -0.259 C  
BRANCH   3   6
HETATM    6  C   UNL     1     -10.913   8.867  69.707  1.00  0.00    -0.156 A  
HETATM    7  C   UNL     1     -11.460   9.068  70.987  1.00  0.00    -0.358 A  
HETATM    8  C   UNL     1     -11.914   7.981  71.734  1.00  0.00    -0.301 A  
HETATM    9  O   UNL     1     -12.445   8.134  72.979  1.00  0.00    -0.673 OA 
HETATM   10  C   UNL     1     -11.829   6.687  71.241  1.00  0.00    -0.403 A  
HETATM   11  H   UNL     1     -12.754   7.393  73.487  1.00  0.00     0.000 HD 
HETATM   12  C   UNL     1     -11.268   6.469  69.988  1.00  0.00    -0.453 A  
HETATM   13  C   UNL     1     -10.800   7.548  69.233  1.00  0.00    -0.131 A  
ENDBRANCH   3   6
ENDBRANCH   2   3
TORSDOF 2
ENDMDL
MODEL      136
REMARK 921   NORMALIZED FREE ENERGY PREDICTED BY IDOCK:   -2.83 KCAL/MOL
REMARK 922        TOTAL FREE ENERGY PREDICTED BY IDOCK:   -3.33 KCAL/MOL
REMARK 923 INTER-LIGAND FREE ENERGY PREDICTED BY IDOCK:   -3.18 KCAL/MOL
REMARK 924 INTRA-LIGAND FREE ENERGY PREDICTED BY IDOCK:   -0.14 KCAL/MOL
REMARK 927      BINDING AFFINITY PREDICTED BY RF-SCORE:    0.00 PKD
ROOT
HETATM    1  C   UNL     1      -9.471   7.957  73.326  1.00  0.00    -0.350 C  
HETATM    2  C   UNL     1     -10.866   7.394  73.094  1.00  0.00    -0.386 C  
ENDROOT
BRANCH   2   3
HETATM    3  N   UNL     1     -11.195   7.110  71.613  1.00  0.00    -0.240 N  
HETATM    4  C   UNL     1     -12.716   7.020  71.459  1.00  0.00    -0.381 C  
HETATM    5  C   UNL     1     -10.694   8.286  70.769  1.00  0.00    -0.218 C  
BRANCH   3   6
HETATM    6  C   UNL     1     -10.630   5.780  71.127  1.00  0.00    -0.251 A  
HETATM    7  C   UNL     1     -10.320   4.747  72.029  1.00  0.00    -0.247 A  
HETATM    8  C   UNL     1      -9.741   3.565  71.567  1.00  0.00    -0.167 A  
HETATM    9  O   UNL     1      -9.420   2.543  72.409  1.00  0.00    -0.089 OA 
HETATM   10  C   UNL     1      -9.453   3.385  70.222  1.00  0.00    -0.247 A  
HETATM   11  H   UNL     1      -9.025   1.738  72.094  1.00  0.00     0.000 HD 
HETATM   12  C   UNL     1      -9.731   4.407  69.322  1.00  0.00    -0.252 A  
HETATM   13  C   UNL     1     -10.302   5.601  69.772  1.00  0.00    -0.352 A  
ENDBRANCH   3   6
ENDBRANCH   2   3
TORSDOF 2
ENDMDL
MODEL      137
REMARK 921   NORMALIZED FREE ENERGY PREDICTED BY IDOCK:   -2.82 KCAL/MOL
REMARK 922        TOTAL FREE ENERGY PREDICTED BY IDOCK:   -3.31 KCAL/MOL
REMARK 923 INTER-LIGAND FREE ENERGY PREDICTED BY IDOCK:   -3.15 KCAL/MOL
REMARK 924 INTRA-LIGAND FREE ENERGY PREDICTED BY IDOCK:   -0.16 KCAL/MOL
REMARK 927      BINDING AFFINITY PREDICTED BY RF-SCORE:    0.00 PKD
ROOT
HETATM    1  C   UNL     1     -12.240  13.903  69.417  1.00  0.00    -0.338 C  
HETATM    2  C   UNL     1     -11.849  14.626  68.136  1.00  0.00    -0.298 C  
ENDROOT
BRANCH   2   3
HETATM    3  N   UNL     1     -10.675  13.974  67.375  1.00  0.00    -0.281 N  
HETATM    4  C   UNL     1     -10.101  12.846  68.237  1.00  0.00    -0.242 C  
HETATM    5  C   UNL     1     -11.214  13.364  66.078  1.00  0.00    -0.296 C  
BRANCH   3   6
HETATM    6  C   UNL     1      -9.528  14.945  67.114  1.00  0.00    -0.225 A  
HETATM    7  C   UNL     1      -8.209  14.631  67.484  1.00  0.00    -0.203 A  
HETATM    8  C   UNL     1      -7.189  15.564  67.297  1.00  0.00    -0.207 A  
HETATM    9  O   UNL     1      -5.899  15.301  67.647  1.00  0.00    -0.224 OA 
HETATM   10  C   UNL     1      -7.450  16.814  66.754  1.00  0.00    -0.279 A  
HETATM   11  H   UNL     1      -5.204  15.937  67.520  1.00  0.00     0.000 HD 
HETATM   12  C   UNL     1      -8.754  17.147  66.406  1.00  0.00    -0.291 A  
HETATM   13  C   UNL     1      -9.788  16.227  66.598  1.00  0.00    -0.265 A  
ENDBRANCH   3   6
ENDBRANCH   2   3
TORSDOF 2
ENDMDL
MODEL      138
REMARK 921   NORMALIZED FREE ENERGY PREDICTED BY IDOCK:   -2.82 KCAL/MOL
REMARK 922        TOTAL FREE ENERGY PREDICTED BY IDOCK:   -3.31 KCAL/MOL
REMARK 923 INTER-LIGAND FREE ENERGY PREDICTED BY IDOCK:   -3.12 KCAL/MOL
REMARK 924 INTRA-LIGAND FREE ENERGY PREDICTED BY IDOCK:   -0.19 KCAL/MOL
REMARK 927      BINDING AFFINITY PREDICTED BY RF-SCORE:    0.00 PKD
ROOT
HETATM    1  C   UNL     1      -7.141   8.803  68.173  1.00  0.00    -0.078 C  
HETATM    2  C   UNL     1      -8.351   8.670  67.258  1.00  0.00    -0.108 C  
ENDROOT
BRANCH   2   3
HETATM    3  N   UNL     1      -9.703   8.630  68.001  1.00  0.00    -0.153 N  
HETATM    4  C   UNL     1     -10.659   7.716  67.228  1.00  0.00    -0.318 C  
HETATM    5  C   UNL     1      -9.478   8.028  69.391  1.00  0.00    -0.159 C  
BRANCH   3   6
HETATM    6  C   UNL     1     -10.377   9.996  68.075  1.00  0.00    -0.198 A  
HETATM    7  C   UNL     1     -10.891  10.491  69.286  1.00  0.00    -0.284 A  
HETATM    8  C   UNL     1     -11.563  11.713  69.314  1.00  0.00    -0.320 A  
HETATM    9  O   UNL     1     -12.081  12.224  70.467  1.00  0.00    -0.404 OA 
HETATM   10  C   UNL     1     -11.746  12.458  68.159  1.00  0.00    -0.408 A  
HETATM   11  H   UNL     1     -12.539  13.056  70.485  1.00  0.00     0.000 HD 
HETATM   12  C   UNL     1     -11.264  11.971  66.950  1.00  0.00    -0.375 A  
HETATM   13  C   UNL     1     -10.598  10.742  66.904  1.00  0.00    -0.312 A  
ENDBRANCH   3   6
ENDBRANCH   2   3
TORSDOF 2
ENDMDL
MODEL      139
REMARK 921   NORMALIZED FREE ENERGY PREDICTED BY IDOCK:   -2.81 KCAL/MOL
REMARK 922        TOTAL FREE ENERGY PREDICTED BY IDOCK:   -3.31 KCAL/MOL
REMARK 923 INTER-LIGAND FREE ENERGY PREDICTED BY IDOCK:   -3.13 KCAL/MOL
REMARK 924 INTRA-LIGAND FREE ENERGY PREDICTED BY IDOCK:   -0.18 KCAL/MOL
REMARK 927      BINDING AFFINITY PREDICTED BY RF-SCORE:    0.00 PKD
ROOT
HETATM    1  C   UNL     1      -7.634  17.370  67.867  1.00  0.00    -0.196 C  
HETATM    2  C   UNL     1      -7.507  16.021  67.174  1.00  0.00    -0.218 C  
ENDROOT
BRANCH   2   3
HETATM    3  N   UNL     1      -7.984  14.825  68.027  1.00  0.00    -0.127 N  
HETATM    4  C   UNL     1      -6.969  13.687  67.882  1.00  0.00    -0.153 C  
HETATM    5  C   UNL     1      -8.018  15.258  69.496  1.00  0.00    -0.199 C  
BRANCH   3   6
HETATM    6  C   UNL     1      -9.327  14.269  67.565  1.00  0.00    -0.199 A  
HETATM    7  C   UNL     1      -9.796  14.488  66.258  1.00  0.00    -0.322 A  
HETATM    8  C   UNL     1     -11.058  14.028  65.881  1.00  0.00    -0.301 A  
HETATM    9  O   UNL     1     -11.550  14.224  64.626  1.00  0.00    -0.378 OA 
HETATM   10  C   UNL     1     -11.875  13.358  66.780  1.00  0.00    -0.452 A  
HETATM   11  H   UNL     1     -12.410  13.911  64.370  1.00  0.00     0.000 HD 
HETATM   12  C   UNL     1     -11.435  13.157  68.083  1.00  0.00    -0.349 A  
HETATM   13  C   UNL     1     -10.178  13.622  68.478  1.00  0.00    -0.234 A  
ENDBRANCH   3   6
ENDBRANCH   2   3
TORSDOF 2
ENDMDL
MODEL      140
REMARK 921   NORMALIZED FREE ENERGY PREDICTED BY IDOCK:   -2.81 KCAL/MOL
REMARK 922        TOTAL FREE ENERGY PREDICTED BY IDOCK:   -3.30 KCAL/MOL
REMARK 923 INTER-LIGAND FREE ENERGY PREDICTED BY IDOCK:   -3.13 KCAL/MOL
REMARK 924 INTRA-LIGAND FREE ENERGY PREDICTED BY IDOCK:   -0.17 KCAL/MOL
REMARK 927      BINDING AFFINITY PREDICTED BY RF-SCORE:    0.00 PKD
ROOT
HETATM    1  C   UNL     1      -8.664  11.386  68.289  1.00  0.00    -0.160 C  
HETATM    2  C   UNL     1      -8.736   9.882  68.515  1.00  0.00    -0.121 C  
ENDROOT
BRANCH   2   3
HETATM    3  N   UNL     1     -10.152   9.359  68.837  1.00  0.00    -0.183 N  
HETATM    4  C   UNL     1     -11.156  10.493  68.608  1.00  0.00    -0.267 C  
HETATM    5  C   UNL     1     -10.482   8.219  67.868  1.00  0.00    -0.198 C  
BRANCH   3   6
HETATM    6  C   UNL     1     -10.307   8.931  70.293  1.00  0.00    -0.206 A  
HETATM    7  C   UNL     1      -9.236   9.024  71.198  1.00  0.00    -0.326 A  
HETATM    8  C   UNL     1      -9.382   8.562  72.506  1.00  0.00    -0.246 A  
HETATM    9  O   UNL     1      -8.366   8.629  73.411  1.00  0.00    -0.398 OA 
HETATM   10  C   UNL     1     -10.574   8.000  72.939  1.00  0.00    -0.399 A  
HETATM   11  H   UNL     1      -8.467   8.315  74.302  1.00  0.00     0.000 HD 
HETATM   12  C   UNL     1     -11.634   7.879  72.048  1.00  0.00    -0.357 A  
HETATM   13  C   UNL     1     -11.498   8.327  70.732  1.00  0.00    -0.268 A  
ENDBRANCH   3   6
ENDBRANCH   2   3
TORSDOF 2
ENDMDL
MODEL      141
REMARK 921   NORMALIZED FREE ENERGY PREDICTED BY IDOCK:   -2.81 KCAL/MOL
REMARK 922        TOTAL FREE ENERGY PREDICTED BY IDOCK:   -3.30 KCAL/MOL
REMARK 923 INTER-LIGAND FREE ENERGY PREDICTED BY IDOCK:   -3.25 KCAL/MOL
REMARK 924 INTRA-LIGAND FREE ENERGY PREDICTED BY IDOCK:   -0.05 KCAL/MOL
REMARK 927      BINDING AFFINITY PREDICTED BY RF-SCORE:    0.00 PKD
ROOT
HETATM    1  C   UNL     1     -10.446  19.296  65.921  1.00  0.00    -0.534 C  
HETATM    2  C   UNL     1      -9.749  20.035  67.054  1.00  0.00    -0.421 C  
ENDROOT
BRANCH   2   3
HETATM    3  N   UNL     1      -8.542  19.282  67.652  1.00  0.00    -0.290 N  
HETATM    4  C   UNL     1      -7.608  18.871  66.510  1.00  0.00    -0.251 C  
HETATM    5  C   UNL     1      -7.782  20.238  68.577  1.00  0.00     0.042 C  
BRANCH   3   6
HETATM    6  C   UNL     1      -8.943  17.996  68.368  1.00  0.00    -0.279 A  
HETATM    7  C   UNL     1      -8.098  16.873  68.378  1.00  0.00    -0.237 A  
HETATM    8  C   UNL     1      -8.516  15.687  68.980  1.00  0.00    -0.231 A  
HETATM    9  O   UNL     1      -7.729  14.575  69.006  1.00  0.00    -0.130 OA 
HETATM   10  C   UNL     1      -9.767  15.585  69.571  1.00  0.00    -0.282 A  
HETATM   11  H   UNL     1      -8.015  13.767  69.416  1.00  0.00     0.000 HD 
HETATM   12  C   UNL     1     -10.624  16.679  69.548  1.00  0.00    -0.308 A  
HETATM   13  C   UNL     1     -10.222  17.871  68.938  1.00  0.00    -0.331 A  
ENDBRANCH   3   6
ENDBRANCH   2   3
TORSDOF 2
ENDMDL
MODEL      142
REMARK 921   NORMALIZED FREE ENERGY PREDICTED BY IDOCK:   -2.81 KCAL/MOL
REMARK 922        TOTAL FREE ENERGY PREDICTED BY IDOCK:   -3.30 KCAL/MOL
REMARK 923 INTER-LIGAND FREE ENERGY PREDICTED BY IDOCK:   -3.12 KCAL/MOL
REMARK 924 INTRA-LIGAND FREE ENERGY PREDICTED BY IDOCK:   -0.18 KCAL/MOL
REMARK 927      BINDING AFFINITY PREDICTED BY RF-SCORE:    0.00 PKD
ROOT
HETATM    1  C   UNL     1      -8.999  11.010  65.704  1.00  0.00    -0.212 C  
HETATM    2  C   UNL     1     -10.366  11.676  65.776  1.00  0.00    -0.249 C  
ENDROOT
BRANCH   2   3
HETATM    3  N   UNL     1     -10.461  12.814  66.816  1.00  0.00    -0.240 N  
HETATM    4  C   UNL     1     -11.811  12.710  67.532  1.00  0.00    -0.334 C  
HETATM    5  C   UNL     1      -9.349  12.620  67.851  1.00  0.00    -0.204 C  
BRANCH   3   6
HETATM    6  C   UNL     1     -10.413  14.199  66.181  1.00  0.00    -0.296 A  
HETATM    7  C   UNL     1      -9.459  15.152  66.580  1.00  0.00    -0.285 A  
HETATM    8  C   UNL     1      -9.479  16.435  66.033  1.00  0.00    -0.310 A  
HETATM    9  O   UNL     1      -8.575  17.387  66.399  1.00  0.00    -0.248 OA 
HETATM   10  C   UNL     1     -10.435  16.801  65.098  1.00  0.00    -0.070 A  
HETATM   11  H   UNL     1      -8.590  18.261  66.026  1.00  0.00     0.000 HD 
HETATM   12  C   UNL     1     -11.400  15.878  64.712  1.00  0.00    -0.314 A  
HETATM   13  C   UNL     1     -11.399  14.592  65.259  1.00  0.00    -0.354 A  
ENDBRANCH   3   6
ENDBRANCH   2   3
TORSDOF 2
ENDMDL
MODEL      143
REMARK 921   NORMALIZED FREE ENERGY PREDICTED BY IDOCK:   -2.79 KCAL/MOL
REMARK 922        TOTAL FREE ENERGY PREDICTED BY IDOCK:   -3.28 KCAL/MOL
REMARK 923 INTER-LIGAND FREE ENERGY PREDICTED BY IDOCK:   -3.12 KCAL/MOL
REMARK 924 INTRA-LIGAND FREE ENERGY PREDICTED BY IDOCK:   -0.16 KCAL/MOL
REMARK 927      BINDING AFFINITY PREDICTED BY RF-SCORE:    0.00 PKD
ROOT
HETATM    1  C   UNL     1     -10.192   8.865  71.948  1.00  0.00    -0.403 C  
HETATM    2  C   UNL     1     -10.821   8.083  70.804  1.00  0.00    -0.232 C  
ENDROOT
BRANCH   2   3
HETATM    3  N   UNL     1     -10.069   6.786  70.437  1.00  0.00    -0.183 N  
HETATM    4  C   UNL     1      -8.702   6.801  71.128  1.00  0.00    -0.136 C  
HETATM    5  C   UNL     1     -10.867   5.593  70.972  1.00  0.00    -0.219 C  
BRANCH   3   6
HETATM    6  C   UNL     1      -9.796   6.664  68.941  1.00  0.00    -0.139 A  
HETATM    7  C   UNL     1     -10.759   6.133  68.066  1.00  0.00    -0.370 A  
HETATM    8  C   UNL     1     -10.461   5.968  66.713  1.00  0.00    -0.267 A  
HETATM    9  O   UNL     1     -11.365   5.452  65.834  1.00  0.00    -0.772 OA 
HETATM   10  C   UNL     1      -9.217   6.313  66.206  1.00  0.00    -0.165 A  
HETATM   11  H   UNL     1     -11.160   5.340  64.913  1.00  0.00     0.000 HD 
HETATM   12  C   UNL     1      -8.246   6.816  67.064  1.00  0.00    -0.113 A  
HETATM   13  C   UNL     1      -8.527   6.976  68.424  1.00  0.00    -0.123 A  
ENDBRANCH   3   6
ENDBRANCH   2   3
TORSDOF 2
ENDMDL
MODEL      144
REMARK 921   NORMALIZED FREE ENERGY PREDICTED BY IDOCK:   -2.77 KCAL/MOL
REMARK 922        TOTAL FREE ENERGY PREDICTED BY IDOCK:   -3.27 KCAL/MOL
REMARK 923 INTER-LIGAND FREE ENERGY PREDICTED BY IDOCK:   -3.08 KCAL/MOL
REMARK 924 INTRA-LIGAND FREE ENERGY PREDICTED BY IDOCK:   -0.19 KCAL/MOL
REMARK 927      BINDING AFFINITY PREDICTED BY RF-SCORE:    0.00 PKD
ROOT
HETATM    1  C   UNL     1     -11.653  15.281  69.482  1.00  0.00    -0.339 C  
HETATM    2  C   UNL     1     -11.713  15.089  67.973  1.00  0.00    -0.298 C  
ENDROOT
BRANCH   2   3
HETATM    3  N   UNL     1     -10.367  14.693  67.331  1.00  0.00    -0.241 N  
HETATM    4  C   UNL     1     -10.328  15.238  65.901  1.00  0.00    -0.329 C  
HETATM    5  C   UNL     1      -9.236  15.350  68.129  1.00  0.00    -0.186 C  
BRANCH   3   6
HETATM    6  C   UNL     1     -10.185  13.182  67.225  1.00  0.00    -0.243 A  
HETATM    7  C   UNL     1      -8.924  12.616  66.966  1.00  0.00    -0.216 A  
HETATM    8  C   UNL     1      -8.796  11.236  66.805  1.00  0.00    -0.170 A  
HETATM    9  O   UNL     1      -7.594  10.650  66.549  1.00  0.00    -0.121 OA 
HETATM   10  C   UNL     1      -9.899  10.399  66.887  1.00  0.00    -0.236 A  
HETATM   11  H   UNL     1      -7.507   9.710  66.439  1.00  0.00     0.000 HD 
HETATM   12  C   UNL     1     -11.156  10.947  67.118  1.00  0.00    -0.308 A  
HETATM   13  C   UNL     1     -11.301  12.329  67.270  1.00  0.00    -0.392 A  
ENDBRANCH   3   6
ENDBRANCH   2   3
TORSDOF 2
ENDMDL
MODEL      145
REMARK 921   NORMALIZED FREE ENERGY PREDICTED BY IDOCK:   -2.77 KCAL/MOL
REMARK 922        TOTAL FREE ENERGY PREDICTED BY IDOCK:   -3.26 KCAL/MOL
REMARK 923 INTER-LIGAND FREE ENERGY PREDICTED BY IDOCK:   -3.08 KCAL/MOL
REMARK 924 INTRA-LIGAND FREE ENERGY PREDICTED BY IDOCK:   -0.19 KCAL/MOL
REMARK 927      BINDING AFFINITY PREDICTED BY RF-SCORE:    0.00 PKD
ROOT
HETATM    1  C   UNL     1     -12.005  13.659  64.186  1.00  0.00    -0.488 C  
HETATM    2  C   UNL     1     -10.783  14.290  64.838  1.00  0.00    -0.432 C  
ENDROOT
BRANCH   2   3
HETATM    3  N   UNL     1     -10.823  14.299  66.381  1.00  0.00    -0.303 N  
HETATM    4  C   UNL     1     -10.385  15.681  66.873  1.00  0.00    -0.293 C  
HETATM    5  C   UNL     1     -12.269  14.063  66.831  1.00  0.00    -0.380 C  
BRANCH   3   6
HETATM    6  C   UNL     1      -9.862  13.293  67.004  1.00  0.00    -0.242 A  
HETATM    7  C   UNL     1      -8.523  13.631  67.269  1.00  0.00    -0.203 A  
HETATM    8  C   UNL     1      -7.646  12.672  67.775  1.00  0.00    -0.141 A  
HETATM    9  O   UNL     1      -6.340  12.959  68.040  1.00  0.00    -0.081 OA 
HETATM   10  C   UNL     1      -8.066  11.373  68.019  1.00  0.00    -0.134 A  
HETATM   11  H   UNL     1      -5.743  12.305  68.384  1.00  0.00     0.000 HD 
HETATM   12  C   UNL     1      -9.380  11.017  67.738  1.00  0.00    -0.162 A  
HETATM   13  C   UNL     1     -10.267  11.964  67.221  1.00  0.00    -0.220 A  
ENDBRANCH   3   6
ENDBRANCH   2   3
TORSDOF 2
ENDMDL
MODEL      146
REMARK 921   NORMALIZED FREE ENERGY PREDICTED BY IDOCK:   -2.77 KCAL/MOL
REMARK 922        TOTAL FREE ENERGY PREDICTED BY IDOCK:   -3.26 KCAL/MOL
REMARK 923 INTER-LIGAND FREE ENERGY PREDICTED BY IDOCK:   -3.14 KCAL/MOL
REMARK 924 INTRA-LIGAND FREE ENERGY PREDICTED BY IDOCK:   -0.12 KCAL/MOL
REMARK 927      BINDING AFFINITY PREDICTED BY RF-SCORE:    0.00 PKD
ROOT
HETATM    1  C   UNL     1     -11.942  13.136  67.844  1.00  0.00    -0.347 C  
HETATM    2  C   UNL     1     -11.995  12.543  66.443  1.00  0.00    -0.318 C  
ENDROOT
BRANCH   2   3
HETATM    3  N   UNL     1     -10.827  12.972  65.531  1.00  0.00    -0.275 N  
HETATM    4  C   UNL     1      -9.569  12.208  65.955  1.00  0.00    -0.231 C  
HETATM    5  C   UNL     1     -11.166  12.579  64.089  1.00  0.00    -0.382 C  
BRANCH   3   6
HETATM    6  C   UNL     1     -10.495  14.455  65.653  1.00  0.00    -0.334 A  
HETATM    7  C   UNL     1      -9.341  14.890  66.329  1.00  0.00    -0.329 A  
HETATM    8  C   UNL     1      -9.096  16.254  66.487  1.00  0.00    -0.269 A  
HETATM    9  O   UNL     1      -7.992  16.716  67.140  1.00  0.00    -0.160 OA 
HETATM   10  C   UNL     1      -9.978  17.204  65.994  1.00  0.00    -0.270 A  
HETATM   11  H   UNL     1      -7.826  17.645  67.248  1.00  0.00     0.000 HD 
HETATM   12  C   UNL     1     -11.135  16.789  65.346  1.00  0.00     0.054 A  
HETATM   13  C   UNL     1     -11.400  15.425  65.189  1.00  0.00    -0.281 A  
ENDBRANCH   3   6
ENDBRANCH   2   3
TORSDOF 2
ENDMDL
MODEL      147
REMARK 921   NORMALIZED FREE ENERGY PREDICTED BY IDOCK:   -2.76 KCAL/MOL
REMARK 922        TOTAL FREE ENERGY PREDICTED BY IDOCK:   -3.25 KCAL/MOL
REMARK 923 INTER-LIGAND FREE ENERGY PREDICTED BY IDOCK:   -3.10 KCAL/MOL
REMARK 924 INTRA-LIGAND FREE ENERGY PREDICTED BY IDOCK:   -0.15 KCAL/MOL
REMARK 927      BINDING AFFINITY PREDICTED BY RF-SCORE:    0.00 PKD
ROOT
HETATM    1  C   UNL     1      -9.947   4.826  66.370  1.00  0.00    -0.264 C  
HETATM    2  C   UNL     1      -9.856   6.143  67.129  1.00  0.00    -0.141 C  
ENDROOT
BRANCH   2   3
HETATM    3  N   UNL     1      -9.452   5.992  68.611  1.00  0.00    -0.123 N  
HETATM    4  C   UNL     1      -9.671   4.536  69.032  1.00  0.00    -0.165 C  
HETATM    5  C   UNL     1      -7.960   6.313  68.743  1.00  0.00    -0.102 C  
BRANCH   3   6
HETATM    6  C   UNL     1     -10.303   6.846  69.545  1.00  0.00    -0.207 A  
HETATM    7  C   UNL     1     -11.175   6.258  70.477  1.00  0.00    -0.420 A  
HETATM    8  C   UNL     1     -11.993   7.060  71.273  1.00  0.00    -0.346 A  
HETATM    9  O   UNL     1     -12.856   6.529  72.184  1.00  0.00    -0.542 OA 
HETATM   10  C   UNL     1     -11.972   8.442  71.159  1.00  0.00    -0.301 A  
HETATM   11  H   UNL     1     -13.413   7.076  72.725  1.00  0.00     0.000 HD 
HETATM   12  C   UNL     1     -11.133   9.037  70.224  1.00  0.00    -0.263 A  
HETATM   13  C   UNL     1     -10.315   8.245  69.413  1.00  0.00    -0.223 A  
ENDBRANCH   3   6
ENDBRANCH   2   3
TORSDOF 2
ENDMDL
MODEL      148
REMARK 921   NORMALIZED FREE ENERGY PREDICTED BY IDOCK:   -2.76 KCAL/MOL
REMARK 922        TOTAL FREE ENERGY PREDICTED BY IDOCK:   -3.24 KCAL/MOL
REMARK 923 INTER-LIGAND FREE ENERGY PREDICTED BY IDOCK:   -3.10 KCAL/MOL
REMARK 924 INTRA-LIGAND FREE ENERGY PREDICTED BY IDOCK:   -0.15 KCAL/MOL
REMARK 927      BINDING AFFINITY PREDICTED BY RF-SCORE:    0.00 PKD
ROOT
HETATM    1  C   UNL     1      -6.164  17.375  69.136  1.00  0.00    -0.228 C  
HETATM    2  C   UNL     1      -7.611  17.648  68.751  1.00  0.00    -0.253 C  
ENDROOT
BRANCH   2   3
HETATM    3  N   UNL     1      -7.943  17.334  67.276  1.00  0.00    -0.183 N  
HETATM    4  C   UNL     1      -8.831  18.454  66.726  1.00  0.00    -0.278 C  
HETATM    5  C   UNL     1      -6.636  17.318  66.476  1.00  0.00    -0.248 C  
BRANCH   3   6
HETATM    6  C   UNL     1      -8.728  16.038  67.111  1.00  0.00    -0.190 A  
HETATM    7  C   UNL     1      -9.541  15.817  65.985  1.00  0.00    -0.388 A  
HETATM    8  C   UNL     1     -10.303  14.652  65.890  1.00  0.00    -0.319 A  
HETATM    9  O   UNL     1     -11.107  14.404  64.818  1.00  0.00    -0.378 OA 
HETATM   10  C   UNL     1     -10.283  13.698  66.896  1.00  0.00    -0.261 A  
HETATM   11  H   UNL     1     -11.626  13.610  64.754  1.00  0.00     0.000 HD 
HETATM   12  C   UNL     1      -9.504  13.914  68.026  1.00  0.00    -0.208 A  
HETATM   13  C   UNL     1      -8.744  15.081  68.140  1.00  0.00    -0.165 A  
ENDBRANCH   3   6
ENDBRANCH   2   3
TORSDOF 2
ENDMDL
MODEL      149
REMARK 921   NORMALIZED FREE ENERGY PREDICTED BY IDOCK:   -2.74 KCAL/MOL
REMARK 922        TOTAL FREE ENERGY PREDICTED BY IDOCK:   -3.23 KCAL/MOL
REMARK 923 INTER-LIGAND FREE ENERGY PREDICTED BY IDOCK:   -3.06 KCAL/MOL
REMARK 924 INTRA-LIGAND FREE ENERGY PREDICTED BY IDOCK:   -0.17 KCAL/MOL
REMARK 927      BINDING AFFINITY PREDICTED BY RF-SCORE:    0.00 PKD
ROOT
HETATM    1  C   UNL     1     -11.997   9.270  71.528  1.00  0.00    -0.439 C  
HETATM    2  C   UNL     1     -10.555   8.895  71.838  1.00  0.00    -0.349 C  
ENDROOT
BRANCH   2   3
HETATM    3  N   UNL     1      -9.629   8.865  70.603  1.00  0.00    -0.197 N  
HETATM    4  C   UNL     1     -10.041   9.996  69.657  1.00  0.00    -0.236 C  
HETATM    5  C   UNL     1      -8.192   9.123  71.066  1.00  0.00    -0.137 C  
BRANCH   3   6
HETATM    6  C   UNL     1      -9.748   7.570  69.808  1.00  0.00    -0.171 A  
HETATM    7  C   UNL     1     -10.616   7.467  68.707  1.00  0.00    -0.189 A  
HETATM    8  C   UNL     1     -10.758   6.251  68.038  1.00  0.00    -0.295 A  
HETATM    9  O   UNL     1     -11.593   6.109  66.971  1.00  0.00    -0.524 OA 
HETATM   10  C   UNL     1     -10.058   5.124  68.444  1.00  0.00    -0.205 A  
HETATM   11  H   UNL     1     -11.689   5.281  66.516  1.00  0.00     0.000 HD 
HETATM   12  C   UNL     1      -9.215   5.203  69.545  1.00  0.00    -0.163 A  
HETATM   13  C   UNL     1      -9.072   6.412  70.232  1.00  0.00    -0.155 A  
ENDBRANCH   3   6
ENDBRANCH   2   3
TORSDOF 2
ENDMDL
MODEL      150
REMARK 921   NORMALIZED FREE ENERGY PREDICTED BY IDOCK:   -2.74 KCAL/MOL
REMARK 922        TOTAL FREE ENERGY PREDICTED BY IDOCK:   -3.23 KCAL/MOL
REMARK 923 INTER-LIGAND FREE ENERGY PREDICTED BY IDOCK:   -3.01 KCAL/MOL
REMARK 924 INTRA-LIGAND FREE ENERGY PREDICTED BY IDOCK:   -0.22 KCAL/MOL
REMARK 927      BINDING AFFINITY PREDICTED BY RF-SCORE:    0.00 PKD
ROOT
HETATM    1  C   UNL     1      -8.247   7.910  67.960  1.00  0.00    -0.127 C  
HETATM    2  C   UNL     1      -9.652   8.166  68.489  1.00  0.00    -0.148 C  
ENDROOT
BRANCH   2   3
HETATM    3  N   UNL     1      -9.797   9.480  69.286  1.00  0.00    -0.173 N  
HETATM    4  C   UNL     1     -11.093   9.417  70.099  1.00  0.00    -0.242 C  
HETATM    5  C   UNL     1      -8.621   9.590  70.261  1.00  0.00    -0.226 C  
BRANCH   3   6
HETATM    6  C   UNL     1      -9.908  10.707  68.387  1.00  0.00    -0.161 A  
HETATM    7  C   UNL     1     -11.067  10.954  67.631  1.00  0.00    -0.376 A  
HETATM    8  C   UNL     1     -11.117  12.046  66.764  1.00  0.00    -0.305 A  
HETATM    9  O   UNL     1     -12.220  12.316  66.010  1.00  0.00    -0.646 OA 
HETATM   10  C   UNL     1     -10.034  12.901  66.624  1.00  0.00    -0.251 A  
HETATM   11  H   UNL     1     -12.253  13.060  65.420  1.00  0.00     0.000 HD 
HETATM   12  C   UNL     1      -8.873  12.655  67.346  1.00  0.00    -0.189 A  
HETATM   13  C   UNL     1      -8.804  11.558  68.210  1.00  0.00    -0.166 A  
ENDBRANCH   3   6
ENDBRANCH   2   3
TORSDOF 2
ENDMDL
MODEL      151
REMARK 921   NORMALIZED FREE ENERGY PREDICTED BY IDOCK:   -2.73 KCAL/MOL
REMARK 922        TOTAL FREE ENERGY PREDICTED BY IDOCK:   -3.21 KCAL/MOL
REMARK 923 INTER-LIGAND FREE ENERGY PREDICTED BY IDOCK:   -3.07 KCAL/MOL
REMARK 924 INTRA-LIGAND FREE ENERGY PREDICTED BY IDOCK:   -0.14 KCAL/MOL
REMARK 927      BINDING AFFINITY PREDICTED BY RF-SCORE:    0.00 PKD
ROOT
HETATM    1  C   UNL     1     -12.392  13.688  64.779  1.00  0.00    -0.429 C  
HETATM    2  C   UNL     1     -10.885  13.879  64.863  1.00  0.00    -0.405 C  
ENDROOT
BRANCH   2   3
HETATM    3  N   UNL     1     -10.360  14.146  66.290  1.00  0.00    -0.285 N  
HETATM    4  C   UNL     1      -9.335  15.282  66.229  1.00  0.00    -0.310 C  
HETATM    5  C   UNL     1     -11.534  14.601  67.163  1.00  0.00    -0.368 C  
BRANCH   3   6
HETATM    6  C   UNL     1      -9.638  12.943  66.889  1.00  0.00    -0.240 A  
HETATM    7  C   UNL     1     -10.128  11.637  66.712  1.00  0.00    -0.242 A  
HETATM    8  C   UNL     1      -9.487  10.561  67.327  1.00  0.00    -0.158 A  
HETATM    9  O   UNL     1      -9.934   9.281  67.185  1.00  0.00    -0.186 OA 
HETATM   10  C   UNL     1      -8.370  10.752  68.125  1.00  0.00    -0.120 A  
HETATM   11  H   UNL     1      -9.498   8.548  67.604  1.00  0.00     0.000 HD 
HETATM   12  C   UNL     1      -7.889  12.040  68.329  1.00  0.00    -0.145 A  
HETATM   13  C   UNL     1      -8.526  13.129  67.728  1.00  0.00    -0.185 A  
ENDBRANCH   3   6
ENDBRANCH   2   3
TORSDOF 2
ENDMDL
MODEL      152
REMARK 921   NORMALIZED FREE ENERGY PREDICTED BY IDOCK:   -2.71 KCAL/MOL
REMARK 922        TOTAL FREE ENERGY PREDICTED BY IDOCK:   -3.20 KCAL/MOL
REMARK 923 INTER-LIGAND FREE ENERGY PREDICTED BY IDOCK:   -3.03 KCAL/MOL
REMARK 924 INTRA-LIGAND FREE ENERGY PREDICTED BY IDOCK:   -0.17 KCAL/MOL
REMARK 927      BINDING AFFINITY PREDICTED BY RF-SCORE:    0.00 PKD
ROOT
HETATM    1  C   UNL     1     -10.738  17.180  68.185  1.00  0.00    -0.366 C  
HETATM    2  C   UNL     1      -9.914  16.313  67.243  1.00  0.00    -0.250 C  
ENDROOT
BRANCH   2   3
HETATM    3  N   UNL     1      -8.907  15.386  67.957  1.00  0.00    -0.164 N  
HETATM    4  C   UNL     1      -7.530  15.575  67.314  1.00  0.00    -0.223 C  
HETATM    5  C   UNL     1      -8.816  15.807  69.427  1.00  0.00    -0.237 C  
BRANCH   3   6
HETATM    6  C   UNL     1      -9.256  13.909  67.808  1.00  0.00    -0.197 A  
HETATM    7  C   UNL     1     -10.575  13.494  67.554  1.00  0.00    -0.247 A  
HETATM    8  C   UNL     1     -10.880  12.134  67.490  1.00  0.00    -0.243 A  
HETATM    9  O   UNL     1     -12.147  11.691  67.251  1.00  0.00    -0.595 OA 
HETATM   10  C   UNL     1      -9.902  11.169  67.682  1.00  0.00    -0.191 A  
HETATM   11  H   UNL     1     -12.354  10.765  67.208  1.00  0.00     0.000 HD 
HETATM   12  C   UNL     1      -8.599  11.565  67.958  1.00  0.00    -0.150 A  
HETATM   13  C   UNL     1      -8.280  12.923  68.036  1.00  0.00    -0.168 A  
ENDBRANCH   3   6
ENDBRANCH   2   3
TORSDOF 2
ENDMDL
MODEL      153
REMARK 921   NORMALIZED FREE ENERGY PREDICTED BY IDOCK:   -2.71 KCAL/MOL
REMARK 922        TOTAL FREE ENERGY PREDICTED BY IDOCK:   -3.20 KCAL/MOL
REMARK 923 INTER-LIGAND FREE ENERGY PREDICTED BY IDOCK:   -3.03 KCAL/MOL
REMARK 924 INTRA-LIGAND FREE ENERGY PREDICTED BY IDOCK:   -0.16 KCAL/MOL
REMARK 927      BINDING AFFINITY PREDICTED BY RF-SCORE:    0.00 PKD
ROOT
HETATM    1  C   UNL     1     -11.251  16.269  69.699  1.00  0.00    -0.311 C  
HETATM    2  C   UNL     1     -10.148  15.847  68.739  1.00  0.00    -0.221 C  
ENDROOT
BRANCH   2   3
HETATM    3  N   UNL     1      -9.968  16.788  67.530  1.00  0.00    -0.260 N  
HETATM    4  C   UNL     1     -10.454  16.065  66.271  1.00  0.00    -0.320 C  
HETATM    5  C   UNL     1     -10.843  18.027  67.743  1.00  0.00    -0.228 C  
BRANCH   3   6
HETATM    6  C   UNL     1      -8.509  17.158  67.280  1.00  0.00    -0.196 A  
HETATM    7  C   UNL     1      -8.110  17.785  66.087  1.00  0.00    -0.216 A  
HETATM    8  C   UNL     1      -6.760  18.050  65.854  1.00  0.00    -0.288 A  
HETATM    9  O   UNL     1      -6.333  18.651  64.708  1.00  0.00    -0.471 OA 
HETATM   10  C   UNL     1      -5.789  17.698  66.779  1.00  0.00    -0.203 A  
HETATM   11  H   UNL     1      -5.413  18.831  64.549  1.00  0.00     0.000 HD 
HETATM   12  C   UNL     1      -6.166  17.056  67.953  1.00  0.00    -0.147 A  
HETATM   13  C   UNL     1      -7.514  16.773  68.195  1.00  0.00    -0.172 A  
ENDBRANCH   3   6
ENDBRANCH   2   3
TORSDOF 2
ENDMDL
MODEL      154
REMARK 921   NORMALIZED FREE ENERGY PREDICTED BY IDOCK:   -2.71 KCAL/MOL
REMARK 922        TOTAL FREE ENERGY PREDICTED BY IDOCK:   -3.19 KCAL/MOL
REMARK 923 INTER-LIGAND FREE ENERGY PREDICTED BY IDOCK:   -3.01 KCAL/MOL
REMARK 924 INTRA-LIGAND FREE ENERGY PREDICTED BY IDOCK:   -0.18 KCAL/MOL
REMARK 927      BINDING AFFINITY PREDICTED BY RF-SCORE:    0.00 PKD
ROOT
HETATM    1  C   UNL     1      -9.443   9.991  69.424  1.00  0.00    -0.237 C  
HETATM    2  C   UNL     1     -10.303   9.588  68.235  1.00  0.00    -0.207 C  
ENDROOT
BRANCH   2   3
HETATM    3  N   UNL     1      -9.610   8.621  67.252  1.00  0.00    -0.158 N  
HETATM    4  C   UNL     1      -8.314   8.117  67.894  1.00  0.00    -0.129 C  
HETATM    5  C   UNL     1     -10.532   7.420  67.018  1.00  0.00    -0.333 C  
BRANCH   3   6
HETATM    6  C   UNL     1      -9.211   9.295  65.943  1.00  0.00    -0.219 A  
HETATM    7  C   UNL     1     -10.156   9.973  65.155  1.00  0.00    -0.268 A  
HETATM    8  C   UNL     1      -9.781  10.523  63.929  1.00  0.00    -0.325 A  
HETATM    9  O   UNL     1     -10.668  11.183  63.134  1.00  0.00    -0.735 OA 
HETATM   10  C   UNL     1      -8.481  10.406  63.459  1.00  0.00    -0.171 A  
HETATM   11  H   UNL     1     -10.412  11.556  62.298  1.00  0.00     0.000 HD 
HETATM   12  C   UNL     1      -7.541   9.717  64.215  1.00  0.00    -0.128 A  
HETATM   13  C   UNL     1      -7.906   9.152  65.441  1.00  0.00    -0.100 A  
ENDBRANCH   3   6
ENDBRANCH   2   3
TORSDOF 2
ENDMDL
MODEL      155
REMARK 921   NORMALIZED FREE ENERGY PREDICTED BY IDOCK:   -2.69 KCAL/MOL
REMARK 922        TOTAL FREE ENERGY PREDICTED BY IDOCK:   -3.17 KCAL/MOL
REMARK 923 INTER-LIGAND FREE ENERGY PREDICTED BY IDOCK:   -3.04 KCAL/MOL
REMARK 924 INTRA-LIGAND FREE ENERGY PREDICTED BY IDOCK:   -0.14 KCAL/MOL
REMARK 927      BINDING AFFINITY PREDICTED BY RF-SCORE:    0.00 PKD
ROOT
HETATM    1  C   UNL     1      -7.811   6.703  67.551  1.00  0.00    -0.111 C  
HETATM    2  C   UNL     1      -8.485   7.795  66.732  1.00  0.00    -0.126 C  
ENDROOT
BRANCH   2   3
HETATM    3  N   UNL     1      -9.041   8.964  67.573  1.00  0.00    -0.133 N  
HETATM    4  C   UNL     1      -9.933   8.391  68.677  1.00  0.00    -0.184 C  
HETATM    5  C   UNL     1      -7.864   9.691  68.233  1.00  0.00    -0.085 C  
BRANCH   3   6
HETATM    6  C   UNL     1      -9.913   9.914  66.760  1.00  0.00    -0.214 A  
HETATM    7  C   UNL     1      -9.852   9.938  65.356  1.00  0.00    -0.384 A  
HETATM    8  C   UNL     1     -10.610  10.864  64.638  1.00  0.00    -0.262 A  
HETATM    9  O   UNL     1     -10.574  10.923  63.278  1.00  0.00    -0.646 OA 
HETATM   10  C   UNL     1     -11.427  11.778  65.286  1.00  0.00    -0.250 A  
HETATM   11  H   UNL     1     -11.091  11.554  62.789  1.00  0.00     0.000 HD 
HETATM   12  C   UNL     1     -11.479  11.783  66.675  1.00  0.00    -0.337 A  
HETATM   13  C   UNL     1     -10.717  10.868  67.408  1.00  0.00    -0.305 A  
ENDBRANCH   3   6
ENDBRANCH   2   3
TORSDOF 2
ENDMDL
MODEL      156
REMARK 921   NORMALIZED FREE ENERGY PREDICTED BY IDOCK:   -2.66 KCAL/MOL
REMARK 922        TOTAL FREE ENERGY PREDICTED BY IDOCK:   -3.13 KCAL/MOL
REMARK 923 INTER-LIGAND FREE ENERGY PREDICTED BY IDOCK:   -2.99 KCAL/MOL
REMARK 924 INTRA-LIGAND FREE ENERGY PREDICTED BY IDOCK:   -0.15 KCAL/MOL
REMARK 927      BINDING AFFINITY PREDICTED BY RF-SCORE:    0.00 PKD
ROOT
HETATM    1  C   UNL     1     -11.261  16.332  69.511  1.00  0.00    -0.308 C  
HETATM    2  C   UNL     1     -11.118  15.513  68.237  1.00  0.00    -0.322 C  
ENDROOT
BRANCH   2   3
HETATM    3  N   UNL     1      -9.938  15.941  67.338  1.00  0.00    -0.236 N  
HETATM    4  C   UNL     1      -9.515  14.743  66.483  1.00  0.00    -0.293 C  
HETATM    5  C   UNL     1     -10.417  17.056  66.404  1.00  0.00    -0.252 C  
BRANCH   3   6
HETATM    6  C   UNL     1      -8.708  16.358  68.138  1.00  0.00    -0.191 A  
HETATM    7  C   UNL     1      -8.299  17.701  68.199  1.00  0.00    -0.259 A  
HETATM    8  C   UNL     1      -7.132  18.048  68.881  1.00  0.00    -0.263 A  
HETATM    9  O   UNL     1      -6.700  19.338  68.958  1.00  0.00    -0.288 OA 
HETATM   10  C   UNL     1      -6.351  17.084  69.500  1.00  0.00    -0.235 A  
HETATM   11  H   UNL     1      -5.905  19.573  69.422  1.00  0.00     0.000 HD 
HETATM   12  C   UNL     1      -6.728  15.749  69.427  1.00  0.00    -0.184 A  
HETATM   13  C   UNL     1      -7.889  15.386  68.739  1.00  0.00    -0.155 A  
ENDBRANCH   3   6
ENDBRANCH   2   3
TORSDOF 2
ENDMDL
MODEL      157
REMARK 921   NORMALIZED FREE ENERGY PREDICTED BY IDOCK:   -2.66 KCAL/MOL
REMARK 922        TOTAL FREE ENERGY PREDICTED BY IDOCK:   -3.13 KCAL/MOL
REMARK 923 INTER-LIGAND FREE ENERGY PREDICTED BY IDOCK:   -3.00 KCAL/MOL
REMARK 924 INTRA-LIGAND FREE ENERGY PREDICTED BY IDOCK:   -0.14 KCAL/MOL
REMARK 927      BINDING AFFINITY PREDICTED BY RF-SCORE:    0.00 PKD
ROOT
HETATM    1  C   UNL     1      -9.999   4.517  67.383  1.00  0.00    -0.171 C  
HETATM    2  C   UNL     1     -10.405   5.976  67.534  1.00  0.00    -0.210 C  
ENDROOT
BRANCH   2   3
HETATM    3  N   UNL     1      -9.324   6.983  67.089  1.00  0.00    -0.138 N  
HETATM    4  C   UNL     1      -8.244   7.052  68.173  1.00  0.00    -0.120 C  
HETATM    5  C   UNL     1      -8.680   6.467  65.799  1.00  0.00    -0.120 C  
BRANCH   3   6
HETATM    6  C   UNL     1      -9.866   8.400  66.928  1.00  0.00    -0.245 A  
HETATM    7  C   UNL     1     -10.730   8.963  67.883  1.00  0.00    -0.185 A  
HETATM    8  C   UNL     1     -11.266  10.234  67.679  1.00  0.00    -0.158 A  
HETATM    9  O   UNL     1     -12.111  10.812  68.578  1.00  0.00    -0.788 OA 
HETATM   10  C   UNL     1     -10.970  10.962  66.536  1.00  0.00    -0.187 A  
HETATM   11  H   UNL     1     -12.477  11.678  68.438  1.00  0.00     0.000 HD 
HETATM   12  C   UNL     1     -10.138  10.409  65.571  1.00  0.00    -0.352 A  
HETATM   13  C   UNL     1      -9.601   9.132  65.757  1.00  0.00    -0.323 A  
ENDBRANCH   3   6
ENDBRANCH   2   3
TORSDOF 2
ENDMDL
MODEL      158
REMARK 921   NORMALIZED FREE ENERGY PREDICTED BY IDOCK:   -2.65 KCAL/MOL
REMARK 922        TOTAL FREE ENERGY PREDICTED BY IDOCK:   -3.13 KCAL/MOL
REMARK 923 INTER-LIGAND FREE ENERGY PREDICTED BY IDOCK:   -2.97 KCAL/MOL
REMARK 924 INTRA-LIGAND FREE ENERGY PREDICTED BY IDOCK:   -0.16 KCAL/MOL
REMARK 927      BINDING AFFINITY PREDICTED BY RF-SCORE:    0.00 PKD
ROOT
HETATM    1  C   UNL     1      -6.023  13.562  70.035  1.00  0.00    -0.143 C  
HETATM    2  C   UNL     1      -6.679  13.568  68.662  1.00  0.00    -0.094 C  
ENDROOT
BRANCH   2   3
HETATM    3  N   UNL     1      -7.430  12.265  68.314  1.00  0.00    -0.110 N  
HETATM    4  C   UNL     1      -6.827  11.680  67.034  1.00  0.00    -0.144 C  
HETATM    5  C   UNL     1      -7.214  11.261  69.451  1.00  0.00    -0.063 C  
BRANCH   3   6
HETATM    6  C   UNL     1      -8.911  12.494  68.031  1.00  0.00    -0.187 A  
HETATM    7  C   UNL     1      -9.875  11.529  68.371  1.00  0.00    -0.204 A  
HETATM    8  C   UNL     1     -11.215  11.733  68.039  1.00  0.00    -0.263 A  
HETATM    9  O   UNL     1     -12.179  10.820  68.346  1.00  0.00    -0.832 OA 
HETATM   10  C   UNL     1     -11.622  12.875  67.366  1.00  0.00    -0.414 A  
HETATM   11  H   UNL     1     -13.092  10.959  68.119  1.00  0.00     0.000 HD 
HETATM   12  C   UNL     1     -10.676  13.826  67.001  1.00  0.00    -0.283 A  
HETATM   13  C   UNL     1      -9.329  13.631  67.318  1.00  0.00    -0.233 A  
ENDBRANCH   3   6
ENDBRANCH   2   3
TORSDOF 2
ENDMDL
MODEL      159
REMARK 921   NORMALIZED FREE ENERGY PREDICTED BY IDOCK:   -2.63 KCAL/MOL
REMARK 922        TOTAL FREE ENERGY PREDICTED BY IDOCK:   -3.11 KCAL/MOL
REMARK 923 INTER-LIGAND FREE ENERGY PREDICTED BY IDOCK:   -2.93 KCAL/MOL
REMARK 924 INTRA-LIGAND FREE ENERGY PREDICTED BY IDOCK:   -0.18 KCAL/MOL
REMARK 927      BINDING AFFINITY PREDICTED BY RF-SCORE:    0.00 PKD
ROOT
HETATM    1  C   UNL     1      -6.795   2.990  68.784  1.00  0.00    -0.044 C  
HETATM    2  C   UNL     1      -7.601   4.277  68.676  1.00  0.00    -0.063 C  
ENDROOT
BRANCH   2   3
HETATM    3  N   UNL     1      -9.128   4.062  68.605  1.00  0.00    -0.122 N  
HETATM    4  C   UNL     1      -9.661   4.761  67.351  1.00  0.00    -0.176 C  
HETATM    5  C   UNL     1      -9.403   2.561  68.476  1.00  0.00    -0.193 C  
BRANCH   3   6
HETATM    6  C   UNL     1      -9.866   4.676  69.790  1.00  0.00    -0.226 A  
HETATM    7  C   UNL     1     -10.881   5.630  69.601  1.00  0.00    -0.365 A  
HETATM    8  C   UNL     1     -11.494   6.228  70.703  1.00  0.00    -0.329 A  
HETATM    9  O   UNL     1     -12.478   7.160  70.562  1.00  0.00    -0.605 OA 
HETATM   10  C   UNL     1     -11.115   5.904  71.997  1.00  0.00    -0.329 A  
HETATM   11  H   UNL     1     -12.895   7.567  71.312  1.00  0.00     0.000 HD 
HETATM   12  C   UNL     1     -10.096   4.981  72.199  1.00  0.00    -0.252 A  
HETATM   13  C   UNL     1      -9.465   4.383  71.105  1.00  0.00    -0.228 A  
ENDBRANCH   3   6
ENDBRANCH   2   3
TORSDOF 2
ENDMDL
MODEL      160
REMARK 921   NORMALIZED FREE ENERGY PREDICTED BY IDOCK:   -2.62 KCAL/MOL
REMARK 922        TOTAL FREE ENERGY PREDICTED BY IDOCK:   -3.09 KCAL/MOL
REMARK 923 INTER-LIGAND FREE ENERGY PREDICTED BY IDOCK:   -2.93 KCAL/MOL
REMARK 924 INTRA-LIGAND FREE ENERGY PREDICTED BY IDOCK:   -0.16 KCAL/MOL
REMARK 927      BINDING AFFINITY PREDICTED BY RF-SCORE:    0.00 PKD
ROOT
HETATM    1  C   UNL     1     -11.065  14.083  65.407  1.00  0.00    -0.318 C  
HETATM    2  C   UNL     1      -9.921  15.040  65.709  1.00  0.00    -0.346 C  
ENDROOT
BRANCH   2   3
HETATM    3  N   UNL     1     -10.215  16.037  66.850  1.00  0.00    -0.274 N  
HETATM    4  C   UNL     1     -10.495  17.412  66.237  1.00  0.00    -0.276 C  
HETATM    5  C   UNL     1     -11.475  15.573  67.589  1.00  0.00    -0.209 C  
BRANCH   3   6
HETATM    6  C   UNL     1      -9.034  16.217  67.797  1.00  0.00    -0.193 A  
HETATM    7  C   UNL     1      -8.353  17.444  67.888  1.00  0.00    -0.230 A  
HETATM    8  C   UNL     1      -7.232  17.563  68.711  1.00  0.00    -0.257 A  
HETATM    9  O   UNL     1      -6.542  18.732  68.821  1.00  0.00    -0.243 OA 
HETATM   10  C   UNL     1      -6.764  16.484  69.446  1.00  0.00    -0.213 A  
HETATM   11  H   UNL     1      -5.779  18.813  69.382  1.00  0.00     0.000 HD 
HETATM   12  C   UNL     1      -7.412  15.259  69.347  1.00  0.00    -0.212 A  
HETATM   13  C   UNL     1      -8.529  15.121  68.518  1.00  0.00    -0.160 A  
ENDBRANCH   3   6
ENDBRANCH   2   3
TORSDOF 2
ENDMDL
MODEL      161
REMARK 921   NORMALIZED FREE ENERGY PREDICTED BY IDOCK:   -2.60 KCAL/MOL
REMARK 922        TOTAL FREE ENERGY PREDICTED BY IDOCK:   -3.08 KCAL/MOL
REMARK 923 INTER-LIGAND FREE ENERGY PREDICTED BY IDOCK:   -2.84 KCAL/MOL
REMARK 924 INTRA-LIGAND FREE ENERGY PREDICTED BY IDOCK:   -0.23 KCAL/MOL
REMARK 927      BINDING AFFINITY PREDICTED BY RF-SCORE:    0.00 PKD
ROOT
HETATM    1  C   UNL     1     -10.787  15.974  69.845  1.00  0.00    -0.351 C  
HETATM    2  C   UNL     1     -10.870  16.222  68.345  1.00  0.00    -0.334 C  
ENDROOT
BRANCH   2   3
HETATM    3  N   UNL     1      -9.529  16.051  67.601  1.00  0.00    -0.215 N  
HETATM    4  C   UNL     1      -9.665  16.662  66.203  1.00  0.00    -0.303 C  
HETATM    5  C   UNL     1      -8.447  16.823  68.363  1.00  0.00    -0.231 C  
BRANCH   3   6
HETATM    6  C   UNL     1      -9.148  14.588  67.399  1.00  0.00    -0.196 A  
HETATM    7  C   UNL     1      -9.925  13.737  66.593  1.00  0.00    -0.279 A  
HETATM    8  C   UNL     1      -9.594  12.387  66.478  1.00  0.00    -0.240 A  
HETATM    9  O   UNL     1     -10.324  11.529  65.712  1.00  0.00    -0.232 OA 
HETATM   10  C   UNL     1      -8.507  11.855  67.156  1.00  0.00    -0.173 A  
HETATM   11  H   UNL     1     -10.099  10.609  65.635  1.00  0.00     0.000 HD 
HETATM   12  C   UNL     1      -7.745  12.678  67.977  1.00  0.00    -0.139 A  
HETATM   13  C   UNL     1      -8.071  14.031  68.109  1.00  0.00    -0.151 A  
ENDBRANCH   3   6
ENDBRANCH   2   3
TORSDOF 2
ENDMDL
MODEL      162
REMARK 921   NORMALIZED FREE ENERGY PREDICTED BY IDOCK:   -2.59 KCAL/MOL
REMARK 922        TOTAL FREE ENERGY PREDICTED BY IDOCK:   -3.06 KCAL/MOL
REMARK 923 INTER-LIGAND FREE ENERGY PREDICTED BY IDOCK:   -2.88 KCAL/MOL
REMARK 924 INTRA-LIGAND FREE ENERGY PREDICTED BY IDOCK:   -0.18 KCAL/MOL
REMARK 927      BINDING AFFINITY PREDICTED BY RF-SCORE:    0.00 PKD
ROOT
HETATM    1  C   UNL     1     -12.385  10.303  70.561  1.00  0.00    -0.371 C  
HETATM    2  C   UNL     1     -11.056  10.692  69.928  1.00  0.00    -0.298 C  
ENDROOT
BRANCH   2   3
HETATM    3  N   UNL     1     -10.213   9.494  69.442  1.00  0.00    -0.195 N  
HETATM    4  C   UNL     1      -8.819   9.591  70.070  1.00  0.00    -0.223 C  
HETATM    5  C   UNL     1     -10.875   8.202  69.931  1.00  0.00    -0.215 C  
BRANCH   3   6
HETATM    6  C   UNL     1     -10.007   9.491  67.931  1.00  0.00    -0.172 A  
HETATM    7  C   UNL     1      -9.180   8.540  67.310  1.00  0.00    -0.168 A  
HETATM    8  C   UNL     1      -8.954   8.600  65.934  1.00  0.00    -0.200 A  
HETATM    9  O   UNL     1      -8.154   7.700  65.296  1.00  0.00    -0.122 OA 
HETATM   10  C   UNL     1      -9.527   9.595  65.156  1.00  0.00    -0.332 A  
HETATM   11  H   UNL     1      -8.000   7.742  64.359  1.00  0.00     0.000 HD 
HETATM   12  C   UNL     1     -10.327  10.557  65.760  1.00  0.00    -0.270 A  
HETATM   13  C   UNL     1     -10.554  10.516  67.139  1.00  0.00    -0.319 A  
ENDBRANCH   3   6
ENDBRANCH   2   3
TORSDOF 2
ENDMDL
MODEL      163
REMARK 921   NORMALIZED FREE ENERGY PREDICTED BY IDOCK:   -2.58 KCAL/MOL
REMARK 922        TOTAL FREE ENERGY PREDICTED BY IDOCK:   -3.05 KCAL/MOL
REMARK 923 INTER-LIGAND FREE ENERGY PREDICTED BY IDOCK:   -2.92 KCAL/MOL
REMARK 924 INTRA-LIGAND FREE ENERGY PREDICTED BY IDOCK:   -0.14 KCAL/MOL
REMARK 927      BINDING AFFINITY PREDICTED BY RF-SCORE:    0.00 PKD
ROOT
HETATM    1  C   UNL     1     -10.944   6.001  68.146  1.00  0.00    -0.340 C  
HETATM    2  C   UNL     1      -9.472   5.626  68.249  1.00  0.00    -0.114 C  
ENDROOT
BRANCH   2   3
HETATM    3  N   UNL     1      -8.782   6.122  69.537  1.00  0.00    -0.129 N  
HETATM    4  C   UNL     1      -7.486   5.329  69.734  1.00  0.00    -0.065 C  
HETATM    5  C   UNL     1      -8.421   7.600  69.358  1.00  0.00    -0.132 C  
BRANCH   3   6
HETATM    6  C   UNL     1      -9.625   5.890  70.786  1.00  0.00    -0.170 A  
HETATM    7  C   UNL     1     -10.323   6.944  71.401  1.00  0.00    -0.219 A  
HETATM    8  C   UNL     1     -11.032   6.720  72.581  1.00  0.00    -0.257 A  
HETATM    9  O   UNL     1     -11.716   7.716  73.210  1.00  0.00    -0.649 OA 
HETATM   10  C   UNL     1     -11.058   5.467  73.175  1.00  0.00    -0.363 A  
HETATM   11  H   UNL     1     -12.198   7.563  74.015  1.00  0.00     0.000 HD 
HETATM   12  C   UNL     1     -10.353   4.421  72.593  1.00  0.00    -0.248 A  
HETATM   13  C   UNL     1      -9.629   4.633  71.416  1.00  0.00    -0.230 A  
ENDBRANCH   3   6
ENDBRANCH   2   3
TORSDOF 2
ENDMDL
MODEL      164
REMARK 921   NORMALIZED FREE ENERGY PREDICTED BY IDOCK:   -2.57 KCAL/MOL
REMARK 922        TOTAL FREE ENERGY PREDICTED BY IDOCK:   -3.04 KCAL/MOL
REMARK 923 INTER-LIGAND FREE ENERGY PREDICTED BY IDOCK:   -3.01 KCAL/MOL
REMARK 924 INTRA-LIGAND FREE ENERGY PREDICTED BY IDOCK:   -0.02 KCAL/MOL
REMARK 927      BINDING AFFINITY PREDICTED BY RF-SCORE:    0.00 PKD
ROOT
HETATM    1  C   UNL     1      -7.714  11.028  69.209  1.00  0.00    -0.071 C  
HETATM    2  C   UNL     1      -8.554  10.100  70.077  1.00  0.00     0.016 C  
ENDROOT
BRANCH   2   3
HETATM    3  N   UNL     1      -9.937   9.759  69.482  1.00  0.00    -0.200 N  
HETATM    4  C   UNL     1      -9.821   8.451  68.695  1.00  0.00    -0.170 C  
HETATM    5  C   UNL     1     -10.922   9.542  70.635  1.00  0.00    -0.306 C  
BRANCH   3   6
HETATM    6  C   UNL     1     -10.434  10.814  68.500  1.00  0.00    -0.187 A  
HETATM    7  C   UNL     1     -11.187  11.918  68.935  1.00  0.00    -0.310 A  
HETATM    8  C   UNL     1     -11.688  12.833  68.008  1.00  0.00    -0.356 A  
HETATM    9  O   UNL     1     -12.427  13.912  68.390  1.00  0.00    -0.438 OA 
HETATM   10  C   UNL     1     -11.466  12.671  66.649  1.00  0.00    -0.409 A  
HETATM   11  H   UNL     1     -12.768  14.535  67.758  1.00  0.00     0.000 HD 
HETATM   12  C   UNL     1     -10.745  11.571  66.201  1.00  0.00    -0.324 A  
HETATM   13  C   UNL     1     -10.245  10.640  67.117  1.00  0.00    -0.261 A  
ENDBRANCH   3   6
ENDBRANCH   2   3
TORSDOF 2
ENDMDL
MODEL      165
REMARK 921   NORMALIZED FREE ENERGY PREDICTED BY IDOCK:   -2.57 KCAL/MOL
REMARK 922        TOTAL FREE ENERGY PREDICTED BY IDOCK:   -3.03 KCAL/MOL
REMARK 923 INTER-LIGAND FREE ENERGY PREDICTED BY IDOCK:   -2.81 KCAL/MOL
REMARK 924 INTRA-LIGAND FREE ENERGY PREDICTED BY IDOCK:   -0.22 KCAL/MOL
REMARK 927      BINDING AFFINITY PREDICTED BY RF-SCORE:    0.00 PKD
ROOT
HETATM    1  C   UNL     1      -6.681  14.863  68.989  1.00  0.00    -0.117 C  
HETATM    2  C   UNL     1      -7.143  15.256  67.593  1.00  0.00    -0.182 C  
ENDROOT
BRANCH   2   3
HETATM    3  N   UNL     1      -8.621  15.692  67.515  1.00  0.00    -0.166 N  
HETATM    4  C   UNL     1      -8.843  16.847  68.496  1.00  0.00    -0.251 C  
HETATM    5  C   UNL     1      -8.905  16.202  66.098  1.00  0.00    -0.332 C  
BRANCH   3   6
HETATM    6  C   UNL     1      -9.586  14.584  67.925  1.00  0.00    -0.217 A  
HETATM    7  C   UNL     1      -9.844  13.493  67.078  1.00  0.00    -0.251 A  
HETATM    8  C   UNL     1     -10.782  12.528  67.446  1.00  0.00    -0.229 A  
HETATM    9  O   UNL     1     -11.065  11.458  66.650  1.00  0.00    -0.295 OA 
HETATM   10  C   UNL     1     -11.481  12.626  68.640  1.00  0.00    -0.347 A  
HETATM   11  H   UNL     1     -11.704  10.801  66.901  1.00  0.00     0.000 HD 
HETATM   12  C   UNL     1     -11.255  13.712  69.476  1.00  0.00    -0.205 A  
HETATM   13  C   UNL     1     -10.326  14.692  69.115  1.00  0.00    -0.222 A  
ENDBRANCH   3   6
ENDBRANCH   2   3
TORSDOF 2
ENDMDL
MODEL      166
REMARK 921   NORMALIZED FREE ENERGY PREDICTED BY IDOCK:   -2.53 KCAL/MOL
REMARK 922        TOTAL FREE ENERGY PREDICTED BY IDOCK:   -2.99 KCAL/MOL
REMARK 923 INTER-LIGAND FREE ENERGY PREDICTED BY IDOCK:   -2.82 KCAL/MOL
REMARK 924 INTRA-LIGAND FREE ENERGY PREDICTED BY IDOCK:   -0.17 KCAL/MOL
REMARK 927      BINDING AFFINITY PREDICTED BY RF-SCORE:    0.00 PKD
ROOT
HETATM    1  C   UNL     1      -7.061  14.886  67.917  1.00  0.00    -0.168 C  
HETATM    2  C   UNL     1      -8.145  14.106  67.187  1.00  0.00    -0.115 C  
ENDROOT
BRANCH   2   3
HETATM    3  N   UNL     1      -8.338  12.662  67.699  1.00  0.00    -0.161 N  
HETATM    4  C   UNL     1      -8.300  11.710  66.500  1.00  0.00    -0.122 C  
HETATM    5  C   UNL     1      -7.171  12.315  68.629  1.00  0.00    -0.105 C  
BRANCH   3   6
HETATM    6  C   UNL     1      -9.688  12.451  68.377  1.00  0.00    -0.189 A  
HETATM    7  C   UNL     1     -10.519  13.538  68.701  1.00  0.00    -0.242 A  
HETATM    8  C   UNL     1     -11.717  13.324  69.382  1.00  0.00    -0.325 A  
HETATM    9  O   UNL     1     -12.547  14.351  69.719  1.00  0.00    -0.506 OA 
HETATM   10  C   UNL     1     -12.110  12.049  69.759  1.00  0.00    -0.317 A  
HETATM   11  H   UNL     1     -13.363  14.205  70.183  1.00  0.00     0.000 HD 
HETATM   12  C   UNL     1     -11.288  10.967  69.467  1.00  0.00    -0.356 A  
HETATM   13  C   UNL     1     -10.079  11.167  68.795  1.00  0.00    -0.211 A  
ENDBRANCH   3   6
ENDBRANCH   2   3
TORSDOF 2
ENDMDL
MODEL      167
REMARK 921   NORMALIZED FREE ENERGY PREDICTED BY IDOCK:   -2.53 KCAL/MOL
REMARK 922        TOTAL FREE ENERGY PREDICTED BY IDOCK:   -2.99 KCAL/MOL
REMARK 923 INTER-LIGAND FREE ENERGY PREDICTED BY IDOCK:   -2.82 KCAL/MOL
REMARK 924 INTRA-LIGAND FREE ENERGY PREDICTED BY IDOCK:   -0.17 KCAL/MOL
REMARK 927      BINDING AFFINITY PREDICTED BY RF-SCORE:    0.00 PKD
ROOT
HETATM    1  C   UNL     1      -9.595   9.265  68.514  1.00  0.00    -0.155 C  
HETATM    2  C   UNL     1     -10.683   8.796  69.469  1.00  0.00    -0.188 C  
ENDROOT
BRANCH   2   3
HETATM    3  N   UNL     1     -10.472   7.369  70.017  1.00  0.00    -0.220 N  
HETATM    4  C   UNL     1     -11.769   6.577  69.830  1.00  0.00    -0.283 C  
HETATM    5  C   UNL     1      -9.370   6.691  69.197  1.00  0.00    -0.134 C  
BRANCH   3   6
HETATM    6  C   UNL     1     -10.163   7.349  71.511  1.00  0.00    -0.192 A  
HETATM    7  C   UNL     1      -9.086   8.079  72.042  1.00  0.00    -0.217 A  
HETATM    8  C   UNL     1      -8.783   7.990  73.401  1.00  0.00    -0.259 A  
HETATM    9  O   UNL     1      -7.745   8.678  73.953  1.00  0.00    -0.399 OA 
HETATM   10  C   UNL     1      -9.524   7.181  74.250  1.00  0.00    -0.236 A  
HETATM   11  H   UNL     1      -7.538   8.616  74.879  1.00  0.00     0.000 HD 
HETATM   12  C   UNL     1     -10.576   6.434  73.734  1.00  0.00    -0.271 A  
HETATM   13  C   UNL     1     -10.885   6.505  72.373  1.00  0.00    -0.264 A  
ENDBRANCH   3   6
ENDBRANCH   2   3
TORSDOF 2
ENDMDL
MODEL      168
REMARK 921   NORMALIZED FREE ENERGY PREDICTED BY IDOCK:   -2.50 KCAL/MOL
REMARK 922        TOTAL FREE ENERGY PREDICTED BY IDOCK:   -2.96 KCAL/MOL
REMARK 923 INTER-LIGAND FREE ENERGY PREDICTED BY IDOCK:   -2.83 KCAL/MOL
REMARK 924 INTRA-LIGAND FREE ENERGY PREDICTED BY IDOCK:   -0.13 KCAL/MOL
REMARK 927      BINDING AFFINITY PREDICTED BY RF-SCORE:    0.00 PKD
ROOT
HETATM    1  C   UNL     1      -7.646   5.625  66.865  1.00  0.00    -0.096 C  
HETATM    2  C   UNL     1      -8.455   6.224  68.006  1.00  0.00    -0.117 C  
ENDROOT
BRANCH   2   3
HETATM    3  N   UNL     1      -9.685   7.037  67.550  1.00  0.00    -0.132 N  
HETATM    4  C   UNL     1      -9.208   8.185  66.656  1.00  0.00    -0.180 C  
HETATM    5  C   UNL     1     -10.592   6.123  66.721  1.00  0.00    -0.283 C  
BRANCH   3   6
HETATM    6  C   UNL     1     -10.434   7.677  68.714  1.00  0.00    -0.189 A  
HETATM    7  C   UNL     1     -10.412   9.068  68.918  1.00  0.00    -0.231 A  
HETATM    8  C   UNL     1     -11.048   9.623  70.029  1.00  0.00    -0.255 A  
HETATM    9  O   UNL     1     -11.045  10.965  70.264  1.00  0.00    -0.441 OA 
HETATM   10  C   UNL     1     -11.704   8.824  70.953  1.00  0.00    -0.299 A  
HETATM   11  H   UNL     1     -11.478  11.343  71.021  1.00  0.00     0.000 HD 
HETATM   12  C   UNL     1     -11.713   7.445  70.779  1.00  0.00    -0.305 A  
HETATM   13  C   UNL     1     -11.071   6.874  69.676  1.00  0.00    -0.302 A  
ENDBRANCH   3   6
ENDBRANCH   2   3
TORSDOF 2
ENDMDL
MODEL      169
REMARK 921   NORMALIZED FREE ENERGY PREDICTED BY IDOCK:   -2.47 KCAL/MOL
REMARK 922        TOTAL FREE ENERGY PREDICTED BY IDOCK:   -2.93 KCAL/MOL
REMARK 923 INTER-LIGAND FREE ENERGY PREDICTED BY IDOCK:   -2.72 KCAL/MOL
REMARK 924 INTRA-LIGAND FREE ENERGY PREDICTED BY IDOCK:   -0.20 KCAL/MOL
REMARK 927      BINDING AFFINITY PREDICTED BY RF-SCORE:    0.00 PKD
ROOT
HETATM    1  C   UNL     1     -11.921   9.359  71.668  1.00  0.00    -0.465 C  
HETATM    2  C   UNL     1     -10.625   8.607  71.935  1.00  0.00    -0.340 C  
ENDROOT
BRANCH   2   3
HETATM    3  N   UNL     1      -9.658   8.567  70.732  1.00  0.00    -0.172 N  
HETATM    4  C   UNL     1      -9.921   9.793  69.853  1.00  0.00    -0.245 C  
HETATM    5  C   UNL     1      -8.222   8.649  71.259  1.00  0.00    -0.154 C  
BRANCH   3   6
HETATM    6  C   UNL     1      -9.870   7.345  69.845  1.00  0.00    -0.178 A  
HETATM    7  C   UNL     1      -9.326   6.094  70.186  1.00  0.00    -0.167 A  
HETATM    8  C   UNL     1      -9.475   5.007  69.323  1.00  0.00    -0.137 A  
HETATM    9  O   UNL     1      -8.959   3.781  69.615  1.00  0.00    -0.086 OA 
HETATM   10  C   UNL     1     -10.149   5.136  68.118  1.00  0.00    -0.192 A  
HETATM   11  H   UNL     1      -9.060   3.041  69.027  1.00  0.00     0.000 HD 
HETATM   12  C   UNL     1     -10.671   6.372  67.756  1.00  0.00    -0.377 A  
HETATM   13  C   UNL     1     -10.519   7.472  68.605  1.00  0.00    -0.207 A  
ENDBRANCH   3   6
ENDBRANCH   2   3
TORSDOF 2
ENDMDL
MODEL      170
REMARK 921   NORMALIZED FREE ENERGY PREDICTED BY IDOCK:   -2.46 KCAL/MOL
REMARK 922        TOTAL FREE ENERGY PREDICTED BY IDOCK:   -2.92 KCAL/MOL
REMARK 923 INTER-LIGAND FREE ENERGY PREDICTED BY IDOCK:   -2.77 KCAL/MOL
REMARK 924 INTRA-LIGAND FREE ENERGY PREDICTED BY IDOCK:   -0.14 KCAL/MOL
REMARK 927      BINDING AFFINITY PREDICTED BY RF-SCORE:    0.00 PKD
ROOT
HETATM    1  C   UNL     1      -7.522   5.200  67.519  1.00  0.00    -0.083 C  
HETATM    2  C   UNL     1      -8.285   6.424  67.032  1.00  0.00    -0.113 C  
ENDROOT
BRANCH   2   3
HETATM    3  N   UNL     1      -8.785   7.349  68.161  1.00  0.00    -0.122 N  
HETATM    4  C   UNL     1      -9.894   6.626  68.930  1.00  0.00    -0.139 C  
HETATM    5  C   UNL     1      -7.623   7.612  69.125  1.00  0.00    -0.100 C  
BRANCH   3   6
HETATM    6  C   UNL     1      -9.395   8.645  67.638  1.00  0.00    -0.137 A  
HETATM    7  C   UNL     1     -10.514   9.226  68.257  1.00  0.00    -0.260 A  
HETATM    8  C   UNL     1     -11.095  10.374  67.718  1.00  0.00    -0.299 A  
HETATM    9  O   UNL     1     -12.184  10.964  68.286  1.00  0.00    -0.804 OA 
HETATM   10  C   UNL     1     -10.593  10.959  66.566  1.00  0.00    -0.295 A  
HETATM   11  H   UNL     1     -12.580  11.746  67.918  1.00  0.00     0.000 HD 
HETATM   12  C   UNL     1      -9.501  10.381  65.928  1.00  0.00    -0.237 A  
HETATM   13  C   UNL     1      -8.916   9.225  66.450  1.00  0.00    -0.185 A  
ENDBRANCH   3   6
ENDBRANCH   2   3
TORSDOF 2
ENDMDL
MODEL      171
REMARK 921   NORMALIZED FREE ENERGY PREDICTED BY IDOCK:   -2.41 KCAL/MOL
REMARK 922        TOTAL FREE ENERGY PREDICTED BY IDOCK:   -2.86 KCAL/MOL
REMARK 923 INTER-LIGAND FREE ENERGY PREDICTED BY IDOCK:   -2.67 KCAL/MOL
REMARK 924 INTRA-LIGAND FREE ENERGY PREDICTED BY IDOCK:   -0.19 KCAL/MOL
REMARK 927      BINDING AFFINITY PREDICTED BY RF-SCORE:    0.00 PKD
ROOT
HETATM    1  C   UNL     1      -8.409   5.909  72.784  1.00  0.00    -0.118 C  
HETATM    2  C   UNL     1      -9.065   7.233  72.420  1.00  0.00    -0.131 C  
ENDROOT
BRANCH   2   3
HETATM    3  N   UNL     1     -10.290   7.097  71.491  1.00  0.00    -0.202 N  
HETATM    4  C   UNL     1     -10.697   5.622  71.432  1.00  0.00    -0.244 C  
HETATM    5  C   UNL     1     -11.450   7.894  72.096  1.00  0.00    -0.324 C  
BRANCH   3   6
HETATM    6  C   UNL     1      -9.994   7.522  70.057  1.00  0.00    -0.186 A  
HETATM    7  C   UNL     1     -10.675   6.946  68.970  1.00  0.00    -0.259 A  
HETATM    8  C   UNL     1     -10.338   7.302  67.664  1.00  0.00    -0.227 A  
HETATM    9  O   UNL     1     -10.970   6.762  66.585  1.00  0.00    -0.530 OA 
HETATM   10  C   UNL     1      -9.328   8.218  67.408  1.00  0.00    -0.171 A  
HETATM   11  H   UNL     1     -10.740   7.005  65.695  1.00  0.00     0.000 HD 
HETATM   12  C   UNL     1      -8.629   8.777  68.471  1.00  0.00    -0.134 A  
HETATM   13  C   UNL     1      -8.948   8.422  69.785  1.00  0.00    -0.146 A  
ENDBRANCH   3   6
ENDBRANCH   2   3
TORSDOF 2
ENDMDL
MODEL      172
REMARK 921   NORMALIZED FREE ENERGY PREDICTED BY IDOCK:   -2.40 KCAL/MOL
REMARK 922        TOTAL FREE ENERGY PREDICTED BY IDOCK:   -2.85 KCAL/MOL
REMARK 923 INTER-LIGAND FREE ENERGY PREDICTED BY IDOCK:   -2.68 KCAL/MOL
REMARK 924 INTRA-LIGAND FREE ENERGY PREDICTED BY IDOCK:   -0.17 KCAL/MOL
REMARK 927      BINDING AFFINITY PREDICTED BY RF-SCORE:    0.00 PKD
ROOT
HETATM    1  C   UNL     1      -7.241   1.846  69.826  1.00  0.00    -0.036 C  
HETATM    2  C   UNL     1      -8.625   2.264  70.303  1.00  0.00    -0.054 C  
ENDROOT
BRANCH   2   3
HETATM    3  N   UNL     1      -8.686   3.686  70.898  1.00  0.00    -0.072 N  
HETATM    4  C   UNL     1      -9.414   3.622  72.244  1.00  0.00    -0.129 C  
HETATM    5  C   UNL     1      -7.254   4.172  71.147  1.00  0.00    -0.040 C  
BRANCH   3   6
HETATM    6  C   UNL     1      -9.473   4.659  70.026  1.00  0.00    -0.172 A  
HETATM    7  C   UNL     1     -10.464   5.491  70.574  1.00  0.00    -0.347 A  
HETATM    8  C   UNL     1     -11.218   6.322  69.744  1.00  0.00    -0.430 A  
HETATM    9  O   UNL     1     -12.191   7.139  70.236  1.00  0.00    -0.583 OA 
HETATM   10  C   UNL     1     -11.014   6.341  68.372  1.00  0.00    -0.409 A  
HETATM   11  H   UNL     1     -12.704   7.705  69.670  1.00  0.00     0.000 HD 
HETATM   12  C   UNL     1     -10.055   5.505  67.813  1.00  0.00    -0.214 A  
HETATM   13  C   UNL     1      -9.300   4.659  68.631  1.00  0.00    -0.193 A  
ENDBRANCH   3   6
ENDBRANCH   2   3
TORSDOF 2
ENDMDL
MODEL      173
REMARK 921   NORMALIZED FREE ENERGY PREDICTED BY IDOCK:   -2.40 KCAL/MOL
REMARK 922        TOTAL FREE ENERGY PREDICTED BY IDOCK:   -2.84 KCAL/MOL
REMARK 923 INTER-LIGAND FREE ENERGY PREDICTED BY IDOCK:   -2.70 KCAL/MOL
REMARK 924 INTRA-LIGAND FREE ENERGY PREDICTED BY IDOCK:   -0.15 KCAL/MOL
REMARK 927      BINDING AFFINITY PREDICTED BY RF-SCORE:    0.00 PKD
ROOT
HETATM    1  C   UNL     1      -6.604   6.948  65.920  1.00  0.00    -0.051 C  
HETATM    2  C   UNL     1      -7.221   7.985  66.848  1.00  0.00    -0.082 C  
ENDROOT
BRANCH   2   3
HETATM    3  N   UNL     1      -8.715   8.264  66.580  1.00  0.00    -0.134 N  
HETATM    4  C   UNL     1      -8.825   9.308  65.464  1.00  0.00    -0.187 C  
HETATM    5  C   UNL     1      -9.373   6.969  66.095  1.00  0.00    -0.040 C  
BRANCH   3   6
HETATM    6  C   UNL     1      -9.434   8.849  67.791  1.00  0.00    -0.141 A  
HETATM    7  C   UNL     1     -10.638   9.561  67.651  1.00  0.00    -0.329 A  
HETATM    8  C   UNL     1     -11.240  10.144  68.766  1.00  0.00    -0.164 A  
HETATM    9  O   UNL     1     -12.404  10.847  68.670  1.00  0.00    -0.805 OA 
HETATM   10  C   UNL     1     -10.667  10.044  70.025  1.00  0.00    -0.348 A  
HETATM   11  H   UNL     1     -12.814  11.244  69.430  1.00  0.00     0.000 HD 
HETATM   12  C   UNL     1      -9.464   9.365  70.175  1.00  0.00    -0.276 A  
HETATM   13  C   UNL     1      -8.844   8.784  69.065  1.00  0.00    -0.137 A  
ENDBRANCH   3   6
ENDBRANCH   2   3
TORSDOF 2
ENDMDL
MODEL      174
REMARK 921   NORMALIZED FREE ENERGY PREDICTED BY IDOCK:   -2.39 KCAL/MOL
REMARK 922        TOTAL FREE ENERGY PREDICTED BY IDOCK:   -2.84 KCAL/MOL
REMARK 923 INTER-LIGAND FREE ENERGY PREDICTED BY IDOCK:   -2.66 KCAL/MOL
REMARK 924 INTRA-LIGAND FREE ENERGY PREDICTED BY IDOCK:   -0.18 KCAL/MOL
REMARK 927      BINDING AFFINITY PREDICTED BY RF-SCORE:    0.00 PKD
ROOT
HETATM    1  C   UNL     1      -7.695   2.799  67.725  1.00  0.00    -0.060 C  
HETATM    2  C   UNL     1      -9.171   3.168  67.681  1.00  0.00    -0.195 C  
ENDROOT
BRANCH   2   3
HETATM    3  N   UNL     1      -9.445   4.623  67.246  1.00  0.00    -0.143 N  
HETATM    4  C   UNL     1      -8.116   5.275  66.852  1.00  0.00    -0.104 C  
HETATM    5  C   UNL     1     -10.355   4.599  66.013  1.00  0.00    -0.284 C  
BRANCH   3   6
HETATM    6  C   UNL     1     -10.029   5.475  68.368  1.00  0.00    -0.159 A  
HETATM    7  C   UNL     1     -10.313   6.839  68.175  1.00  0.00    -0.219 A  
HETATM    8  C   UNL     1     -10.783   7.612  69.237  1.00  0.00    -0.161 A  
HETATM    9  O   UNL     1     -11.064   8.938  69.093  1.00  0.00    -0.429 OA 
HETATM   10  C   UNL     1     -10.971   7.063  70.496  1.00  0.00    -0.297 A  
HETATM   11  H   UNL     1     -11.383   9.464  69.816  1.00  0.00     0.000 HD 
HETATM   12  C   UNL     1     -10.672   5.723  70.708  1.00  0.00    -0.342 A  
HETATM   13  C   UNL     1     -10.190   4.938  69.656  1.00  0.00    -0.265 A  
ENDBRANCH   3   6
ENDBRANCH   2   3
TORSDOF 2
ENDMDL
MODEL      175
REMARK 921   NORMALIZED FREE ENERGY PREDICTED BY IDOCK:   -2.38 KCAL/MOL
REMARK 922        TOTAL FREE ENERGY PREDICTED BY IDOCK:   -2.83 KCAL/MOL
REMARK 923 INTER-LIGAND FREE ENERGY PREDICTED BY IDOCK:   -2.66 KCAL/MOL
REMARK 924 INTRA-LIGAND FREE ENERGY PREDICTED BY IDOCK:   -0.17 KCAL/MOL
REMARK 927      BINDING AFFINITY PREDICTED BY RF-SCORE:    0.00 PKD
ROOT
HETATM    1  C   UNL     1      -8.701  17.824  65.896  1.00  0.00     0.110 C  
HETATM    2  C   UNL     1      -8.582  16.387  66.384  1.00  0.00    -0.323 C  
ENDROOT
BRANCH   2   3
HETATM    3  N   UNL     1      -8.552  16.242  67.921  1.00  0.00    -0.172 N  
HETATM    4  C   UNL     1      -7.242  15.559  68.321  1.00  0.00    -0.116 C  
HETATM    5  C   UNL     1      -8.576  17.642  68.542  1.00  0.00    -0.285 C  
BRANCH   3   6
HETATM    6  C   UNL     1      -9.679  15.364  68.453  1.00  0.00    -0.211 A  
HETATM    7  C   UNL     1      -9.546  13.966  68.516  1.00  0.00    -0.185 A  
HETATM    8  C   UNL     1     -10.617  13.179  68.942  1.00  0.00    -0.131 A  
HETATM    9  O   UNL     1     -10.530  11.822  69.012  1.00  0.00    -0.332 OA 
HETATM   10  C   UNL     1     -11.828  13.751  69.304  1.00  0.00    -0.392 A  
HETATM   11  H   UNL     1     -11.259  11.286  69.302  1.00  0.00     0.000 HD 
HETATM   12  C   UNL     1     -11.982  15.130  69.224  1.00  0.00    -0.322 A  
HETATM   13  C   UNL     1     -10.922  15.930  68.788  1.00  0.00    -0.301 A  
ENDBRANCH   3   6
ENDBRANCH   2   3
TORSDOF 2
ENDMDL
MODEL      176
REMARK 921   NORMALIZED FREE ENERGY PREDICTED BY IDOCK:   -2.38 KCAL/MOL
REMARK 922        TOTAL FREE ENERGY PREDICTED BY IDOCK:   -2.83 KCAL/MOL
REMARK 923 INTER-LIGAND FREE ENERGY PREDICTED BY IDOCK:   -3.07 KCAL/MOL
REMARK 924 INTRA-LIGAND FREE ENERGY PREDICTED BY IDOCK:    0.25 KCAL/MOL
REMARK 927      BINDING AFFINITY PREDICTED BY RF-SCORE:    0.00 PKD
ROOT
HETATM    1  C   UNL     1      -9.700  18.093  68.191  1.00  0.00    -0.331 C  
HETATM    2  C   UNL     1     -10.856  17.103  68.204  1.00  0.00    -0.316 C  
ENDROOT
BRANCH   2   3
HETATM    3  N   UNL     1     -10.511  15.721  67.611  1.00  0.00    -0.276 N  
HETATM    4  C   UNL     1     -11.538  14.703  68.115  1.00  0.00    -0.335 C  
HETATM    5  C   UNL     1     -10.624  15.804  66.085  1.00  0.00    -0.313 C  
BRANCH   3   6
HETATM    6  C   UNL     1      -9.144  15.212  68.054  1.00  0.00    -0.180 A  
HETATM    7  C   UNL     1      -8.376  14.372  67.228  1.00  0.00    -0.228 A  
HETATM    8  C   UNL     1      -7.159  13.865  67.684  1.00  0.00    -0.177 A  
HETATM    9  O   UNL     1      -6.389  13.043  66.917  1.00  0.00    -0.451 OA 
HETATM   10  C   UNL     1      -6.686  14.167  68.952  1.00  0.00    -0.103 A  
HETATM   11  H   UNL     1      -5.560  12.698  67.228  1.00  0.00     0.000 HD 
HETATM   12  C   UNL     1      -7.445  14.977  69.789  1.00  0.00    -0.102 A  
HETATM   13  C   UNL     1      -8.672  15.483  69.350  1.00  0.00    -0.258 A  
ENDBRANCH   3   6
ENDBRANCH   2   3
TORSDOF 2
ENDMDL
MODEL      177
REMARK 921   NORMALIZED FREE ENERGY PREDICTED BY IDOCK:   -2.37 KCAL/MOL
REMARK 922        TOTAL FREE ENERGY PREDICTED BY IDOCK:   -2.82 KCAL/MOL
REMARK 923 INTER-LIGAND FREE ENERGY PREDICTED BY IDOCK:   -2.64 KCAL/MOL
REMARK 924 INTRA-LIGAND FREE ENERGY PREDICTED BY IDOCK:   -0.18 KCAL/MOL
REMARK 927      BINDING AFFINITY PREDICTED BY RF-SCORE:    0.00 PKD
ROOT
HETATM    1  C   UNL     1      -7.694   4.650  72.816  1.00  0.00    -0.088 C  
HETATM    2  C   UNL     1      -8.093   6.077  73.163  1.00  0.00    -0.115 C  
ENDROOT
BRANCH   2   3
HETATM    3  N   UNL     1      -9.507   6.472  72.685  1.00  0.00    -0.148 N  
HETATM    4  C   UNL     1     -10.136   5.270  71.975  1.00  0.00    -0.194 C  
HETATM    5  C   UNL     1     -10.359   6.807  73.913  1.00  0.00    -0.368 C  
BRANCH   3   6
HETATM    6  C   UNL     1      -9.491   7.613  71.675  1.00  0.00    -0.146 A  
HETATM    7  C   UNL     1     -10.420   8.666  71.750  1.00  0.00    -0.394 A  
HETATM    8  C   UNL     1     -10.429   9.663  70.773  1.00  0.00    -0.305 A  
HETATM    9  O   UNL     1     -11.316  10.696  70.808  1.00  0.00    -0.374 OA 
HETATM   10  C   UNL     1      -9.537   9.635  69.712  1.00  0.00    -0.242 A  
HETATM   11  H   UNL     1     -11.323  11.374  70.142  1.00  0.00     0.000 HD 
HETATM   12  C   UNL     1      -8.629   8.587  69.610  1.00  0.00    -0.131 A  
HETATM   13  C   UNL     1      -8.616   7.576  70.575  1.00  0.00    -0.138 A  
ENDBRANCH   3   6
ENDBRANCH   2   3
TORSDOF 2
ENDMDL
MODEL      178
REMARK 921   NORMALIZED FREE ENERGY PREDICTED BY IDOCK:   -2.36 KCAL/MOL
REMARK 922        TOTAL FREE ENERGY PREDICTED BY IDOCK:   -2.80 KCAL/MOL
REMARK 923 INTER-LIGAND FREE ENERGY PREDICTED BY IDOCK:   -2.60 KCAL/MOL
REMARK 924 INTRA-LIGAND FREE ENERGY PREDICTED BY IDOCK:   -0.20 KCAL/MOL
REMARK 927      BINDING AFFINITY PREDICTED BY RF-SCORE:    0.00 PKD
ROOT
HETATM    1  C   UNL     1      -8.448  11.565  67.377  1.00  0.00    -0.147 C  
HETATM    2  C   UNL     1      -8.579  10.093  67.016  1.00  0.00    -0.129 C  
ENDROOT
BRANCH   2   3
HETATM    3  N   UNL     1      -8.039   9.128  68.094  1.00  0.00    -0.104 N  
HETATM    4  C   UNL     1      -7.592   7.833  67.409  1.00  0.00    -0.105 C  
HETATM    5  C   UNL     1      -6.816   9.772  68.754  1.00  0.00    -0.051 C  
BRANCH   3   6
HETATM    6  C   UNL     1      -9.098   8.733  69.118  1.00  0.00    -0.141 A  
HETATM    7  C   UNL     1     -10.039   7.727  68.842  1.00  0.00    -0.201 A  
HETATM    8  C   UNL     1     -11.040   7.431  69.768  1.00  0.00    -0.152 A  
HETATM    9  O   UNL     1     -11.974   6.467  69.535  1.00  0.00    -0.601 OA 
HETATM   10  C   UNL     1     -11.134   8.122  70.967  1.00  0.00    -0.281 A  
HETATM   11  H   UNL     1     -12.656   6.267  70.166  1.00  0.00     0.000 HD 
HETATM   12  C   UNL     1     -10.226   9.137  71.243  1.00  0.00    -0.400 A  
HETATM   13  C   UNL     1      -9.224   9.451  70.320  1.00  0.00    -0.285 A  
ENDBRANCH   3   6
ENDBRANCH   2   3
TORSDOF 2
ENDMDL
MODEL      179
REMARK 921   NORMALIZED FREE ENERGY PREDICTED BY IDOCK:   -2.34 KCAL/MOL
REMARK 922        TOTAL FREE ENERGY PREDICTED BY IDOCK:   -2.78 KCAL/MOL
REMARK 923 INTER-LIGAND FREE ENERGY PREDICTED BY IDOCK:   -2.60 KCAL/MOL
REMARK 924 INTRA-LIGAND FREE ENERGY PREDICTED BY IDOCK:   -0.18 KCAL/MOL
REMARK 927      BINDING AFFINITY PREDICTED BY RF-SCORE:    0.00 PKD
ROOT
HETATM    1  C   UNL     1      -9.225   2.853  65.476  1.00  0.00    -0.123 C  
HETATM    2  C   UNL     1      -9.594   4.271  65.888  1.00  0.00    -0.191 C  
ENDROOT
BRANCH   2   3
HETATM    3  N   UNL     1      -8.703   4.858  67.003  1.00  0.00    -0.104 N  
HETATM    4  C   UNL     1      -7.520   3.913  67.231  1.00  0.00    -0.072 C  
HETATM    5  C   UNL     1      -8.157   6.209  66.528  1.00  0.00    -0.110 C  
BRANCH   3   6
HETATM    6  C   UNL     1      -9.428   4.976  68.339  1.00  0.00    -0.134 A  
HETATM    7  C   UNL     1     -10.317   6.034  68.595  1.00  0.00    -0.264 A  
HETATM    8  C   UNL     1     -10.915   6.158  69.850  1.00  0.00    -0.389 A  
HETATM    9  O   UNL     1     -11.777   7.172  70.139  1.00  0.00    -0.501 OA 
HETATM   10  C   UNL     1     -10.645   5.253  70.865  1.00  0.00    -0.247 A  
HETATM   11  H   UNL     1     -12.184   7.256  70.994  1.00  0.00     0.000 HD 
HETATM   12  C   UNL     1      -9.749   4.215  70.635  1.00  0.00    -0.273 A  
HETATM   13  C   UNL     1      -9.134   4.086  69.386  1.00  0.00    -0.191 A  
ENDBRANCH   3   6
ENDBRANCH   2   3
TORSDOF 2
ENDMDL
MODEL      180
REMARK 921   NORMALIZED FREE ENERGY PREDICTED BY IDOCK:   -2.33 KCAL/MOL
REMARK 922        TOTAL FREE ENERGY PREDICTED BY IDOCK:   -2.77 KCAL/MOL
REMARK 923 INTER-LIGAND FREE ENERGY PREDICTED BY IDOCK:   -2.58 KCAL/MOL
REMARK 924 INTRA-LIGAND FREE ENERGY PREDICTED BY IDOCK:   -0.19 KCAL/MOL
REMARK 927      BINDING AFFINITY PREDICTED BY RF-SCORE:    0.00 PKD
ROOT
HETATM    1  C   UNL     1     -10.880   5.638  71.722  1.00  0.00    -0.301 C  
HETATM    2  C   UNL     1      -9.696   6.139  70.908  1.00  0.00    -0.177 C  
ENDROOT
BRANCH   2   3
HETATM    3  N   UNL     1      -9.012   5.052  70.052  1.00  0.00    -0.108 N  
HETATM    4  C   UNL     1      -7.523   5.389  69.932  1.00  0.00    -0.069 C  
HETATM    5  C   UNL     1      -9.145   3.708  70.774  1.00  0.00    -0.112 C  
BRANCH   3   6
HETATM    6  C   UNL     1      -9.558   4.990  68.629  1.00  0.00    -0.148 A  
HETATM    7  C   UNL     1      -9.324   3.874  67.807  1.00  0.00    -0.230 A  
HETATM    8  C   UNL     1      -9.775   3.871  66.487  1.00  0.00    -0.164 A  
HETATM    9  O   UNL     1      -9.564   2.812  65.656  1.00  0.00    -0.357 OA 
HETATM   10  C   UNL     1     -10.451   4.960  65.957  1.00  0.00    -0.327 A  
HETATM   11  H   UNL     1      -9.871   2.810  64.757  1.00  0.00     0.000 HD 
HETATM   12  C   UNL     1     -10.668   6.080  66.750  1.00  0.00    -0.374 A  
HETATM   13  C   UNL     1     -10.212   6.102  68.071  1.00  0.00    -0.210 A  
ENDBRANCH   3   6
ENDBRANCH   2   3
TORSDOF 2
ENDMDL
MODEL      181
REMARK 921   NORMALIZED FREE ENERGY PREDICTED BY IDOCK:   -2.30 KCAL/MOL
REMARK 922        TOTAL FREE ENERGY PREDICTED BY IDOCK:   -2.74 KCAL/MOL
REMARK 923 INTER-LIGAND FREE ENERGY PREDICTED BY IDOCK:   -2.59 KCAL/MOL
REMARK 924 INTRA-LIGAND FREE ENERGY PREDICTED BY IDOCK:   -0.15 KCAL/MOL
REMARK 927      BINDING AFFINITY PREDICTED BY RF-SCORE:    0.00 PKD
ROOT
HETATM    1  C   UNL     1      -6.660  11.348  68.338  1.00  0.00    -0.063 C  
HETATM    2  C   UNL     1      -7.276  10.053  68.846  1.00  0.00    -0.077 C  
ENDROOT
BRANCH   2   3
HETATM    3  N   UNL     1      -8.814   9.996  68.729  1.00  0.00    -0.130 N  
HETATM    4  C   UNL     1      -9.363  11.423  68.802  1.00  0.00    -0.106 C  
HETATM    5  C   UNL     1      -9.176   9.409  67.361  1.00  0.00    -0.126 C  
BRANCH   3   6
HETATM    6  C   UNL     1      -9.465   9.222  69.870  1.00  0.00    -0.197 A  
HETATM    7  C   UNL     1     -10.832   8.895  69.842  1.00  0.00    -0.219 A  
HETATM    8  C   UNL     1     -11.420   8.247  70.929  1.00  0.00    -0.274 A  
HETATM    9  O   UNL     1     -12.742   7.918  70.942  1.00  0.00    -0.518 OA 
HETATM   10  C   UNL     1     -10.679   7.920  72.055  1.00  0.00    -0.299 A  
HETATM   11  H   UNL     1     -13.141   7.477  71.683  1.00  0.00     0.000 HD 
HETATM   12  C   UNL     1      -9.332   8.259  72.107  1.00  0.00    -0.303 A  
HETATM   13  C   UNL     1      -8.733   8.918  71.030  1.00  0.00    -0.276 A  
ENDBRANCH   3   6
ENDBRANCH   2   3
TORSDOF 2
ENDMDL
MODEL      182
REMARK 921   NORMALIZED FREE ENERGY PREDICTED BY IDOCK:   -2.30 KCAL/MOL
REMARK 922        TOTAL FREE ENERGY PREDICTED BY IDOCK:   -2.74 KCAL/MOL
REMARK 923 INTER-LIGAND FREE ENERGY PREDICTED BY IDOCK:   -2.54 KCAL/MOL
REMARK 924 INTRA-LIGAND FREE ENERGY PREDICTED BY IDOCK:   -0.20 KCAL/MOL
REMARK 927      BINDING AFFINITY PREDICTED BY RF-SCORE:    0.00 PKD
ROOT
HETATM    1  C   UNL     1      -8.103   6.302  66.585  1.00  0.00    -0.110 C  
HETATM    2  C   UNL     1      -8.373   6.713  68.026  1.00  0.00    -0.117 C  
ENDROOT
BRANCH   2   3
HETATM    3  N   UNL     1      -9.755   7.361  68.250  1.00  0.00    -0.150 N  
HETATM    4  C   UNL     1     -10.723   6.826  67.191  1.00  0.00    -0.371 C  
HETATM    5  C   UNL     1     -10.271   6.943  69.631  1.00  0.00    -0.193 C  
BRANCH   3   6
HETATM    6  C   UNL     1      -9.730   8.877  68.087  1.00  0.00    -0.160 A  
HETATM    7  C   UNL     1      -8.756   9.663  68.729  1.00  0.00    -0.126 A  
HETATM    8  C   UNL     1      -8.796  11.053  68.619  1.00  0.00    -0.164 A  
HETATM    9  O   UNL     1      -7.874  11.850  69.230  1.00  0.00    -0.345 OA 
HETATM   10  C   UNL     1      -9.791  11.687  67.890  1.00  0.00    -0.189 A  
HETATM   11  H   UNL     1      -7.902  12.797  69.155  1.00  0.00     0.000 HD 
HETATM   12  C   UNL     1     -10.774  10.925  67.271  1.00  0.00    -0.317 A  
HETATM   13  C   UNL     1     -10.754   9.532  67.381  1.00  0.00    -0.297 A  
ENDBRANCH   3   6
ENDBRANCH   2   3
TORSDOF 2
ENDMDL
MODEL      183
REMARK 921   NORMALIZED FREE ENERGY PREDICTED BY IDOCK:   -2.29 KCAL/MOL
REMARK 922        TOTAL FREE ENERGY PREDICTED BY IDOCK:   -2.73 KCAL/MOL
REMARK 923 INTER-LIGAND FREE ENERGY PREDICTED BY IDOCK:   -2.49 KCAL/MOL
REMARK 924 INTRA-LIGAND FREE ENERGY PREDICTED BY IDOCK:   -0.24 KCAL/MOL
REMARK 927      BINDING AFFINITY PREDICTED BY RF-SCORE:    0.00 PKD
ROOT
HETATM    1  C   UNL     1      -8.886   7.915  73.871  1.00  0.00    -0.315 C  
HETATM    2  C   UNL     1     -10.301   7.403  73.643  1.00  0.00    -0.316 C  
ENDROOT
BRANCH   2   3
HETATM    3  N   UNL     1     -10.688   7.258  72.155  1.00  0.00    -0.214 N  
HETATM    4  C   UNL     1     -12.166   6.864  72.072  1.00  0.00    -0.282 C  
HETATM    5  C   UNL     1     -10.512   8.617  71.471  1.00  0.00    -0.274 C  
BRANCH   3   6
HETATM    6  C   UNL     1      -9.906   6.158  71.446  1.00  0.00    -0.175 A  
HETATM    7  C   UNL     1      -9.136   6.433  70.302  1.00  0.00    -0.155 A  
HETATM    8  C   UNL     1      -8.484   5.398  69.632  1.00  0.00    -0.100 A  
HETATM    9  O   UNL     1      -7.734   5.622  68.517  1.00  0.00    -0.086 OA 
HETATM   10  C   UNL     1      -8.586   4.085  70.068  1.00  0.00    -0.102 A  
HETATM   11  H   UNL     1      -7.290   4.917  68.060  1.00  0.00     0.000 HD 
HETATM   12  C   UNL     1      -9.363   3.794  71.182  1.00  0.00    -0.219 A  
HETATM   13  C   UNL     1     -10.031   4.820  71.858  1.00  0.00    -0.252 A  
ENDBRANCH   3   6
ENDBRANCH   2   3
TORSDOF 2
ENDMDL
MODEL      184
REMARK 921   NORMALIZED FREE ENERGY PREDICTED BY IDOCK:   -2.28 KCAL/MOL
REMARK 922        TOTAL FREE ENERGY PREDICTED BY IDOCK:   -2.71 KCAL/MOL
REMARK 923 INTER-LIGAND FREE ENERGY PREDICTED BY IDOCK:   -2.55 KCAL/MOL
REMARK 924 INTRA-LIGAND FREE ENERGY PREDICTED BY IDOCK:   -0.16 KCAL/MOL
REMARK 927      BINDING AFFINITY PREDICTED BY RF-SCORE:    0.00 PKD
ROOT
HETATM    1  C   UNL     1      -9.783   9.653  66.104  1.00  0.00    -0.317 C  
HETATM    2  C   UNL     1     -10.514   8.956  67.242  1.00  0.00    -0.277 C  
ENDROOT
BRANCH   2   3
HETATM    3  N   UNL     1     -10.106   7.482  67.448  1.00  0.00    -0.194 N  
HETATM    4  C   UNL     1     -11.189   6.586  66.840  1.00  0.00    -0.134 C  
HETATM    5  C   UNL     1      -8.795   7.231  66.696  1.00  0.00    -0.139 C  
BRANCH   3   6
HETATM    6  C   UNL     1     -10.001   7.097  68.920  1.00  0.00    -0.163 A  
HETATM    7  C   UNL     1      -9.359   7.936  69.848  1.00  0.00    -0.156 A  
HETATM    8  C   UNL     1      -9.215   7.530  71.175  1.00  0.00    -0.147 A  
HETATM    9  O   UNL     1      -8.595   8.311  72.103  1.00  0.00    -0.154 OA 
HETATM   10  C   UNL     1      -9.691   6.300  71.604  1.00  0.00    -0.177 A  
HETATM   11  H   UNL     1      -8.497   8.034  73.007  1.00  0.00     0.000 HD 
HETATM   12  C   UNL     1     -10.306   5.450  70.693  1.00  0.00    -0.333 A  
HETATM   13  C   UNL     1     -10.446   5.838  69.358  1.00  0.00    -0.360 A  
ENDBRANCH   3   6
ENDBRANCH   2   3
TORSDOF 2
ENDMDL
MODEL      185
REMARK 921   NORMALIZED FREE ENERGY PREDICTED BY IDOCK:   -2.28 KCAL/MOL
REMARK 922        TOTAL FREE ENERGY PREDICTED BY IDOCK:   -2.71 KCAL/MOL
REMARK 923 INTER-LIGAND FREE ENERGY PREDICTED BY IDOCK:   -2.57 KCAL/MOL
REMARK 924 INTRA-LIGAND FREE ENERGY PREDICTED BY IDOCK:   -0.14 KCAL/MOL
REMARK 927      BINDING AFFINITY PREDICTED BY RF-SCORE:    0.00 PKD
ROOT
HETATM    1  C   UNL     1      -8.559  12.616  66.741  1.00  0.00    -0.101 C  
HETATM    2  C   UNL     1      -8.582  11.359  67.600  1.00  0.00    -0.130 C  
ENDROOT
BRANCH   2   3
HETATM    3  N   UNL     1      -9.980  10.726  67.756  1.00  0.00    -0.169 N  
HETATM    4  C   UNL     1     -10.668  11.353  68.972  1.00  0.00    -0.205 C  
HETATM    5  C   UNL     1     -10.807  11.057  66.509  1.00  0.00    -0.209 C  
BRANCH   3   6
HETATM    6  C   UNL     1      -9.923   9.224  68.018  1.00  0.00    -0.182 A  
HETATM    7  C   UNL     1     -10.340   8.298  67.046  1.00  0.00    -0.393 A  
HETATM    8  C   UNL     1     -10.342   6.933  67.335  1.00  0.00    -0.231 A  
HETATM    9  O   UNL     1     -10.743   6.005  66.422  1.00  0.00    -0.479 OA 
HETATM   10  C   UNL     1      -9.944   6.463  68.578  1.00  0.00    -0.155 A  
HETATM   11  H   UNL     1     -10.745   5.076  66.620  1.00  0.00     0.000 HD 
HETATM   12  C   UNL     1      -9.553   7.368  69.557  1.00  0.00    -0.155 A  
HETATM   13  C   UNL     1      -9.557   8.739  69.285  1.00  0.00    -0.162 A  
ENDBRANCH   3   6
ENDBRANCH   2   3
TORSDOF 2
ENDMDL
MODEL      186
REMARK 921   NORMALIZED FREE ENERGY PREDICTED BY IDOCK:   -2.28 KCAL/MOL
REMARK 922        TOTAL FREE ENERGY PREDICTED BY IDOCK:   -2.71 KCAL/MOL
REMARK 923 INTER-LIGAND FREE ENERGY PREDICTED BY IDOCK:   -2.57 KCAL/MOL
REMARK 924 INTRA-LIGAND FREE ENERGY PREDICTED BY IDOCK:   -0.14 KCAL/MOL
REMARK 927      BINDING AFFINITY PREDICTED BY RF-SCORE:    0.00 PKD
ROOT
HETATM    1  C   UNL     1      -7.921   7.620  63.720  1.00  0.00    -0.090 C  
HETATM    2  C   UNL     1      -8.372   8.501  64.877  1.00  0.00    -0.160 C  
ENDROOT
BRANCH   2   3
HETATM    3  N   UNL     1      -8.060  10.000  64.689  1.00  0.00    -0.150 N  
HETATM    4  C   UNL     1      -6.628  10.265  65.164  1.00  0.00    -0.121 C  
HETATM    5  C   UNL     1      -8.142  10.331  63.195  1.00  0.00    -0.158 C  
BRANCH   3   6
HETATM    6  C   UNL     1      -8.966  10.901  65.521  1.00  0.00    -0.197 A  
HETATM    7  C   UNL     1      -8.620  11.270  66.833  1.00  0.00    -0.150 A  
HETATM    8  C   UNL     1      -9.498  12.039  67.598  1.00  0.00    -0.185 A  
HETATM    9  O   UNL     1      -9.202  12.411  68.875  1.00  0.00    -0.386 OA 
HETATM   10  C   UNL     1     -10.722  12.447  67.092  1.00  0.00    -0.264 A  
HETATM   11  H   UNL     1      -9.800  12.935  69.396  1.00  0.00     0.000 HD 
HETATM   12  C   UNL     1     -11.089  12.070  65.805  1.00  0.00    -0.371 A  
HETATM   13  C   UNL     1     -10.224  11.290  65.031  1.00  0.00    -0.339 A  
ENDBRANCH   3   6
ENDBRANCH   2   3
TORSDOF 2
ENDMDL
MODEL      187
REMARK 921   NORMALIZED FREE ENERGY PREDICTED BY IDOCK:   -2.21 KCAL/MOL
REMARK 922        TOTAL FREE ENERGY PREDICTED BY IDOCK:   -2.63 KCAL/MOL
REMARK 923 INTER-LIGAND FREE ENERGY PREDICTED BY IDOCK:   -2.62 KCAL/MOL
REMARK 924 INTRA-LIGAND FREE ENERGY PREDICTED BY IDOCK:   -0.01 KCAL/MOL
REMARK 927      BINDING AFFINITY PREDICTED BY RF-SCORE:    0.00 PKD
ROOT
HETATM    1  C   UNL     1     -10.092  12.294  65.590  1.00  0.00    -0.275 C  
HETATM    2  C   UNL     1      -8.741  12.287  66.292  1.00  0.00     0.062 C  
ENDROOT
BRANCH   2   3
HETATM    3  N   UNL     1      -8.756  12.919  67.700  1.00  0.00    -0.173 N  
HETATM    4  C   UNL     1      -9.737  12.135  68.577  1.00  0.00    -0.149 C  
HETATM    5  C   UNL     1      -7.356  12.789  68.307  1.00  0.00    -0.117 C  
BRANCH   3   6
HETATM    6  C   UNL     1      -9.242  14.365  67.693  1.00  0.00    -0.196 A  
HETATM    7  C   UNL     1     -10.065  14.862  68.718  1.00  0.00    -0.241 A  
HETATM    8  C   UNL     1     -10.552  16.168  68.654  1.00  0.00    -0.283 A  
HETATM    9  O   UNL     1     -11.356  16.685  69.624  1.00  0.00    -0.317 OA 
HETATM   10  C   UNL     1     -10.246  16.995  67.583  1.00  0.00    -0.317 A  
HETATM   11  H   UNL     1     -11.688  17.574  69.579  1.00  0.00     0.000 HD 
HETATM   12  C   UNL     1      -9.454  16.510  66.550  1.00  0.00    -0.296 A  
HETATM   13  C   UNL     1      -8.968  15.200  66.596  1.00  0.00    -0.319 A  
ENDBRANCH   3   6
ENDBRANCH   2   3
TORSDOF 2
ENDMDL
MODEL      188
REMARK 921   NORMALIZED FREE ENERGY PREDICTED BY IDOCK:   -2.20 KCAL/MOL
REMARK 922        TOTAL FREE ENERGY PREDICTED BY IDOCK:   -2.63 KCAL/MOL
REMARK 923 INTER-LIGAND FREE ENERGY PREDICTED BY IDOCK:   -2.50 KCAL/MOL
REMARK 924 INTRA-LIGAND FREE ENERGY PREDICTED BY IDOCK:   -0.13 KCAL/MOL
REMARK 927      BINDING AFFINITY PREDICTED BY RF-SCORE:    0.00 PKD
ROOT
HETATM    1  C   UNL     1      -6.064   7.389  71.466  1.00  0.00    -0.036 C  
HETATM    2  C   UNL     1      -7.132   8.450  71.244  1.00  0.00    -0.070 C  
ENDROOT
BRANCH   2   3
HETATM    3  N   UNL     1      -8.180   8.079  70.174  1.00  0.00    -0.118 N  
HETATM    4  C   UNL     1      -8.536   9.339  69.379  1.00  0.00    -0.137 C  
HETATM    5  C   UNL     1      -7.555   7.062  69.213  1.00  0.00    -0.096 C  
BRANCH   3   6
HETATM    6  C   UNL     1      -9.484   7.565  70.777  1.00  0.00    -0.163 A  
HETATM    7  C   UNL     1      -9.577   7.239  72.141  1.00  0.00    -0.162 A  
HETATM    8  C   UNL     1     -10.760   6.707  72.654  1.00  0.00    -0.235 A  
HETATM    9  O   UNL     1     -10.889   6.373  73.969  1.00  0.00    -0.428 OA 
HETATM   10  C   UNL     1     -11.858   6.481  71.837  1.00  0.00    -0.381 A  
HETATM   11  H   UNL     1     -11.694   6.010  74.318  1.00  0.00     0.000 HD 
HETATM   12  C   UNL     1     -11.773   6.775  70.482  1.00  0.00    -0.430 A  
HETATM   13  C   UNL     1     -10.590   7.299  69.952  1.00  0.00    -0.244 A  
ENDBRANCH   3   6
ENDBRANCH   2   3
TORSDOF 2
ENDMDL
MODEL      189
REMARK 921   NORMALIZED FREE ENERGY PREDICTED BY IDOCK:   -2.19 KCAL/MOL
REMARK 922        TOTAL FREE ENERGY PREDICTED BY IDOCK:   -2.62 KCAL/MOL
REMARK 923 INTER-LIGAND FREE ENERGY PREDICTED BY IDOCK:   -2.52 KCAL/MOL
REMARK 924 INTRA-LIGAND FREE ENERGY PREDICTED BY IDOCK:   -0.10 KCAL/MOL
REMARK 927      BINDING AFFINITY PREDICTED BY RF-SCORE:    0.00 PKD
ROOT
HETATM    1  C   UNL     1      -9.361   7.833  66.472  1.00  0.00    -0.243 C  
HETATM    2  C   UNL     1      -8.462   8.588  67.441  1.00  0.00    -0.127 C  
ENDROOT
BRANCH   2   3
HETATM    3  N   UNL     1      -9.221   9.497  68.430  1.00  0.00    -0.130 N  
HETATM    4  C   UNL     1      -8.313  10.670  68.811  1.00  0.00    -0.144 C  
HETATM    5  C   UNL     1     -10.461  10.056  67.725  1.00  0.00    -0.234 C  
BRANCH   3   6
HETATM    6  C   UNL     1      -9.578   8.786  69.731  1.00  0.00    -0.172 A  
HETATM    7  C   UNL     1      -9.205   7.450  69.958  1.00  0.00    -0.148 A  
HETATM    8  C   UNL     1      -9.603   6.801  71.127  1.00  0.00    -0.173 A  
HETATM    9  O   UNL     1      -9.266   5.505  71.380  1.00  0.00    -0.144 OA 
HETATM   10  C   UNL     1     -10.375   7.448  72.080  1.00  0.00    -0.223 A  
HETATM   11  H   UNL     1      -9.538   5.063  72.177  1.00  0.00     0.000 HD 
HETATM   12  C   UNL     1     -10.772   8.761  71.858  1.00  0.00    -0.429 A  
HETATM   13  C   UNL     1     -10.390   9.421  70.687  1.00  0.00    -0.349 A  
ENDBRANCH   3   6
ENDBRANCH   2   3
TORSDOF 2
ENDMDL
MODEL      190
REMARK 921   NORMALIZED FREE ENERGY PREDICTED BY IDOCK:   -2.18 KCAL/MOL
REMARK 922        TOTAL FREE ENERGY PREDICTED BY IDOCK:   -2.60 KCAL/MOL
REMARK 923 INTER-LIGAND FREE ENERGY PREDICTED BY IDOCK:   -2.42 KCAL/MOL
REMARK 924 INTRA-LIGAND FREE ENERGY PREDICTED BY IDOCK:   -0.18 KCAL/MOL
REMARK 927      BINDING AFFINITY PREDICTED BY RF-SCORE:    0.00 PKD
ROOT
HETATM    1  C   UNL     1     -10.545  10.588  66.764  1.00  0.00    -0.284 C  
HETATM    2  C   UNL     1     -11.357   9.949  67.882  1.00  0.00     0.129 C  
ENDROOT
BRANCH   2   3
HETATM    3  N   UNL     1     -11.115  10.572  69.273  1.00  0.00    -0.230 N  
HETATM    4  C   UNL     1     -10.253  11.827  69.104  1.00  0.00     0.076 C  
HETATM    5  C   UNL     1     -12.467  10.991  69.860  1.00  0.00    -0.219 C  
BRANCH   3   6
HETATM    6  C   UNL     1     -10.350   9.645  70.211  1.00  0.00    -0.280 A  
HETATM    7  C   UNL     1     -10.944   9.139  71.381  1.00  0.00    -0.414 A  
HETATM    8  C   UNL     1     -10.201   8.348  72.257  1.00  0.00    -0.326 A  
HETATM    9  O   UNL     1     -10.738   7.843  73.403  1.00  0.00    -0.282 OA 
HETATM   10  C   UNL     1      -8.870   8.051  72.003  1.00  0.00    -0.209 A  
HETATM   11  H   UNL     1     -10.231   7.305  74.000  1.00  0.00     0.000 HD 
HETATM   12  C   UNL     1      -8.262   8.564  70.863  1.00  0.00    -0.150 A  
HETATM   13  C   UNL     1      -8.991   9.367  69.981  1.00  0.00    -0.234 A  
ENDBRANCH   3   6
ENDBRANCH   2   3
TORSDOF 2
ENDMDL
MODEL      191
REMARK 921   NORMALIZED FREE ENERGY PREDICTED BY IDOCK:   -2.16 KCAL/MOL
REMARK 922        TOTAL FREE ENERGY PREDICTED BY IDOCK:   -2.57 KCAL/MOL
REMARK 923 INTER-LIGAND FREE ENERGY PREDICTED BY IDOCK:   -2.44 KCAL/MOL
REMARK 924 INTRA-LIGAND FREE ENERGY PREDICTED BY IDOCK:   -0.13 KCAL/MOL
REMARK 927      BINDING AFFINITY PREDICTED BY RF-SCORE:    0.00 PKD
ROOT
HETATM    1  C   UNL     1      -9.526   4.495  67.306  1.00  0.00    -0.184 C  
HETATM    2  C   UNL     1      -9.442   5.103  68.699  1.00  0.00    -0.133 C  
ENDROOT
BRANCH   2   3
HETATM    3  N   UNL     1      -9.766   6.611  68.752  1.00  0.00    -0.130 N  
HETATM    4  C   UNL     1      -8.665   7.373  68.010  1.00  0.00    -0.124 C  
HETATM    5  C   UNL     1     -11.093   6.849  68.024  1.00  0.00    -0.096 C  
BRANCH   3   6
HETATM    6  C   UNL     1      -9.791   7.161  70.174  1.00  0.00    -0.179 A  
HETATM    7  C   UNL     1      -8.664   7.790  70.732  1.00  0.00    -0.134 A  
HETATM    8  C   UNL     1      -8.689   8.223  72.058  1.00  0.00    -0.182 A  
HETATM    9  O   UNL     1      -7.616   8.833  72.636  1.00  0.00    -0.353 OA 
HETATM   10  C   UNL     1      -9.811   8.038  72.852  1.00  0.00    -0.357 A  
HETATM   11  H   UNL     1      -7.634   9.127  73.539  1.00  0.00     0.000 HD 
HETATM   12  C   UNL     1     -10.923   7.395  72.322  1.00  0.00    -0.296 A  
HETATM   13  C   UNL     1     -10.909   6.946  70.999  1.00  0.00    -0.272 A  
ENDBRANCH   3   6
ENDBRANCH   2   3
TORSDOF 2
ENDMDL
MODEL      192
REMARK 921   NORMALIZED FREE ENERGY PREDICTED BY IDOCK:   -2.15 KCAL/MOL
REMARK 922        TOTAL FREE ENERGY PREDICTED BY IDOCK:   -2.56 KCAL/MOL
REMARK 923 INTER-LIGAND FREE ENERGY PREDICTED BY IDOCK:   -2.41 KCAL/MOL
REMARK 924 INTRA-LIGAND FREE ENERGY PREDICTED BY IDOCK:   -0.16 KCAL/MOL
REMARK 927      BINDING AFFINITY PREDICTED BY RF-SCORE:    0.00 PKD
ROOT
HETATM    1  C   UNL     1      -6.880   4.534  68.391  1.00  0.00    -0.051 C  
HETATM    2  C   UNL     1      -7.510   5.668  69.187  1.00  0.00    -0.083 C  
ENDROOT
BRANCH   2   3
HETATM    3  N   UNL     1      -8.299   5.206  70.431  1.00  0.00    -0.103 N  
HETATM    4  C   UNL     1      -8.742   3.756  70.217  1.00  0.00    -0.076 C  
HETATM    5  C   UNL     1      -7.364   5.250  71.644  1.00  0.00    -0.085 C  
BRANCH   3   6
HETATM    6  C   UNL     1      -9.569   6.018  70.661  1.00  0.00    -0.173 A  
HETATM    7  C   UNL     1     -10.547   5.596  71.578  1.00  0.00    -0.306 A  
HETATM    8  C   UNL     1     -11.731   6.320  71.720  1.00  0.00    -0.299 A  
HETATM    9  O   UNL     1     -12.706   5.940  72.593  1.00  0.00    -0.514 OA 
HETATM   10  C   UNL     1     -11.972   7.457  70.963  1.00  0.00    -0.337 A  
HETATM   11  H   UNL     1     -13.513   6.434  72.690  1.00  0.00     0.000 HD 
HETATM   12  C   UNL     1     -11.025   7.872  70.036  1.00  0.00    -0.208 A  
HETATM   13  C   UNL     1      -9.839   7.151  69.874  1.00  0.00    -0.174 A  
ENDBRANCH   3   6
ENDBRANCH   2   3
TORSDOF 2
ENDMDL
MODEL      193
REMARK 921   NORMALIZED FREE ENERGY PREDICTED BY IDOCK:   -2.13 KCAL/MOL
REMARK 922        TOTAL FREE ENERGY PREDICTED BY IDOCK:   -2.55 KCAL/MOL
REMARK 923 INTER-LIGAND FREE ENERGY PREDICTED BY IDOCK:   -2.57 KCAL/MOL
REMARK 924 INTRA-LIGAND FREE ENERGY PREDICTED BY IDOCK:    0.02 KCAL/MOL
REMARK 927      BINDING AFFINITY PREDICTED BY RF-SCORE:    0.00 PKD
ROOT
HETATM    1  C   UNL     1     -11.136  10.176  68.596  1.00  0.00    -0.254 C  
HETATM    2  C   UNL     1     -11.845  11.518  68.481  1.00  0.00    -0.297 C  
ENDROOT
BRANCH   2   3
HETATM    3  N   UNL     1     -11.214  12.481  67.453  1.00  0.00    -0.276 N  
HETATM    4  C   UNL     1     -11.869  12.239  66.091  1.00  0.00    -0.329 C  
HETATM    5  C   UNL     1     -11.517  13.919  67.885  1.00  0.00    -0.318 C  
BRANCH   3   6
HETATM    6  C   UNL     1      -9.720  12.246  67.264  1.00  0.00    -0.195 A  
HETATM    7  C   UNL     1      -9.233  11.477  66.192  1.00  0.00    -0.230 A  
HETATM    8  C   UNL     1      -7.867  11.220  66.079  1.00  0.00     0.046 A  
HETATM    9  O   UNL     1      -7.357  10.475  65.058  1.00  0.00    -0.281 OA 
HETATM   10  C   UNL     1      -6.966  11.704  67.015  1.00  0.00    -0.144 A  
HETATM   11  H   UNL     1      -6.426  10.300  64.982  1.00  0.00     0.000 HD 
HETATM   12  C   UNL     1      -7.434  12.445  68.094  1.00  0.00    -0.118 A  
HETATM   13  C   UNL     1      -8.802  12.701  68.226  1.00  0.00    -0.172 A  
ENDBRANCH   3   6
ENDBRANCH   2   3
TORSDOF 2
ENDMDL
MODEL      194
REMARK 921   NORMALIZED FREE ENERGY PREDICTED BY IDOCK:   -2.13 KCAL/MOL
REMARK 922        TOTAL FREE ENERGY PREDICTED BY IDOCK:   -2.54 KCAL/MOL
REMARK 923 INTER-LIGAND FREE ENERGY PREDICTED BY IDOCK:   -2.37 KCAL/MOL
REMARK 924 INTRA-LIGAND FREE ENERGY PREDICTED BY IDOCK:   -0.18 KCAL/MOL
REMARK 927      BINDING AFFINITY PREDICTED BY RF-SCORE:    0.00 PKD
ROOT
HETATM    1  C   UNL     1     -12.008  13.140  68.725  1.00  0.00    -0.316 C  
HETATM    2  C   UNL     1     -10.629  13.412  68.141  1.00  0.00    -0.245 C  
ENDROOT
BRANCH   2   3
HETATM    3  N   UNL     1     -10.389  12.769  66.759  1.00  0.00    -0.238 N  
HETATM    4  C   UNL     1     -11.705  12.156  66.271  1.00  0.00    -0.320 C  
HETATM    5  C   UNL     1      -9.975  13.868  65.776  1.00  0.00    -0.284 C  
BRANCH   3   6
HETATM    6  C   UNL     1      -9.373  11.633  66.803  1.00  0.00    -0.186 A  
HETATM    7  C   UNL     1      -7.992  11.887  66.731  1.00  0.00    -0.087 A  
HETATM    8  C   UNL     1      -7.085  10.827  66.705  1.00  0.00    -0.133 A  
HETATM    9  O   UNL     1      -5.741  11.032  66.630  1.00  0.00    -0.075 OA 
HETATM   10  C   UNL     1      -7.520   9.511  66.741  1.00  0.00    -0.094 A  
HETATM   11  H   UNL     1      -5.123  10.310  66.611  1.00  0.00     0.000 HD 
HETATM   12  C   UNL     1      -8.883   9.243  66.787  1.00  0.00    -0.142 A  
HETATM   13  C   UNL     1      -9.804  10.295  66.803  1.00  0.00    -0.246 A  
ENDBRANCH   3   6
ENDBRANCH   2   3
TORSDOF 2
ENDMDL
MODEL      195
REMARK 921   NORMALIZED FREE ENERGY PREDICTED BY IDOCK:   -2.13 KCAL/MOL
REMARK 922        TOTAL FREE ENERGY PREDICTED BY IDOCK:   -2.54 KCAL/MOL
REMARK 923 INTER-LIGAND FREE ENERGY PREDICTED BY IDOCK:   -2.38 KCAL/MOL
REMARK 924 INTRA-LIGAND FREE ENERGY PREDICTED BY IDOCK:   -0.16 KCAL/MOL
REMARK 927      BINDING AFFINITY PREDICTED BY RF-SCORE:    0.00 PKD
ROOT
HETATM    1  C   UNL     1     -11.067  11.759  65.990  1.00  0.00    -0.363 C  
HETATM    2  C   UNL     1      -9.781  11.221  66.599  1.00  0.00    -0.196 C  
ENDROOT
BRANCH   2   3
HETATM    3  N   UNL     1      -9.598  11.560  68.094  1.00  0.00    -0.181 N  
HETATM    4  C   UNL     1      -8.175  12.085  68.305  1.00  0.00    -0.161 C  
HETATM    5  C   UNL     1     -10.584  12.673  68.463  1.00  0.00    -0.243 C  
BRANCH   3   6
HETATM    6  C   UNL     1      -9.750  10.342  68.999  1.00  0.00    -0.206 A  
HETATM    7  C   UNL     1      -9.027  10.232  70.199  1.00  0.00     0.251 A  
HETATM    8  C   UNL     1      -9.131   9.078  70.976  1.00  0.00    -0.257 A  
HETATM    9  O   UNL     1      -8.442   8.930  72.142  1.00  0.00    -0.382 OA 
HETATM   10  C   UNL     1      -9.935   8.019  70.582  1.00  0.00    -0.198 A  
HETATM   11  H   UNL     1      -8.513   8.143  72.670  1.00  0.00     0.000 HD 
HETATM   12  C   UNL     1     -10.637   8.103  69.385  1.00  0.00    -0.206 A  
HETATM   13  C   UNL     1     -10.534   9.249  68.592  1.00  0.00    -0.236 A  
ENDBRANCH   3   6
ENDBRANCH   2   3
TORSDOF 2
ENDMDL
MODEL      196
REMARK 921   NORMALIZED FREE ENERGY PREDICTED BY IDOCK:   -2.12 KCAL/MOL
REMARK 922        TOTAL FREE ENERGY PREDICTED BY IDOCK:   -2.53 KCAL/MOL
REMARK 923 INTER-LIGAND FREE ENERGY PREDICTED BY IDOCK:   -2.36 KCAL/MOL
REMARK 924 INTRA-LIGAND FREE ENERGY PREDICTED BY IDOCK:   -0.17 KCAL/MOL
REMARK 927      BINDING AFFINITY PREDICTED BY RF-SCORE:    0.00 PKD
ROOT
HETATM    1  C   UNL     1      -5.641   6.743  69.518  1.00  0.00    -0.015 C  
HETATM    2  C   UNL     1      -6.847   7.340  70.228  1.00  0.00    -0.052 C  
ENDROOT
BRANCH   2   3
HETATM    3  N   UNL     1      -7.691   6.313  71.013  1.00  0.00    -0.103 N  
HETATM    4  C   UNL     1      -7.172   4.908  70.693  1.00  0.00    -0.053 C  
HETATM    5  C   UNL     1      -7.500   6.569  72.511  1.00  0.00    -0.090 C  
BRANCH   3   6
HETATM    6  C   UNL     1      -9.163   6.332  70.615  1.00  0.00    -0.158 A  
HETATM    7  C   UNL     1      -9.554   6.297  69.265  1.00  0.00    -0.147 A  
HETATM    8  C   UNL     1     -10.904   6.384  68.925  1.00  0.00    -0.325 A  
HETATM    9  O   UNL     1     -11.323   6.359  67.629  1.00  0.00    -0.625 OA 
HETATM   10  C   UNL     1     -11.883   6.514  69.900  1.00  0.00    -0.223 A  
HETATM   11  H   UNL     1     -12.243   6.419  67.398  1.00  0.00     0.000 HD 
HETATM   12  C   UNL     1     -11.509   6.575  71.237  1.00  0.00    -0.371 A  
HETATM   13  C   UNL     1     -10.160   6.500  71.592  1.00  0.00    -0.202 A  
ENDBRANCH   3   6
ENDBRANCH   2   3
TORSDOF 2
ENDMDL
MODEL      197
REMARK 921   NORMALIZED FREE ENERGY PREDICTED BY IDOCK:   -2.11 KCAL/MOL
REMARK 922        TOTAL FREE ENERGY PREDICTED BY IDOCK:   -2.52 KCAL/MOL
REMARK 923 INTER-LIGAND FREE ENERGY PREDICTED BY IDOCK:   -2.31 KCAL/MOL
REMARK 924 INTRA-LIGAND FREE ENERGY PREDICTED BY IDOCK:   -0.21 KCAL/MOL
REMARK 927      BINDING AFFINITY PREDICTED BY RF-SCORE:    0.00 PKD
ROOT
HETATM    1  C   UNL     1      -6.502   8.754  70.548  1.00  0.00    -0.040 C  
HETATM    2  C   UNL     1      -7.727   9.641  70.372  1.00  0.00    -0.160 C  
ENDROOT
BRANCH   2   3
HETATM    3  N   UNL     1      -8.501   9.397  69.060  1.00  0.00    -0.125 N  
HETATM    4  C   UNL     1      -9.413  10.600  68.799  1.00  0.00    -0.183 C  
HETATM    5  C   UNL     1      -7.493   9.298  67.911  1.00  0.00    -0.084 C  
BRANCH   3   6
HETATM    6  C   UNL     1      -9.408   8.173  69.128  1.00  0.00    -0.151 A  
HETATM    7  C   UNL     1      -9.633   7.368  67.998  1.00  0.00    -0.152 A  
HETATM    8  C   UNL     1     -10.521   6.294  68.069  1.00  0.00    -0.224 A  
HETATM    9  O   UNL     1     -10.769   5.494  66.994  1.00  0.00    -0.292 OA 
HETATM   10  C   UNL     1     -11.202   6.003  69.241  1.00  0.00    -0.367 A  
HETATM   11  H   UNL     1     -11.374   4.763  67.043  1.00  0.00     0.000 HD 
HETATM   12  C   UNL     1     -11.009   6.804  70.360  1.00  0.00    -0.330 A  
HETATM   13  C   UNL     1     -10.131   7.890  70.300  1.00  0.00    -0.196 A  
ENDBRANCH   3   6
ENDBRANCH   2   3
TORSDOF 2
ENDMDL
MODEL      198
REMARK 921   NORMALIZED FREE ENERGY PREDICTED BY IDOCK:   -2.10 KCAL/MOL
REMARK 922        TOTAL FREE ENERGY PREDICTED BY IDOCK:   -2.51 KCAL/MOL
REMARK 923 INTER-LIGAND FREE ENERGY PREDICTED BY IDOCK:   -2.38 KCAL/MOL
REMARK 924 INTRA-LIGAND FREE ENERGY PREDICTED BY IDOCK:   -0.13 KCAL/MOL
REMARK 927      BINDING AFFINITY PREDICTED BY RF-SCORE:    0.00 PKD
ROOT
HETATM    1  C   UNL     1      -6.759   5.472  70.330  1.00  0.00    -0.047 C  
HETATM    2  C   UNL     1      -7.243   5.350  68.892  1.00  0.00    -0.066 C  
ENDROOT
BRANCH   2   3
HETATM    3  N   UNL     1      -8.124   4.111  68.624  1.00  0.00    -0.072 N  
HETATM    4  C   UNL     1      -7.289   2.853  68.877  1.00  0.00    -0.048 C  
HETATM    5  C   UNL     1      -9.293   4.123  69.615  1.00  0.00    -0.171 C  
BRANCH   3   6
HETATM    6  C   UNL     1      -8.604   4.029  67.179  1.00  0.00    -0.102 A  
HETATM    7  C   UNL     1      -9.901   4.433  66.817  1.00  0.00    -0.241 A  
HETATM    8  C   UNL     1     -10.339   4.284  65.501  1.00  0.00    -0.188 A  
HETATM    9  O   UNL     1     -11.590   4.659  65.113  1.00  0.00    -1.107 OA 
HETATM   10  C   UNL     1      -9.518   3.732  64.530  1.00  0.00    -0.163 A  
HETATM   11  H   UNL     1     -11.889   4.557  64.216  1.00  0.00     0.000 HD 
HETATM   12  C   UNL     1      -8.242   3.305  64.878  1.00  0.00    -0.090 A  
HETATM   13  C   UNL     1      -7.793   3.438  66.195  1.00  0.00    -0.085 A  
ENDBRANCH   3   6
ENDBRANCH   2   3
TORSDOF 2
ENDMDL
MODEL      199
REMARK 921   NORMALIZED FREE ENERGY PREDICTED BY IDOCK:   -2.10 KCAL/MOL
REMARK 922        TOTAL FREE ENERGY PREDICTED BY IDOCK:   -2.51 KCAL/MOL
REMARK 923 INTER-LIGAND FREE ENERGY PREDICTED BY IDOCK:   -2.34 KCAL/MOL
REMARK 924 INTRA-LIGAND FREE ENERGY PREDICTED BY IDOCK:   -0.17 KCAL/MOL
REMARK 927      BINDING AFFINITY PREDICTED BY RF-SCORE:    0.00 PKD
ROOT
HETATM    1  C   UNL     1      -7.390   2.594  68.705  1.00  0.00    -0.048 C  
HETATM    2  C   UNL     1      -8.862   2.978  68.752  1.00  0.00    -0.117 C  
ENDROOT
BRANCH   2   3
HETATM    3  N   UNL     1      -9.129   4.483  68.537  1.00  0.00    -0.113 N  
HETATM    4  C   UNL     1      -7.788   5.194  68.334  1.00  0.00    -0.087 C  
HETATM    5  C   UNL     1      -9.962   4.653  67.263  1.00  0.00    -0.159 C  
BRANCH   3   6
HETATM    6  C   UNL     1      -9.791   5.144  69.742  1.00  0.00    -0.212 A  
HETATM    7  C   UNL     1      -9.797   4.520  71.002  1.00  0.00    -0.266 A  
HETATM    8  C   UNL     1     -10.469   5.113  72.072  1.00  0.00    -0.215 A  
HETATM    9  O   UNL     1     -10.503   4.538  73.307  1.00  0.00    -0.165 OA 
HETATM   10  C   UNL     1     -11.145   6.314  71.918  1.00  0.00    -0.315 A  
HETATM   11  H   UNL     1     -10.961   4.942  74.036  1.00  0.00     0.000 HD 
HETATM   12  C   UNL     1     -11.168   6.929  70.672  1.00  0.00    -0.346 A  
HETATM   13  C   UNL     1     -10.510   6.342  69.588  1.00  0.00    -0.295 A  
ENDBRANCH   3   6
ENDBRANCH   2   3
TORSDOF 2
ENDMDL
MODEL      200
REMARK 921   NORMALIZED FREE ENERGY PREDICTED BY IDOCK:   -2.09 KCAL/MOL
REMARK 922        TOTAL FREE ENERGY PREDICTED BY IDOCK:   -2.50 KCAL/MOL
REMARK 923 INTER-LIGAND FREE ENERGY PREDICTED BY IDOCK:   -2.33 KCAL/MOL
REMARK 924 INTRA-LIGAND FREE ENERGY PREDICTED BY IDOCK:   -0.17 KCAL/MOL
REMARK 927      BINDING AFFINITY PREDICTED BY RF-SCORE:    0.00 PKD
ROOT
HETATM    1  C   UNL     1     -10.579   5.093  66.342  1.00  0.00    -0.336 C  
HETATM    2  C   UNL     1      -9.435   6.004  66.762  1.00  0.00    -0.144 C  
ENDROOT
BRANCH   2   3
HETATM    3  N   UNL     1      -9.383   6.296  68.277  1.00  0.00    -0.114 N  
HETATM    4  C   UNL     1     -10.567   5.596  68.950  1.00  0.00    -0.233 C  
HETATM    5  C   UNL     1      -8.088   5.706  68.842  1.00  0.00    -0.100 C  
BRANCH   3   6
HETATM    6  C   UNL     1      -9.519   7.781  68.597  1.00  0.00    -0.152 A  
HETATM    7  C   UNL     1     -10.763   8.343  68.935  1.00  0.00    -0.095 A  
HETATM    8  C   UNL     1     -10.874   9.716  69.157  1.00  0.00    -0.190 A  
HETATM    9  O   UNL     1     -12.061  10.299  69.481  1.00  0.00    -0.495 OA 
HETATM   10  C   UNL     1      -9.773  10.552  69.042  1.00  0.00    -0.221 A  
HETATM   11  H   UNL     1     -12.137  11.234  69.631  1.00  0.00     0.000 HD 
HETATM   12  C   UNL     1      -8.542  10.014  68.685  1.00  0.00    -0.123 A  
HETATM   13  C   UNL     1      -8.418   8.642  68.449  1.00  0.00    -0.131 A  
ENDBRANCH   3   6
ENDBRANCH   2   3
TORSDOF 2
ENDMDL
MODEL      201
REMARK 921   NORMALIZED FREE ENERGY PREDICTED BY IDOCK:   -2.08 KCAL/MOL
REMARK 922        TOTAL FREE ENERGY PREDICTED BY IDOCK:   -2.49 KCAL/MOL
REMARK 923 INTER-LIGAND FREE ENERGY PREDICTED BY IDOCK:   -2.34 KCAL/MOL
REMARK 924 INTRA-LIGAND FREE ENERGY PREDICTED BY IDOCK:   -0.16 KCAL/MOL
REMARK 927      BINDING AFFINITY PREDICTED BY RF-SCORE:    0.00 PKD
ROOT
HETATM    1  C   UNL     1     -10.309  10.857  67.076  1.00  0.00    -0.276 C  
HETATM    2  C   UNL     1     -10.973   9.942  68.095  1.00  0.00    -0.207 C  
ENDROOT
BRANCH   2   3
HETATM    3  N   UNL     1      -9.985   9.086  68.914  1.00  0.00    -0.183 N  
HETATM    4  C   UNL     1      -8.947  10.013  69.552  1.00  0.00    -0.205 C  
HETATM    5  C   UNL     1     -10.760   8.386  70.035  1.00  0.00    -0.236 C  
BRANCH   3   6
HETATM    6  C   UNL     1      -9.209   8.094  68.054  1.00  0.00    -0.132 A  
HETATM    7  C   UNL     1      -9.846   7.349  67.046  1.00  0.00    -0.273 A  
HETATM    8  C   UNL     1      -9.128   6.399  66.319  1.00  0.00    -0.151 A  
HETATM    9  O   UNL     1      -9.710   5.653  65.339  1.00  0.00    -0.365 OA 
HETATM   10  C   UNL     1      -7.786   6.162  66.576  1.00  0.00    -0.104 A  
HETATM   11  H   UNL     1      -9.222   5.005  64.844  1.00  0.00     0.000 HD 
HETATM   12  C   UNL     1      -7.149   6.873  67.586  1.00  0.00    -0.085 A  
HETATM   13  C   UNL     1      -7.858   7.821  68.330  1.00  0.00    -0.121 A  
ENDBRANCH   3   6
ENDBRANCH   2   3
TORSDOF 2
ENDMDL
MODEL      202
REMARK 921   NORMALIZED FREE ENERGY PREDICTED BY IDOCK:   -2.08 KCAL/MOL
REMARK 922        TOTAL FREE ENERGY PREDICTED BY IDOCK:   -2.49 KCAL/MOL
REMARK 923 INTER-LIGAND FREE ENERGY PREDICTED BY IDOCK:   -2.34 KCAL/MOL
REMARK 924 INTRA-LIGAND FREE ENERGY PREDICTED BY IDOCK:   -0.15 KCAL/MOL
REMARK 927      BINDING AFFINITY PREDICTED BY RF-SCORE:    0.00 PKD
ROOT
HETATM    1  C   UNL     1      -6.834   8.079  73.919  1.00  0.00    -0.141 C  
HETATM    2  C   UNL     1      -8.242   8.411  73.444  1.00  0.00    -0.106 C  
ENDROOT
BRANCH   2   3
HETATM    3  N   UNL     1      -8.632   7.740  72.109  1.00  0.00    -0.121 N  
HETATM    4  C   UNL     1      -8.437   8.754  70.978  1.00  0.00    -0.179 C  
HETATM    5  C   UNL     1      -7.690   6.558  71.865  1.00  0.00    -0.098 C  
BRANCH   3   6
HETATM    6  C   UNL     1     -10.097   7.319  72.066  1.00  0.00    -0.184 A  
HETATM    7  C   UNL     1     -11.110   8.237  71.739  1.00  0.00    -0.342 A  
HETATM    8  C   UNL     1     -12.448   7.844  71.774  1.00  0.00    -0.323 A  
HETATM    9  O   UNL     1     -13.459   8.706  71.469  1.00  0.00    -0.387 OA 
HETATM   10  C   UNL     1     -12.808   6.555  72.135  1.00  0.00    -0.038 A  
HETATM   11  H   UNL     1     -14.371   8.438  71.493  1.00  0.00     0.000 HD 
HETATM   12  C   UNL     1     -11.819   5.643  72.485  1.00  0.00    -0.194 A  
HETATM   13  C   UNL     1     -10.475   6.025  72.465  1.00  0.00    -0.233 A  
ENDBRANCH   3   6
ENDBRANCH   2   3
TORSDOF 2
ENDMDL
MODEL      203
REMARK 921   NORMALIZED FREE ENERGY PREDICTED BY IDOCK:   -2.08 KCAL/MOL
REMARK 922        TOTAL FREE ENERGY PREDICTED BY IDOCK:   -2.49 KCAL/MOL
REMARK 923 INTER-LIGAND FREE ENERGY PREDICTED BY IDOCK:   -2.61 KCAL/MOL
REMARK 924 INTRA-LIGAND FREE ENERGY PREDICTED BY IDOCK:    0.12 KCAL/MOL
REMARK 927      BINDING AFFINITY PREDICTED BY RF-SCORE:    0.00 PKD
ROOT
HETATM    1  C   UNL     1     -12.485  10.271  70.210  1.00  0.00    -0.239 C  
HETATM    2  C   UNL     1     -11.060  10.774  70.032  1.00  0.00    -0.255 C  
ENDROOT
BRANCH   2   3
HETATM    3  N   UNL     1     -10.132   9.793  69.283  1.00  0.00    -0.186 N  
HETATM    4  C   UNL     1     -10.577   9.720  67.820  1.00  0.00    -0.266 C  
HETATM    5  C   UNL     1      -8.704  10.346  69.326  1.00  0.00    -0.150 C  
BRANCH   3   6
HETATM    6  C   UNL     1     -10.210   8.372  69.831  1.00  0.00    -0.201 A  
HETATM    7  C   UNL     1     -10.198   7.259  68.973  1.00  0.00    -0.197 A  
HETATM    8  C   UNL     1     -10.339   5.972  69.494  1.00  0.00    -0.233 A  
HETATM    9  O   UNL     1     -10.338   4.868  68.695  1.00  0.00    -0.096 OA 
HETATM   10  C   UNL     1     -10.501   5.764  70.855  1.00  0.00    -0.317 A  
HETATM   11  H   UNL     1     -10.434   3.992  69.050  1.00  0.00     0.000 HD 
HETATM   12  C   UNL     1     -10.539   6.856  71.713  1.00  0.00    -0.235 A  
HETATM   13  C   UNL     1     -10.410   8.152  71.205  1.00  0.00    -0.237 A  
ENDBRANCH   3   6
ENDBRANCH   2   3
TORSDOF 2
ENDMDL
MODEL      204
REMARK 921   NORMALIZED FREE ENERGY PREDICTED BY IDOCK:   -2.07 KCAL/MOL
REMARK 922        TOTAL FREE ENERGY PREDICTED BY IDOCK:   -2.48 KCAL/MOL
REMARK 923 INTER-LIGAND FREE ENERGY PREDICTED BY IDOCK:   -2.35 KCAL/MOL
REMARK 924 INTRA-LIGAND FREE ENERGY PREDICTED BY IDOCK:   -0.13 KCAL/MOL
REMARK 927      BINDING AFFINITY PREDICTED BY RF-SCORE:    0.00 PKD
ROOT
HETATM    1  C   UNL     1      -8.451   4.158  66.472  1.00  0.00    -0.104 C  
HETATM    2  C   UNL     1      -9.056   5.551  66.579  1.00  0.00    -0.138 C  
ENDROOT
BRANCH   2   3
HETATM    3  N   UNL     1      -8.208   6.660  65.920  1.00  0.00    -0.125 N  
HETATM    4  C   UNL     1      -6.917   6.831  66.725  1.00  0.00    -0.067 C  
HETATM    5  C   UNL     1      -7.838   6.213  64.503  1.00  0.00    -0.114 C  
BRANCH   3   6
HETATM    6  C   UNL     1      -8.905   8.017  65.925  1.00  0.00    -0.153 A  
HETATM    7  C   UNL     1      -8.682   8.954  64.901  1.00  0.00    -0.184 A  
HETATM    8  C   UNL     1      -9.277  10.214  64.964  1.00  0.00    -0.217 A  
HETATM    9  O   UNL     1      -9.082  11.152  63.995  1.00  0.00    -0.342 OA 
HETATM   10  C   UNL     1     -10.088  10.572  66.031  1.00  0.00    -0.317 A  
HETATM   11  H   UNL     1      -9.487  12.010  64.038  1.00  0.00     0.000 HD 
HETATM   12  C   UNL     1     -10.298   9.665  67.063  1.00  0.00    -0.315 A  
HETATM   13  C   UNL     1      -9.699   8.403  67.019  1.00  0.00    -0.268 A  
ENDBRANCH   3   6
ENDBRANCH   2   3
TORSDOF 2
ENDMDL
MODEL      205
REMARK 921   NORMALIZED FREE ENERGY PREDICTED BY IDOCK:   -2.07 KCAL/MOL
REMARK 922        TOTAL FREE ENERGY PREDICTED BY IDOCK:   -2.48 KCAL/MOL
REMARK 923 INTER-LIGAND FREE ENERGY PREDICTED BY IDOCK:   -2.30 KCAL/MOL
REMARK 924 INTRA-LIGAND FREE ENERGY PREDICTED BY IDOCK:   -0.17 KCAL/MOL
REMARK 927      BINDING AFFINITY PREDICTED BY RF-SCORE:    0.00 PKD
ROOT
HETATM    1  C   UNL     1      -5.862   6.610  70.277  1.00  0.00    -0.023 C  
HETATM    2  C   UNL     1      -6.636   7.591  71.145  1.00  0.00    -0.039 C  
ENDROOT
BRANCH   2   3
HETATM    3  N   UNL     1      -7.545   6.923  72.199  1.00  0.00    -0.092 N  
HETATM    4  C   UNL     1      -7.283   5.414  72.183  1.00  0.00    -0.088 C  
HETATM    5  C   UNL     1      -7.166   7.464  73.581  1.00  0.00    -0.091 C  
BRANCH   3   6
HETATM    6  C   UNL     1      -9.029   7.108  71.903  1.00  0.00    -0.127 A  
HETATM    7  C   UNL     1      -9.660   8.351  72.090  1.00  0.00    -0.367 A  
HETATM    8  C   UNL     1     -11.033   8.477  71.877  1.00  0.00    -0.324 A  
HETATM    9  O   UNL     1     -11.682   9.662  72.054  1.00  0.00    -0.282 OA 
HETATM   10  C   UNL     1     -11.802   7.391  71.488  1.00  0.00    -0.327 A  
HETATM   11  H   UNL     1     -12.618   9.748  71.909  1.00  0.00     0.000 HD 
HETATM   12  C   UNL     1     -11.197   6.151  71.323  1.00  0.00    -0.348 A  
HETATM   13  C   UNL     1      -9.824   6.006  71.543  1.00  0.00    -0.197 A  
ENDBRANCH   3   6
ENDBRANCH   2   3
TORSDOF 2
ENDMDL
MODEL      206
REMARK 921   NORMALIZED FREE ENERGY PREDICTED BY IDOCK:   -2.05 KCAL/MOL
REMARK 922        TOTAL FREE ENERGY PREDICTED BY IDOCK:   -2.45 KCAL/MOL
REMARK 923 INTER-LIGAND FREE ENERGY PREDICTED BY IDOCK:   -2.31 KCAL/MOL
REMARK 924 INTRA-LIGAND FREE ENERGY PREDICTED BY IDOCK:   -0.14 KCAL/MOL
REMARK 927      BINDING AFFINITY PREDICTED BY RF-SCORE:    0.00 PKD
ROOT
HETATM    1  C   UNL     1      -6.836   4.528  68.353  1.00  0.00    -0.051 C  
HETATM    2  C   UNL     1      -7.377   5.812  68.967  1.00  0.00    -0.083 C  
ENDROOT
BRANCH   2   3
HETATM    3  N   UNL     1      -8.146   5.605  70.289  1.00  0.00    -0.102 N  
HETATM    4  C   UNL     1      -8.624   4.152  70.354  1.00  0.00    -0.073 C  
HETATM    5  C   UNL     1      -7.183   5.849  71.455  1.00  0.00    -0.079 C  
BRANCH   3   6
HETATM    6  C   UNL     1      -9.393   6.477  70.389  1.00  0.00    -0.162 A  
HETATM    7  C   UNL     1      -9.298   7.876  70.490  1.00  0.00    -0.162 A  
HETATM    8  C   UNL     1     -10.450   8.646  70.650  1.00  0.00    -0.204 A  
HETATM    9  O   UNL     1     -10.400  10.004  70.756  1.00  0.00    -0.373 OA 
HETATM   10  C   UNL     1     -11.703   8.056  70.720  1.00  0.00    -0.215 A  
HETATM   11  H   UNL     1     -11.185  10.528  70.866  1.00  0.00     0.000 HD 
HETATM   12  C   UNL     1     -11.811   6.672  70.647  1.00  0.00    -0.443 A  
HETATM   13  C   UNL     1     -10.664   5.887  70.498  1.00  0.00    -0.363 A  
ENDBRANCH   3   6
ENDBRANCH   2   3
TORSDOF 2
ENDMDL
MODEL      207
REMARK 921   NORMALIZED FREE ENERGY PREDICTED BY IDOCK:   -2.02 KCAL/MOL
REMARK 922        TOTAL FREE ENERGY PREDICTED BY IDOCK:   -2.42 KCAL/MOL
REMARK 923 INTER-LIGAND FREE ENERGY PREDICTED BY IDOCK:   -2.27 KCAL/MOL
REMARK 924 INTRA-LIGAND FREE ENERGY PREDICTED BY IDOCK:   -0.15 KCAL/MOL
REMARK 927      BINDING AFFINITY PREDICTED BY RF-SCORE:    0.00 PKD
ROOT
HETATM    1  C   UNL     1      -8.830   8.648  63.400  1.00  0.00     0.244 C  
HETATM    2  C   UNL     1      -9.370   9.515  64.528  1.00  0.00    -0.098 C  
ENDROOT
BRANCH   2   3
HETATM    3  N   UNL     1      -9.026  11.014  64.394  1.00  0.00    -0.102 N  
HETATM    4  C   UNL     1      -7.864  11.335  65.340  1.00  0.00     0.431 C  
HETATM    5  C   UNL     1      -8.566  11.281  62.958  1.00  0.00     0.050 C  
BRANCH   3   6
HETATM    6  C   UNL     1     -10.179  11.924  64.802  1.00  0.00    -0.276 A  
HETATM    7  C   UNL     1     -10.485  12.152  66.155  1.00  0.00    -0.281 A  
HETATM    8  C   UNL     1     -11.588  12.934  66.501  1.00  0.00    -0.371 A  
HETATM    9  O   UNL     1     -11.920  13.174  67.800  1.00  0.00    -0.350 OA 
HETATM   10  C   UNL     1     -12.405  13.492  65.529  1.00  0.00    -0.524 A  
HETATM   11  H   UNL     1     -12.672  13.706  68.036  1.00  0.00     0.000 HD 
HETATM   12  C   UNL     1     -12.130  13.255  64.188  1.00  0.00    -0.494 A  
HETATM   13  C   UNL     1     -11.035  12.465  63.826  1.00  0.00    -0.501 A  
ENDBRANCH   3   6
ENDBRANCH   2   3
TORSDOF 2
ENDMDL
MODEL      208
REMARK 921   NORMALIZED FREE ENERGY PREDICTED BY IDOCK:   -2.01 KCAL/MOL
REMARK 922        TOTAL FREE ENERGY PREDICTED BY IDOCK:   -2.42 KCAL/MOL
REMARK 923 INTER-LIGAND FREE ENERGY PREDICTED BY IDOCK:   -2.24 KCAL/MOL
REMARK 924 INTRA-LIGAND FREE ENERGY PREDICTED BY IDOCK:   -0.18 KCAL/MOL
REMARK 927      BINDING AFFINITY PREDICTED BY RF-SCORE:    0.00 PKD
ROOT
HETATM    1  C   UNL     1      -5.816   6.107  70.742  1.00  0.00    -0.019 C  
HETATM    2  C   UNL     1      -7.041   7.009  70.796  1.00  0.00    -0.067 C  
ENDROOT
BRANCH   2   3
HETATM    3  N   UNL     1      -8.384   6.249  70.826  1.00  0.00    -0.125 N  
HETATM    4  C   UNL     1      -8.096   4.754  70.994  1.00  0.00    -0.088 C  
HETATM    5  C   UNL     1      -9.186   6.725  72.042  1.00  0.00    -0.141 C  
BRANCH   3   6
HETATM    6  C   UNL     1      -9.175   6.395  69.531  1.00  0.00    -0.144 A  
HETATM    7  C   UNL     1      -9.666   7.644  69.113  1.00  0.00    -0.164 A  
HETATM    8  C   UNL     1     -10.445   7.741  67.960  1.00  0.00    -0.185 A  
HETATM    9  O   UNL     1     -10.943   8.932  67.525  1.00  0.00    -0.475 OA 
HETATM   10  C   UNL     1     -10.758   6.617  67.210  1.00  0.00    -0.427 A  
HETATM   11  H   UNL     1     -11.474   8.997  66.740  1.00  0.00     0.000 HD 
HETATM   12  C   UNL     1     -10.301   5.371  67.624  1.00  0.00    -0.235 A  
HETATM   13  C   UNL     1      -9.529   5.258  68.783  1.00  0.00    -0.171 A  
ENDBRANCH   3   6
ENDBRANCH   2   3
TORSDOF 2
ENDMDL
MODEL      209
REMARK 921   NORMALIZED FREE ENERGY PREDICTED BY IDOCK:   -2.01 KCAL/MOL
REMARK 922        TOTAL FREE ENERGY PREDICTED BY IDOCK:   -2.42 KCAL/MOL
REMARK 923 INTER-LIGAND FREE ENERGY PREDICTED BY IDOCK:   -2.21 KCAL/MOL
REMARK 924 INTRA-LIGAND FREE ENERGY PREDICTED BY IDOCK:   -0.20 KCAL/MOL
REMARK 927      BINDING AFFINITY PREDICTED BY RF-SCORE:    0.00 PKD
ROOT
HETATM    1  C   UNL     1      -9.226  10.363  65.677  1.00  0.00    -0.220 C  
HETATM    2  C   UNL     1      -9.069   8.898  65.292  1.00  0.00    -0.136 C  
ENDROOT
BRANCH   2   3
HETATM    3  N   UNL     1      -8.308   8.049  66.333  1.00  0.00    -0.118 N  
HETATM    4  C   UNL     1      -7.641   6.875  65.612  1.00  0.00    -0.089 C  
HETATM    5  C   UNL     1      -7.212   8.916  66.961  1.00  0.00    -0.079 C  
BRANCH   3   6
HETATM    6  C   UNL     1      -9.228   7.444  67.387  1.00  0.00    -0.132 A  
HETATM    7  C   UNL     1      -8.961   7.591  68.760  1.00  0.00    -0.129 A  
HETATM    8  C   UNL     1      -9.780   6.970  69.703  1.00  0.00    -0.157 A  
HETATM    9  O   UNL     1      -9.551   7.084  71.041  1.00  0.00    -0.170 OA 
HETATM   10  C   UNL     1     -10.861   6.193  69.314  1.00  0.00    -0.418 A  
HETATM   11  H   UNL     1     -10.108   6.660  71.683  1.00  0.00     0.000 HD 
HETATM   12  C   UNL     1     -11.123   6.018  67.960  1.00  0.00    -0.233 A  
HETATM   13  C   UNL     1     -10.305   6.625  67.004  1.00  0.00    -0.330 A  
ENDBRANCH   3   6
ENDBRANCH   2   3
TORSDOF 2
ENDMDL
MODEL      210
REMARK 921   NORMALIZED FREE ENERGY PREDICTED BY IDOCK:   -2.01 KCAL/MOL
REMARK 922        TOTAL FREE ENERGY PREDICTED BY IDOCK:   -2.42 KCAL/MOL
REMARK 923 INTER-LIGAND FREE ENERGY PREDICTED BY IDOCK:   -2.50 KCAL/MOL
REMARK 924 INTRA-LIGAND FREE ENERGY PREDICTED BY IDOCK:    0.08 KCAL/MOL
REMARK 927      BINDING AFFINITY PREDICTED BY RF-SCORE:    0.00 PKD
ROOT
HETATM    1  C   UNL     1      -7.582   4.160  72.208  1.00  0.00    -0.076 C  
HETATM    2  C   UNL     1      -8.149   5.548  71.951  1.00  0.00    -0.115 C  
ENDROOT
BRANCH   2   3
HETATM    3  N   UNL     1      -9.642   5.558  71.560  1.00  0.00    -0.148 N  
HETATM    4  C   UNL     1     -10.367   4.480  72.371  1.00  0.00    -0.191 C  
HETATM    5  C   UNL     1     -10.234   6.921  71.933  1.00  0.00    -0.188 C  
BRANCH   3   6
HETATM    6  C   UNL     1      -9.871   5.222  70.090  1.00  0.00    -0.220 A  
HETATM    7  C   UNL     1     -10.602   6.081  69.251  1.00  0.00    -0.366 A  
HETATM    8  C   UNL     1     -10.856   5.719  67.928  1.00  0.00    -0.165 A  
HETATM    9  O   UNL     1     -11.564   6.521  67.085  1.00  0.00    -0.743 OA 
HETATM   10  C   UNL     1     -10.405   4.511  67.417  1.00  0.00     0.056 A  
HETATM   11  H   UNL     1     -11.737   6.273  66.184  1.00  0.00     0.000 HD 
HETATM   12  C   UNL     1      -9.703   3.640  68.241  1.00  0.00    -0.082 A  
HETATM   13  C   UNL     1      -9.450   3.985  69.572  1.00  0.00    -0.257 A  
ENDBRANCH   3   6
ENDBRANCH   2   3
TORSDOF 2
ENDMDL
MODEL      211
REMARK 921   NORMALIZED FREE ENERGY PREDICTED BY IDOCK:   -2.01 KCAL/MOL
REMARK 922        TOTAL FREE ENERGY PREDICTED BY IDOCK:   -2.41 KCAL/MOL
REMARK 923 INTER-LIGAND FREE ENERGY PREDICTED BY IDOCK:   -2.60 KCAL/MOL
REMARK 924 INTRA-LIGAND FREE ENERGY PREDICTED BY IDOCK:    0.20 KCAL/MOL
REMARK 927      BINDING AFFINITY PREDICTED BY RF-SCORE:    0.00 PKD
ROOT
HETATM    1  C   UNL     1      -7.607   9.578  67.922  1.00  0.00    -0.087 C  
HETATM    2  C   UNL     1      -8.278  10.418  66.845  1.00  0.00    -0.124 C  
ENDROOT
BRANCH   2   3
HETATM    3  N   UNL     1      -9.584   9.810  66.291  1.00  0.00    -0.196 N  
HETATM    4  C   UNL     1     -10.762  10.367  67.095  1.00  0.00    -0.256 C  
HETATM    5  C   UNL     1      -9.745  10.249  64.832  1.00  0.00    -0.320 C  
BRANCH   3   6
HETATM    6  C   UNL     1      -9.638   8.293  66.438  1.00  0.00    -0.230 A  
HETATM    7  C   UNL     1      -8.617   7.474  65.924  1.00  0.00    -0.165 A  
HETATM    8  C   UNL     1      -8.724   6.086  66.011  1.00  0.00    -0.152 A  
HETATM    9  O   UNL     1      -7.759   5.258  65.521  1.00  0.00    -0.084 OA 
HETATM   10  C   UNL     1      -9.831   5.486  66.593  1.00  0.00    -0.190 A  
HETATM   11  H   UNL     1      -7.832   4.312  65.580  1.00  0.00     0.000 HD 
HETATM   12  C   UNL     1     -10.859   6.282  67.083  1.00  0.00    -0.460 A  
HETATM   13  C   UNL     1     -10.772   7.674  66.993  1.00  0.00    -0.340 A  
ENDBRANCH   3   6
ENDBRANCH   2   3
TORSDOF 2
ENDMDL
MODEL      212
REMARK 921   NORMALIZED FREE ENERGY PREDICTED BY IDOCK:   -1.99 KCAL/MOL
REMARK 922        TOTAL FREE ENERGY PREDICTED BY IDOCK:   -2.39 KCAL/MOL
REMARK 923 INTER-LIGAND FREE ENERGY PREDICTED BY IDOCK:   -2.22 KCAL/MOL
REMARK 924 INTRA-LIGAND FREE ENERGY PREDICTED BY IDOCK:   -0.17 KCAL/MOL
REMARK 927      BINDING AFFINITY PREDICTED BY RF-SCORE:    0.00 PKD
ROOT
HETATM    1  C   UNL     1      -7.263   5.402  65.178  1.00  0.00    -0.067 C  
HETATM    2  C   UNL     1      -7.141   5.738  66.658  1.00  0.00    -0.069 C  
ENDROOT
BRANCH   2   3
HETATM    3  N   UNL     1      -8.128   6.820  67.144  1.00  0.00    -0.116 N  
HETATM    4  C   UNL     1      -7.331   7.948  67.806  1.00  0.00    -0.096 C  
HETATM    5  C   UNL     1      -8.858   7.396  65.926  1.00  0.00    -0.120 C  
BRANCH   3   6
HETATM    6  C   UNL     1      -9.101   6.301  68.197  1.00  0.00    -0.112 A  
HETATM    7  C   UNL     1     -10.104   7.128  68.734  1.00  0.00    -0.175 A  
HETATM    8  C   UNL     1     -10.937   6.651  69.746  1.00  0.00    -0.313 A  
HETATM    9  O   UNL     1     -11.916   7.423  70.295  1.00  0.00    -0.517 OA 
HETATM   10  C   UNL     1     -10.794   5.366  70.247  1.00  0.00    -0.214 A  
HETATM   11  H   UNL     1     -12.484   7.098  70.985  1.00  0.00     0.000 HD 
HETATM   12  C   UNL     1      -9.792   4.545  69.744  1.00  0.00    -0.295 A  
HETATM   13  C   UNL     1      -8.942   5.014  68.737  1.00  0.00    -0.126 A  
ENDBRANCH   3   6
ENDBRANCH   2   3
TORSDOF 2
ENDMDL
MODEL      213
REMARK 921   NORMALIZED FREE ENERGY PREDICTED BY IDOCK:   -1.98 KCAL/MOL
REMARK 922        TOTAL FREE ENERGY PREDICTED BY IDOCK:   -2.38 KCAL/MOL
REMARK 923 INTER-LIGAND FREE ENERGY PREDICTED BY IDOCK:   -2.18 KCAL/MOL
REMARK 924 INTRA-LIGAND FREE ENERGY PREDICTED BY IDOCK:   -0.20 KCAL/MOL
REMARK 927      BINDING AFFINITY PREDICTED BY RF-SCORE:    0.00 PKD
ROOT
HETATM    1  C   UNL     1      -9.832   8.451  68.552  1.00  0.00    -0.186 C  
HETATM    2  C   UNL     1     -10.792   8.443  69.733  1.00  0.00    -0.183 C  
ENDROOT
BRANCH   2   3
HETATM    3  N   UNL     1     -10.729   7.161  70.590  1.00  0.00    -0.230 N  
HETATM    4  C   UNL     1     -11.685   7.319  71.776  1.00  0.00    -0.286 C  
HETATM    5  C   UNL     1     -11.208   5.982  69.737  1.00  0.00    -0.369 C  
BRANCH   3   6
HETATM    6  C   UNL     1      -9.345   6.912  71.179  1.00  0.00    -0.162 A  
HETATM    7  C   UNL     1      -8.669   7.912  71.900  1.00  0.00    -0.168 A  
HETATM    8  C   UNL     1      -7.375   7.682  72.370  1.00  0.00    -0.078 A  
HETATM    9  O   UNL     1      -6.685   8.627  73.068  1.00  0.00    -0.233 OA 
HETATM   10  C   UNL     1      -6.729   6.478  72.133  1.00  0.00    -0.063 A  
HETATM   11  H   UNL     1      -5.804   8.470  73.387  1.00  0.00     0.000 HD 
HETATM   12  C   UNL     1      -7.375   5.489  71.401  1.00  0.00    -0.081 A  
HETATM   13  C   UNL     1      -8.667   5.709  70.914  1.00  0.00    -0.136 A  
ENDBRANCH   3   6
ENDBRANCH   2   3
TORSDOF 2
ENDMDL
MODEL      214
REMARK 921   NORMALIZED FREE ENERGY PREDICTED BY IDOCK:   -1.97 KCAL/MOL
REMARK 922        TOTAL FREE ENERGY PREDICTED BY IDOCK:   -2.37 KCAL/MOL
REMARK 923 INTER-LIGAND FREE ENERGY PREDICTED BY IDOCK:   -2.19 KCAL/MOL
REMARK 924 INTRA-LIGAND FREE ENERGY PREDICTED BY IDOCK:   -0.18 KCAL/MOL
REMARK 927      BINDING AFFINITY PREDICTED BY RF-SCORE:    0.00 PKD
ROOT
HETATM    1  C   UNL     1     -10.107   8.605  69.175  1.00  0.00    -0.203 C  
HETATM    2  C   UNL     1     -10.431   9.991  68.636  1.00  0.00    -0.204 C  
ENDROOT
BRANCH   2   3
HETATM    3  N   UNL     1      -9.956  10.232  67.187  1.00  0.00    -0.189 N  
HETATM    4  C   UNL     1     -10.267   8.983  66.357  1.00  0.00    -0.227 C  
HETATM    5  C   UNL     1     -10.748  11.407  66.604  1.00  0.00    -0.269 C  
BRANCH   3   6
HETATM    6  C   UNL     1      -8.451  10.455  67.087  1.00  0.00    -0.126 A  
HETATM    7  C   UNL     1      -7.895  11.739  67.216  1.00  0.00    -0.161 A  
HETATM    8  C   UNL     1      -6.522  11.927  67.053  1.00  0.00    -0.136 A  
HETATM    9  O   UNL     1      -5.945  13.156  67.165  1.00  0.00    -0.433 OA 
HETATM   10  C   UNL     1      -5.683  10.863  66.755  1.00  0.00    -0.080 A  
HETATM   11  H   UNL     1      -5.010  13.284  67.054  1.00  0.00     0.000 HD 
HETATM   12  C   UNL     1      -6.222   9.592  66.600  1.00  0.00    -0.065 A  
HETATM   13  C   UNL     1      -7.597   9.391  66.750  1.00  0.00    -0.097 A  
ENDBRANCH   3   6
ENDBRANCH   2   3
TORSDOF 2
ENDMDL
MODEL      215
REMARK 921   NORMALIZED FREE ENERGY PREDICTED BY IDOCK:   -1.97 KCAL/MOL
REMARK 922        TOTAL FREE ENERGY PREDICTED BY IDOCK:   -2.37 KCAL/MOL
REMARK 923 INTER-LIGAND FREE ENERGY PREDICTED BY IDOCK:   -2.21 KCAL/MOL
REMARK 924 INTRA-LIGAND FREE ENERGY PREDICTED BY IDOCK:   -0.16 KCAL/MOL
REMARK 927      BINDING AFFINITY PREDICTED BY RF-SCORE:    0.00 PKD
ROOT
HETATM    1  C   UNL     1      -6.114   8.328  66.354  1.00  0.00    -0.049 C  
HETATM    2  C   UNL     1      -6.711   9.374  67.285  1.00  0.00    -0.075 C  
ENDROOT
BRANCH   2   3
HETATM    3  N   UNL     1      -6.937  10.751  66.626  1.00  0.00    -0.120 N  
HETATM    4  C   UNL     1      -5.834  11.704  67.096  1.00  0.00    -0.122 C  
HETATM    5  C   UNL     1      -6.820  10.589  65.107  1.00  0.00    -0.025 C  
BRANCH   3   6
HETATM    6  C   UNL     1      -8.262  11.389  67.030  1.00  0.00    -0.160 A  
HETATM    7  C   UNL     1      -9.404  10.606  67.272  1.00  0.00    -0.166 A  
HETATM    8  C   UNL     1     -10.621  11.218  67.574  1.00  0.00    -0.218 A  
HETATM    9  O   UNL     1     -11.751  10.494  67.809  1.00  0.00    -0.687 OA 
HETATM   10  C   UNL     1     -10.734  12.599  67.633  1.00  0.00    -0.239 A  
HETATM   11  H   UNL     1     -12.580  10.912  68.014  1.00  0.00     0.000 HD 
HETATM   12  C   UNL     1      -9.619  13.387  67.372  1.00  0.00    -0.223 A  
HETATM   13  C   UNL     1      -8.396  12.788  67.058  1.00  0.00    -0.123 A  
ENDBRANCH   3   6
ENDBRANCH   2   3
TORSDOF 2
ENDMDL
MODEL      216
REMARK 921   NORMALIZED FREE ENERGY PREDICTED BY IDOCK:   -1.97 KCAL/MOL
REMARK 922        TOTAL FREE ENERGY PREDICTED BY IDOCK:   -2.37 KCAL/MOL
REMARK 923 INTER-LIGAND FREE ENERGY PREDICTED BY IDOCK:   -2.23 KCAL/MOL
REMARK 924 INTRA-LIGAND FREE ENERGY PREDICTED BY IDOCK:   -0.14 KCAL/MOL
REMARK 927      BINDING AFFINITY PREDICTED BY RF-SCORE:    0.00 PKD
ROOT
HETATM    1  C   UNL     1     -11.255   9.634  70.845  1.00  0.00    -0.422 C  
HETATM    2  C   UNL     1     -10.503   8.780  69.835  1.00  0.00    -0.221 C  
ENDROOT
BRANCH   2   3
HETATM    3  N   UNL     1     -10.036   9.548  68.580  1.00  0.00    -0.162 N  
HETATM    4  C   UNL     1     -11.253  10.220  67.937  1.00  0.00    -0.220 C  
HETATM    5  C   UNL     1      -9.055  10.641  69.015  1.00  0.00    -0.166 C  
BRANCH   3   6
HETATM    6  C   UNL     1      -9.434   8.634  67.517  1.00  0.00    -0.149 A  
HETATM    7  C   UNL     1      -8.851   7.402  67.861  1.00  0.00    -0.132 A  
HETATM    8  C   UNL     1      -8.247   6.616  66.880  1.00  0.00    -0.113 A  
HETATM    9  O   UNL     1      -7.665   5.419  67.174  1.00  0.00    -0.094 OA 
HETATM   10  C   UNL     1      -8.200   7.029  65.557  1.00  0.00    -0.135 A  
HETATM   11  H   UNL     1      -7.254   4.884  66.505  1.00  0.00     0.000 HD 
HETATM   12  C   UNL     1      -8.751   8.256  65.206  1.00  0.00    -0.121 A  
HETATM   13  C   UNL     1      -9.350   9.060  66.181  1.00  0.00    -0.294 A  
ENDBRANCH   3   6
ENDBRANCH   2   3
TORSDOF 2
ENDMDL
MODEL      217
REMARK 921   NORMALIZED FREE ENERGY PREDICTED BY IDOCK:   -1.96 KCAL/MOL
REMARK 922        TOTAL FREE ENERGY PREDICTED BY IDOCK:   -2.36 KCAL/MOL
REMARK 923 INTER-LIGAND FREE ENERGY PREDICTED BY IDOCK:   -2.18 KCAL/MOL
REMARK 924 INTRA-LIGAND FREE ENERGY PREDICTED BY IDOCK:   -0.18 KCAL/MOL
REMARK 927      BINDING AFFINITY PREDICTED BY RF-SCORE:    0.00 PKD
ROOT
HETATM    1  C   UNL     1      -9.677   4.597  67.402  1.00  0.00    -0.215 C  
HETATM    2  C   UNL     1      -9.489   5.945  68.083  1.00  0.00    -0.115 C  
ENDROOT
BRANCH   2   3
HETATM    3  N   UNL     1      -8.640   5.891  69.370  1.00  0.00    -0.113 N  
HETATM    4  C   UNL     1      -8.115   4.463  69.549  1.00  0.00    -0.060 C  
HETATM    5  C   UNL     1      -7.441   6.829  69.203  1.00  0.00    -0.095 C  
BRANCH   3   6
HETATM    6  C   UNL     1      -9.446   6.216  70.624  1.00  0.00    -0.168 A  
HETATM    7  C   UNL     1      -8.838   6.259  71.891  1.00  0.00    -0.139 A  
HETATM    8  C   UNL     1      -9.609   6.491  73.030  1.00  0.00    -0.149 A  
HETATM    9  O   UNL     1      -9.059   6.534  74.275  1.00  0.00    -0.154 OA 
HETATM   10  C   UNL     1     -10.981   6.676  72.941  1.00  0.00    -0.286 A  
HETATM   11  H   UNL     1      -9.585   6.692  75.051  1.00  0.00     0.000 HD 
HETATM   12  C   UNL     1     -11.600   6.612  71.699  1.00  0.00    -0.350 A  
HETATM   13  C   UNL     1     -10.841   6.369  70.550  1.00  0.00    -0.335 A  
ENDBRANCH   3   6
ENDBRANCH   2   3
TORSDOF 2
ENDMDL
MODEL      218
REMARK 921   NORMALIZED FREE ENERGY PREDICTED BY IDOCK:   -1.96 KCAL/MOL
REMARK 922        TOTAL FREE ENERGY PREDICTED BY IDOCK:   -2.35 KCAL/MOL
REMARK 923 INTER-LIGAND FREE ENERGY PREDICTED BY IDOCK:   -2.41 KCAL/MOL
REMARK 924 INTRA-LIGAND FREE ENERGY PREDICTED BY IDOCK:    0.06 KCAL/MOL
REMARK 927      BINDING AFFINITY PREDICTED BY RF-SCORE:    0.00 PKD
ROOT
HETATM    1  C   UNL     1     -11.951  12.835  69.825  1.00  0.00    -0.362 C  
HETATM    2  C   UNL     1     -12.011  11.560  68.997  1.00  0.00    -0.311 C  
ENDROOT
BRANCH   2   3
HETATM    3  N   UNL     1     -11.032  11.535  67.803  1.00  0.00    -0.220 N  
HETATM    4  C   UNL     1     -11.010  10.119  67.219  1.00  0.00    -0.183 C  
HETATM    5  C   UNL     1     -11.551  12.493  66.727  1.00  0.00    -0.382 C  
BRANCH   3   6
HETATM    6  C   UNL     1      -9.598  11.858  68.209  1.00  0.00    -0.201 A  
HETATM    7  C   UNL     1      -9.139  13.185  68.269  1.00  0.00    -0.181 A  
HETATM    8  C   UNL     1      -7.804  13.451  68.576  1.00  0.00    -0.115 A  
HETATM    9  O   UNL     1      -7.319  14.723  68.638  1.00  0.00    -0.110 OA 
HETATM   10  C   UNL     1      -6.905  12.423  68.819  1.00  0.00    -0.092 A  
HETATM   11  H   UNL     1      -6.410  14.904  68.847  1.00  0.00     0.000 HD 
HETATM   12  C   UNL     1      -7.339  11.105  68.740  1.00  0.00    -0.114 A  
HETATM   13  C   UNL     1      -8.670  10.823  68.423  1.00  0.00    -0.142 A  
ENDBRANCH   3   6
ENDBRANCH   2   3
TORSDOF 2
ENDMDL
MODEL      219
REMARK 921   NORMALIZED FREE ENERGY PREDICTED BY IDOCK:   -1.96 KCAL/MOL
REMARK 922        TOTAL FREE ENERGY PREDICTED BY IDOCK:   -2.35 KCAL/MOL
REMARK 923 INTER-LIGAND FREE ENERGY PREDICTED BY IDOCK:   -2.22 KCAL/MOL
REMARK 924 INTRA-LIGAND FREE ENERGY PREDICTED BY IDOCK:   -0.14 KCAL/MOL
REMARK 927      BINDING AFFINITY PREDICTED BY RF-SCORE:    0.00 PKD
ROOT
HETATM    1  C   UNL     1      -8.124   3.561  64.397  1.00  0.00    -0.086 C  
HETATM    2  C   UNL     1      -8.833   4.820  64.876  1.00  0.00    -0.153 C  
ENDROOT
BRANCH   2   3
HETATM    3  N   UNL     1      -8.381   5.308  66.268  1.00  0.00    -0.113 N  
HETATM    4  C   UNL     1      -8.764   4.249  67.306  1.00  0.00    -0.106 C  
HETATM    5  C   UNL     1      -6.856   5.449  66.263  1.00  0.00    -0.059 C  
BRANCH   3   6
HETATM    6  C   UNL     1      -9.070   6.600  66.694  1.00  0.00    -0.145 A  
HETATM    7  C   UNL     1      -9.813   6.672  67.885  1.00  0.00    -0.138 A  
HETATM    8  C   UNL     1     -10.491   7.845  68.218  1.00  0.00    -0.164 A  
HETATM    9  O   UNL     1     -11.226   7.953  69.360  1.00  0.00    -0.445 OA 
HETATM   10  C   UNL     1     -10.455   8.955  67.386  1.00  0.00    -0.347 A  
HETATM   11  H   UNL     1     -11.688   8.752  69.586  1.00  0.00     0.000 HD 
HETATM   12  C   UNL     1      -9.746   8.890  66.193  1.00  0.00    -0.338 A  
HETATM   13  C   UNL     1      -9.070   7.718  65.841  1.00  0.00    -0.122 A  
ENDBRANCH   3   6
ENDBRANCH   2   3
TORSDOF 2
ENDMDL
MODEL      220
REMARK 921   NORMALIZED FREE ENERGY PREDICTED BY IDOCK:   -1.93 KCAL/MOL
REMARK 922        TOTAL FREE ENERGY PREDICTED BY IDOCK:   -2.33 KCAL/MOL
REMARK 923 INTER-LIGAND FREE ENERGY PREDICTED BY IDOCK:   -2.44 KCAL/MOL
REMARK 924 INTRA-LIGAND FREE ENERGY PREDICTED BY IDOCK:    0.11 KCAL/MOL
REMARK 927      BINDING AFFINITY PREDICTED BY RF-SCORE:    0.00 PKD
ROOT
HETATM    1  C   UNL     1     -11.979   6.505  70.469  1.00  0.00    -0.322 C  
HETATM    2  C   UNL     1     -11.004   7.673  70.509  1.00  0.00    -0.249 C  
ENDROOT
BRANCH   2   3
HETATM    3  N   UNL     1      -9.748   7.477  69.634  1.00  0.00    -0.167 N  
HETATM    4  C   UNL     1      -9.928   8.269  68.336  1.00  0.00    -0.190 C  
HETATM    5  C   UNL     1      -8.539   8.047  70.383  1.00  0.00    -0.131 C  
BRANCH   3   6
HETATM    6  C   UNL     1      -9.531   6.023  69.228  1.00  0.00    -0.132 A  
HETATM    7  C   UNL     1      -9.902   5.560  67.953  1.00  0.00    -0.169 A  
HETATM    8  C   UNL     1      -9.757   4.211  67.629  1.00  0.00    -0.122 A  
HETATM    9  O   UNL     1     -10.109   3.722  66.407  1.00  0.00    -0.409 OA 
HETATM   10  C   UNL     1      -9.257   3.302  68.550  1.00  0.00    -0.233 A  
HETATM   11  H   UNL     1     -10.011   2.803  66.187  1.00  0.00     0.000 HD 
HETATM   12  C   UNL     1      -8.910   3.740  69.822  1.00  0.00    -0.148 A  
HETATM   13  C   UNL     1      -9.060   5.087  70.164  1.00  0.00    -0.163 A  
ENDBRANCH   3   6
ENDBRANCH   2   3
TORSDOF 2
ENDMDL
MODEL      221
REMARK 921   NORMALIZED FREE ENERGY PREDICTED BY IDOCK:   -1.92 KCAL/MOL
REMARK 922        TOTAL FREE ENERGY PREDICTED BY IDOCK:   -2.31 KCAL/MOL
REMARK 923 INTER-LIGAND FREE ENERGY PREDICTED BY IDOCK:   -2.17 KCAL/MOL
REMARK 924 INTRA-LIGAND FREE ENERGY PREDICTED BY IDOCK:   -0.14 KCAL/MOL
REMARK 927      BINDING AFFINITY PREDICTED BY RF-SCORE:    0.00 PKD
ROOT
HETATM    1  C   UNL     1     -10.050  19.066  66.148  1.00  0.00    -0.462 C  
HETATM    2  C   UNL     1      -8.732  18.361  66.436  1.00  0.00    -0.247 C  
ENDROOT
BRANCH   2   3
HETATM    3  N   UNL     1      -8.733  17.523  67.732  1.00  0.00    -0.227 N  
HETATM    4  C   UNL     1      -8.585  18.470  68.926  1.00  0.00    -0.151 C  
HETATM    5  C   UNL     1     -10.083  16.808  67.848  1.00  0.00    -0.284 C  
BRANCH   3   6
HETATM    6  C   UNL     1      -7.564  16.547  67.805  1.00  0.00    -0.148 A  
HETATM    7  C   UNL     1      -7.645  15.369  68.568  1.00  0.00    -0.122 A  
HETATM    8  C   UNL     1      -6.538  14.526  68.674  1.00  0.00    -0.087 A  
HETATM    9  O   UNL     1      -6.574  13.379  69.408  1.00  0.00    -0.114 OA 
HETATM   10  C   UNL     1      -5.341  14.831  68.042  1.00  0.00    -0.120 A  
HETATM   11  H   UNL     1      -5.820  12.806  69.481  1.00  0.00     0.000 HD 
HETATM   12  C   UNL     1      -5.239  16.004  67.304  1.00  0.00     0.010 A  
HETATM   13  C   UNL     1      -6.336  16.864  67.198  1.00  0.00    -0.221 A  
ENDBRANCH   3   6
ENDBRANCH   2   3
TORSDOF 2
ENDMDL
MODEL      222
REMARK 921   NORMALIZED FREE ENERGY PREDICTED BY IDOCK:   -1.90 KCAL/MOL
REMARK 922        TOTAL FREE ENERGY PREDICTED BY IDOCK:   -2.29 KCAL/MOL
REMARK 923 INTER-LIGAND FREE ENERGY PREDICTED BY IDOCK:   -2.11 KCAL/MOL
REMARK 924 INTRA-LIGAND FREE ENERGY PREDICTED BY IDOCK:   -0.18 KCAL/MOL
REMARK 927      BINDING AFFINITY PREDICTED BY RF-SCORE:    0.00 PKD
ROOT
HETATM    1  C   UNL     1      -8.114   5.938  64.205  1.00  0.00    -0.119 C  
HETATM    2  C   UNL     1      -7.374   6.443  65.436  1.00  0.00    -0.076 C  
ENDROOT
BRANCH   2   3
HETATM    3  N   UNL     1      -7.486   5.515  66.665  1.00  0.00    -0.086 N  
HETATM    4  C   UNL     1      -7.654   4.074  66.176  1.00  0.00    -0.089 C  
HETATM    5  C   UNL     1      -6.181   5.605  67.462  1.00  0.00    -0.030 C  
BRANCH   3   6
HETATM    6  C   UNL     1      -8.704   5.824  67.529  1.00  0.00    -0.107 A  
HETATM    7  C   UNL     1      -9.299   7.097  67.522  1.00  0.00    -0.137 A  
HETATM    8  C   UNL     1     -10.370   7.375  68.372  1.00  0.00    -0.194 A  
HETATM    9  O   UNL     1     -10.970   8.597  68.398  1.00  0.00    -0.447 OA 
HETATM   10  C   UNL     1     -10.862   6.413  69.243  1.00  0.00    -0.387 A  
HETATM   11  H   UNL     1     -11.699   8.786  68.978  1.00  0.00     0.000 HD 
HETATM   12  C   UNL     1     -10.268   5.158  69.279  1.00  0.00    -0.276 A  
HETATM   13  C   UNL     1      -9.187   4.869  68.441  1.00  0.00    -0.157 A  
ENDBRANCH   3   6
ENDBRANCH   2   3
TORSDOF 2
ENDMDL
MODEL      223
REMARK 921   NORMALIZED FREE ENERGY PREDICTED BY IDOCK:   -1.90 KCAL/MOL
REMARK 922        TOTAL FREE ENERGY PREDICTED BY IDOCK:   -2.29 KCAL/MOL
REMARK 923 INTER-LIGAND FREE ENERGY PREDICTED BY IDOCK:   -2.12 KCAL/MOL
REMARK 924 INTRA-LIGAND FREE ENERGY PREDICTED BY IDOCK:   -0.17 KCAL/MOL
REMARK 927      BINDING AFFINITY PREDICTED BY RF-SCORE:    0.00 PKD
ROOT
HETATM    1  C   UNL     1      -7.461   8.111  73.770  1.00  0.00    -0.211 C  
HETATM    2  C   UNL     1      -8.435   8.339  72.622  1.00  0.00    -0.183 C  
ENDROOT
BRANCH   2   3
HETATM    3  N   UNL     1      -7.865   7.990  71.231  1.00  0.00    -0.086 N  
HETATM    4  C   UNL     1      -7.987   9.223  70.330  1.00  0.00    -0.146 C  
HETATM    5  C   UNL     1      -6.380   7.650  71.385  1.00  0.00    -0.035 C  
BRANCH   3   6
HETATM    6  C   UNL     1      -8.637   6.871  70.540  1.00  0.00    -0.142 A  
HETATM    7  C   UNL     1      -9.851   7.124  69.878  1.00  0.00    -0.174 A  
HETATM    8  C   UNL     1     -10.573   6.072  69.313  1.00  0.00    -0.299 A  
HETATM    9  O   UNL     1     -11.755   6.275  68.667  1.00  0.00    -0.338 OA 
HETATM   10  C   UNL     1     -10.119   4.764  69.398  1.00  0.00    -0.241 A  
HETATM   11  H   UNL     1     -12.246   5.558  68.283  1.00  0.00     0.000 HD 
HETATM   12  C   UNL     1      -8.934   4.495  70.071  1.00  0.00    -0.145 A  
HETATM   13  C   UNL     1      -8.205   5.538  70.652  1.00  0.00    -0.116 A  
ENDBRANCH   3   6
ENDBRANCH   2   3
TORSDOF 2
ENDMDL
MODEL      224
REMARK 921   NORMALIZED FREE ENERGY PREDICTED BY IDOCK:   -1.89 KCAL/MOL
REMARK 922        TOTAL FREE ENERGY PREDICTED BY IDOCK:   -2.28 KCAL/MOL
REMARK 923 INTER-LIGAND FREE ENERGY PREDICTED BY IDOCK:   -2.11 KCAL/MOL
REMARK 924 INTRA-LIGAND FREE ENERGY PREDICTED BY IDOCK:   -0.17 KCAL/MOL
REMARK 927      BINDING AFFINITY PREDICTED BY RF-SCORE:    0.00 PKD
ROOT
HETATM    1  C   UNL     1     -11.153   5.559  73.288  1.00  0.00    -0.322 C  
HETATM    2  C   UNL     1     -10.064   6.431  72.679  1.00  0.00    -0.178 C  
ENDROOT
BRANCH   2   3
HETATM    3  N   UNL     1      -8.880   5.640  72.084  1.00  0.00    -0.137 N  
HETATM    4  C   UNL     1      -7.615   6.495  72.198  1.00  0.00    -0.097 C  
HETATM    5  C   UNL     1      -8.679   4.367  72.912  1.00  0.00    -0.108 C  
BRANCH   3   6
HETATM    6  C   UNL     1      -9.061   5.331  70.601  1.00  0.00    -0.142 A  
HETATM    7  C   UNL     1     -10.028   6.000  69.830  1.00  0.00    -0.225 A  
HETATM    8  C   UNL     1     -10.221   5.651  68.493  1.00  0.00    -0.193 A  
HETATM    9  O   UNL     1     -11.151   6.271  67.715  1.00  0.00    -0.334 OA 
HETATM   10  C   UNL     1      -9.477   4.641  67.901  1.00  0.00    -0.194 A  
HETATM   11  H   UNL     1     -11.283   6.033  66.804  1.00  0.00     0.000 HD 
HETATM   12  C   UNL     1      -8.535   3.954  68.657  1.00  0.00    -0.104 A  
HETATM   13  C   UNL     1      -8.339   4.285  70.001  1.00  0.00    -0.077 A  
ENDBRANCH   3   6
ENDBRANCH   2   3
TORSDOF 2
ENDMDL
MODEL      225
REMARK 921   NORMALIZED FREE ENERGY PREDICTED BY IDOCK:   -1.88 KCAL/MOL
REMARK 922        TOTAL FREE ENERGY PREDICTED BY IDOCK:   -2.27 KCAL/MOL
REMARK 923 INTER-LIGAND FREE ENERGY PREDICTED BY IDOCK:   -2.07 KCAL/MOL
REMARK 924 INTRA-LIGAND FREE ENERGY PREDICTED BY IDOCK:   -0.20 KCAL/MOL
REMARK 927      BINDING AFFINITY PREDICTED BY RF-SCORE:    0.00 PKD
ROOT
HETATM    1  C   UNL     1      -6.580   5.418  69.021  1.00  0.00    -0.051 C  
HETATM    2  C   UNL     1      -7.617   6.098  68.138  1.00  0.00    -0.098 C  
ENDROOT
BRANCH   2   3
HETATM    3  N   UNL     1      -9.069   5.953  68.643  1.00  0.00    -0.116 N  
HETATM    4  C   UNL     1      -9.997   5.822  67.432  1.00  0.00    -0.150 C  
HETATM    5  C   UNL     1      -9.171   4.668  69.471  1.00  0.00    -0.122 C  
BRANCH   3   6
HETATM    6  C   UNL     1      -9.547   7.173  69.424  1.00  0.00    -0.153 A  
HETATM    7  C   UNL     1      -9.635   8.438  68.818  1.00  0.00    -0.150 A  
HETATM    8  C   UNL     1     -10.009   9.551  69.572  1.00  0.00    -0.194 A  
HETATM    9  O   UNL     1     -10.101  10.794  69.023  1.00  0.00    -0.200 OA 
HETATM   10  C   UNL     1     -10.292   9.438  70.925  1.00  0.00    -0.380 A  
HETATM   11  H   UNL     1     -10.356  11.552  69.536  1.00  0.00     0.000 HD 
HETATM   12  C   UNL     1     -10.185   8.199  71.544  1.00  0.00    -0.261 A  
HETATM   13  C   UNL     1      -9.801   7.077  70.804  1.00  0.00    -0.190 A  
ENDBRANCH   3   6
ENDBRANCH   2   3
TORSDOF 2
ENDMDL
MODEL      226
REMARK 921   NORMALIZED FREE ENERGY PREDICTED BY IDOCK:   -1.87 KCAL/MOL
REMARK 922        TOTAL FREE ENERGY PREDICTED BY IDOCK:   -2.25 KCAL/MOL
REMARK 923 INTER-LIGAND FREE ENERGY PREDICTED BY IDOCK:   -2.08 KCAL/MOL
REMARK 924 INTRA-LIGAND FREE ENERGY PREDICTED BY IDOCK:   -0.17 KCAL/MOL
REMARK 927      BINDING AFFINITY PREDICTED BY RF-SCORE:    0.00 PKD
ROOT
HETATM    1  C   UNL     1     -12.955  10.275  71.054  1.00  0.00    -0.488 C  
HETATM    2  C   UNL     1     -11.641  10.957  70.699  1.00  0.00    -0.242 C  
ENDROOT
BRANCH   2   3
HETATM    3  N   UNL     1     -11.059  10.535  69.333  1.00  0.00    -0.240 N  
HETATM    4  C   UNL     1      -9.622  10.048  69.544  1.00  0.00    -0.230 C  
HETATM    5  C   UNL     1     -11.889   9.368  68.790  1.00  0.00     1.184 C  
BRANCH   3   6
HETATM    6  C   UNL     1     -10.983  11.691  68.341  1.00  0.00    -0.220 A  
HETATM    7  C   UNL     1     -10.496  11.500  67.036  1.00  0.00    -0.263 A  
HETATM    8  C   UNL     1     -10.373  12.587  66.170  1.00  0.00    -0.253 A  
HETATM    9  O   UNL     1      -9.900  12.445  64.900  1.00  0.00    -0.425 OA 
HETATM   10  C   UNL     1     -10.717  13.868  66.573  1.00  0.00    -0.277 A  
HETATM   11  H   UNL     1      -9.816  13.185  64.310  1.00  0.00     0.000 HD 
HETATM   12  C   UNL     1     -11.177  14.076  67.868  1.00  0.00    -0.295 A  
HETATM   13  C   UNL     1     -11.295  12.999  68.751  1.00  0.00    -0.332 A  
ENDBRANCH   3   6
ENDBRANCH   2   3
TORSDOF 2
ENDMDL
MODEL      227
REMARK 921   NORMALIZED FREE ENERGY PREDICTED BY IDOCK:   -1.86 KCAL/MOL
REMARK 922        TOTAL FREE ENERGY PREDICTED BY IDOCK:   -2.24 KCAL/MOL
REMARK 923 INTER-LIGAND FREE ENERGY PREDICTED BY IDOCK:   -2.09 KCAL/MOL
REMARK 924 INTRA-LIGAND FREE ENERGY PREDICTED BY IDOCK:   -0.15 KCAL/MOL
REMARK 927      BINDING AFFINITY PREDICTED BY RF-SCORE:    0.00 PKD
ROOT
HETATM    1  C   UNL     1     -11.625   6.851  70.266  1.00  0.00    -0.362 C  
HETATM    2  C   UNL     1     -10.672   7.986  69.919  1.00  0.00    -0.242 C  
ENDROOT
BRANCH   2   3
HETATM    3  N   UNL     1      -9.446   7.551  69.089  1.00  0.00    -0.150 N  
HETATM    4  C   UNL     1      -8.299   7.222  70.048  1.00  0.00    -0.137 C  
HETATM    5  C   UNL     1      -9.809   6.279  68.316  1.00  0.00    -0.126 C  
BRANCH   3   6
HETATM    6  C   UNL     1      -8.937   8.652  68.165  1.00  0.00    -0.141 A  
HETATM    7  C   UNL     1      -9.818   9.390  67.356  1.00  0.00    -0.222 A  
HETATM    8  C   UNL     1      -9.321  10.345  66.470  1.00  0.00    -0.163 A  
HETATM    9  O   UNL     1     -10.141  11.077  65.665  1.00  0.00    -0.235 OA 
HETATM   10  C   UNL     1      -7.958  10.582  66.360  1.00  0.00    -0.137 A  
HETATM   11  H   UNL     1      -9.802  11.728  65.061  1.00  0.00     0.000 HD 
HETATM   12  C   UNL     1      -7.073   9.842  67.136  1.00  0.00    -0.085 A  
HETATM   13  C   UNL     1      -7.557   8.874  68.020  1.00  0.00    -0.093 A  
ENDBRANCH   3   6
ENDBRANCH   2   3
TORSDOF 2
ENDMDL
MODEL      228
REMARK 921   NORMALIZED FREE ENERGY PREDICTED BY IDOCK:   -1.82 KCAL/MOL
REMARK 922        TOTAL FREE ENERGY PREDICTED BY IDOCK:   -2.20 KCAL/MOL
REMARK 923 INTER-LIGAND FREE ENERGY PREDICTED BY IDOCK:   -2.00 KCAL/MOL
REMARK 924 INTRA-LIGAND FREE ENERGY PREDICTED BY IDOCK:   -0.20 KCAL/MOL
REMARK 927      BINDING AFFINITY PREDICTED BY RF-SCORE:    0.00 PKD
ROOT
HETATM    1  C   UNL     1      -7.596   5.272  68.684  1.00  0.00    -0.082 C  
HETATM    2  C   UNL     1      -7.138   6.698  68.957  1.00  0.00    -0.089 C  
ENDROOT
BRANCH   2   3
HETATM    3  N   UNL     1      -6.954   7.027  70.454  1.00  0.00    -0.061 N  
HETATM    4  C   UNL     1      -6.809   5.714  71.229  1.00  0.00    -0.062 C  
HETATM    5  C   UNL     1      -5.661   7.831  70.621  1.00  0.00    -0.026 C  
BRANCH   3   6
HETATM    6  C   UNL     1      -8.156   7.752  71.052  1.00  0.00    -0.098 A  
HETATM    7  C   UNL     1      -8.687   7.378  72.299  1.00  0.00    -0.138 A  
HETATM    8  C   UNL     1      -9.828   8.011  72.792  1.00  0.00    -0.282 A  
HETATM    9  O   UNL     1     -10.376   7.673  73.993  1.00  0.00    -0.327 OA 
HETATM   10  C   UNL     1     -10.464   9.008  72.068  1.00  0.00    -0.309 A  
HETATM   11  H   UNL     1     -11.153   8.104  74.328  1.00  0.00     0.000 HD 
HETATM   12  C   UNL     1      -9.965   9.372  70.823  1.00  0.00    -0.358 A  
HETATM   13  C   UNL     1      -8.829   8.739  70.311  1.00  0.00    -0.171 A  
ENDBRANCH   3   6
ENDBRANCH   2   3
TORSDOF 2
ENDMDL
MODEL      229
REMARK 921   NORMALIZED FREE ENERGY PREDICTED BY IDOCK:   -1.79 KCAL/MOL
REMARK 922        TOTAL FREE ENERGY PREDICTED BY IDOCK:   -2.17 KCAL/MOL
REMARK 923 INTER-LIGAND FREE ENERGY PREDICTED BY IDOCK:   -2.00 KCAL/MOL
REMARK 924 INTRA-LIGAND FREE ENERGY PREDICTED BY IDOCK:   -0.17 KCAL/MOL
REMARK 927      BINDING AFFINITY PREDICTED BY RF-SCORE:    0.00 PKD
ROOT
HETATM    1  C   UNL     1     -10.681   5.518  69.856  1.00  0.00    -0.358 C  
HETATM    2  C   UNL     1     -10.114   5.952  68.512  1.00  0.00    -0.167 C  
ENDROOT
BRANCH   2   3
HETATM    3  N   UNL     1      -8.805   5.236  68.116  1.00  0.00    -0.105 N  
HETATM    4  C   UNL     1      -7.736   6.294  67.829  1.00  0.00    -0.102 C  
HETATM    5  C   UNL     1      -8.337   4.387  69.302  1.00  0.00    -0.074 C  
BRANCH   3   6
HETATM    6  C   UNL     1      -8.947   4.407  66.844  1.00  0.00    -0.118 A  
HETATM    7  C   UNL     1      -9.176   5.018  65.598  1.00  0.00    -0.161 A  
HETATM    8  C   UNL     1      -9.370   4.234  64.460  1.00  0.00    -0.160 A  
HETATM    9  O   UNL     1      -9.600   4.787  63.237  1.00  0.00    -0.355 OA 
HETATM   10  C   UNL     1      -9.350   2.849  64.531  1.00  0.00    -0.145 A  
HETATM   11  H   UNL     1      -9.733   4.254  62.462  1.00  0.00     0.000 HD 
HETATM   12  C   UNL     1      -9.150   2.232  65.759  1.00  0.00    -0.076 A  
HETATM   13  C   UNL     1      -8.964   3.003  66.910  1.00  0.00    -0.178 A  
ENDBRANCH   3   6
ENDBRANCH   2   3
TORSDOF 2
ENDMDL
MODEL      230
REMARK 921   NORMALIZED FREE ENERGY PREDICTED BY IDOCK:   -1.78 KCAL/MOL
REMARK 922        TOTAL FREE ENERGY PREDICTED BY IDOCK:   -2.15 KCAL/MOL
REMARK 923 INTER-LIGAND FREE ENERGY PREDICTED BY IDOCK:   -1.94 KCAL/MOL
REMARK 924 INTRA-LIGAND FREE ENERGY PREDICTED BY IDOCK:   -0.22 KCAL/MOL
REMARK 927      BINDING AFFINITY PREDICTED BY RF-SCORE:    0.00 PKD
ROOT
HETATM    1  C   UNL     1     -10.442  10.503  66.506  1.00  0.00    -0.276 C  
HETATM    2  C   UNL     1     -10.823  10.209  67.950  1.00  0.00    -0.284 C  
ENDROOT
BRANCH   2   3
HETATM    3  N   UNL     1     -10.181   8.928  68.524  1.00  0.00    -0.193 N  
HETATM    4  C   UNL     1     -10.871   8.587  69.848  1.00  0.00    -0.205 C  
HETATM    5  C   UNL     1     -10.425   7.778  67.542  1.00  0.00    -0.268 C  
BRANCH   3   6
HETATM    6  C   UNL     1      -8.699   9.102  68.841  1.00  0.00    -0.132 A  
HETATM    7  C   UNL     1      -7.711   8.453  68.080  1.00  0.00    -0.103 A  
HETATM    8  C   UNL     1      -6.366   8.573  68.432  1.00  0.00    -0.055 A  
HETATM    9  O   UNL     1      -5.379   7.956  67.724  1.00  0.00    -0.030 OA 
HETATM   10  C   UNL     1      -5.977   9.320  69.534  1.00  0.00    -0.033 A  
HETATM   11  H   UNL     1      -4.463   8.037  67.964  1.00  0.00     0.000 HD 
HETATM   12  C   UNL     1      -6.944   9.947  70.310  1.00  0.00    -0.147 A  
HETATM   13  C   UNL     1      -8.296   9.827  69.976  1.00  0.00    -0.211 A  
ENDBRANCH   3   6
ENDBRANCH   2   3
TORSDOF 2
ENDMDL
MODEL      231
REMARK 921   NORMALIZED FREE ENERGY PREDICTED BY IDOCK:   -1.77 KCAL/MOL
REMARK 922        TOTAL FREE ENERGY PREDICTED BY IDOCK:   -2.15 KCAL/MOL
REMARK 923 INTER-LIGAND FREE ENERGY PREDICTED BY IDOCK:   -1.95 KCAL/MOL
REMARK 924 INTRA-LIGAND FREE ENERGY PREDICTED BY IDOCK:   -0.20 KCAL/MOL
REMARK 927      BINDING AFFINITY PREDICTED BY RF-SCORE:    0.00 PKD
ROOT
HETATM    1  C   UNL     1      -6.003   6.623  67.802  1.00  0.00    -0.024 C  
HETATM    2  C   UNL     1      -7.229   6.597  66.899  1.00  0.00    -0.077 C  
ENDROOT
BRANCH   2   3
HETATM    3  N   UNL     1      -8.530   7.064  67.586  1.00  0.00    -0.123 N  
HETATM    4  C   UNL     1      -9.698   6.249  67.025  1.00  0.00    -0.144 C  
HETATM    5  C   UNL     1      -8.418   6.777  69.087  1.00  0.00    -0.128 C  
BRANCH   3   6
HETATM    6  C   UNL     1      -8.851   8.529  67.309  1.00  0.00    -0.130 A  
HETATM    7  C   UNL     1      -9.541   8.917  66.148  1.00  0.00    -0.335 A  
HETATM    8  C   UNL     1      -9.763  10.269  65.884  1.00  0.00    -0.225 A  
HETATM    9  O   UNL     1     -10.422  10.686  64.767  1.00  0.00    -0.325 OA 
HETATM   10  C   UNL     1      -9.305  11.253  66.747  1.00  0.00    -0.191 A  
HETATM   11  H   UNL     1     -10.573  11.607  64.587  1.00  0.00     0.000 HD 
HETATM   12  C   UNL     1      -8.599  10.886  67.887  1.00  0.00    -0.130 A  
HETATM   13  C   UNL     1      -8.360   9.536  68.159  1.00  0.00    -0.118 A  
ENDBRANCH   3   6
ENDBRANCH   2   3
TORSDOF 2
ENDMDL
MODEL      232
REMARK 921   NORMALIZED FREE ENERGY PREDICTED BY IDOCK:   -1.76 KCAL/MOL
REMARK 922        TOTAL FREE ENERGY PREDICTED BY IDOCK:   -2.13 KCAL/MOL
REMARK 923 INTER-LIGAND FREE ENERGY PREDICTED BY IDOCK:   -1.93 KCAL/MOL
REMARK 924 INTRA-LIGAND FREE ENERGY PREDICTED BY IDOCK:   -0.20 KCAL/MOL
REMARK 927      BINDING AFFINITY PREDICTED BY RF-SCORE:    0.00 PKD
ROOT
HETATM    1  C   UNL     1      -7.385   4.248  72.292  1.00  0.00    -0.067 C  
HETATM    2  C   UNL     1      -8.255   5.368  71.739  1.00  0.00    -0.119 C  
ENDROOT
BRANCH   2   3
HETATM    3  N   UNL     1      -9.451   4.881  70.894  1.00  0.00    -0.155 N  
HETATM    4  C   UNL     1      -9.737   3.419  71.249  1.00  0.00    -0.157 C  
HETATM    5  C   UNL     1     -10.680   5.717  71.263  1.00  0.00    -0.258 C  
BRANCH   3   6
HETATM    6  C   UNL     1      -9.168   4.916  69.395  1.00  0.00    -0.109 A  
HETATM    7  C   UNL     1      -9.613   3.888  68.546  1.00  0.00    -0.179 A  
HETATM    8  C   UNL     1      -9.283   3.908  67.191  1.00  0.00    -0.176 A  
HETATM    9  O   UNL     1      -9.690   2.927  66.336  1.00  0.00    -0.398 OA 
HETATM   10  C   UNL     1      -8.510   4.927  66.656  1.00  0.00    -0.106 A  
HETATM   11  H   UNL     1      -9.464   2.941  65.413  1.00  0.00     0.000 HD 
HETATM   12  C   UNL     1      -8.042   5.937  67.488  1.00  0.00    -0.102 A  
HETATM   13  C   UNL     1      -8.355   5.924  68.850  1.00  0.00    -0.102 A  
ENDBRANCH   3   6
ENDBRANCH   2   3
TORSDOF 2
ENDMDL
MODEL      233
REMARK 921   NORMALIZED FREE ENERGY PREDICTED BY IDOCK:   -1.75 KCAL/MOL
REMARK 922        TOTAL FREE ENERGY PREDICTED BY IDOCK:   -2.12 KCAL/MOL
REMARK 923 INTER-LIGAND FREE ENERGY PREDICTED BY IDOCK:   -1.88 KCAL/MOL
REMARK 924 INTRA-LIGAND FREE ENERGY PREDICTED BY IDOCK:   -0.24 KCAL/MOL
REMARK 927      BINDING AFFINITY PREDICTED BY RF-SCORE:    0.00 PKD
ROOT
HETATM    1  C   UNL     1      -9.259  10.224  65.593  1.00  0.00    -0.225 C  
HETATM    2  C   UNL     1      -8.970   8.732  65.518  1.00  0.00    -0.181 C  
ENDROOT
BRANCH   2   3
HETATM    3  N   UNL     1      -7.887   8.248  66.506  1.00  0.00    -0.092 N  
HETATM    4  C   UNL     1      -7.717   6.735  66.342  1.00  0.00    -0.098 C  
HETATM    5  C   UNL     1      -6.561   8.925  66.145  1.00  0.00    -0.065 C  
BRANCH   3   6
HETATM    6  C   UNL     1      -8.269   8.485  67.964  1.00  0.00    -0.120 A  
HETATM    7  C   UNL     1      -7.430   9.209  68.829  1.00  0.00    -0.076 A  
HETATM    8  C   UNL     1      -7.769   9.353  70.174  1.00  0.00    -0.136 A  
HETATM    9  O   UNL     1      -6.979  10.042  71.045  1.00  0.00    -0.339 OA 
HETATM   10  C   UNL     1      -8.925   8.785  70.688  1.00  0.00    -0.219 A  
HETATM   11  H   UNL     1      -7.210  10.139  71.962  1.00  0.00     0.000 HD 
HETATM   12  C   UNL     1      -9.752   8.045  69.850  1.00  0.00    -0.180 A  
HETATM   13  C   UNL     1      -9.420   7.883  68.502  1.00  0.00    -0.148 A  
ENDBRANCH   3   6
ENDBRANCH   2   3
TORSDOF 2
ENDMDL
MODEL      234
REMARK 921   NORMALIZED FREE ENERGY PREDICTED BY IDOCK:   -1.74 KCAL/MOL
REMARK 922        TOTAL FREE ENERGY PREDICTED BY IDOCK:   -2.11 KCAL/MOL
REMARK 923 INTER-LIGAND FREE ENERGY PREDICTED BY IDOCK:   -1.91 KCAL/MOL
REMARK 924 INTRA-LIGAND FREE ENERGY PREDICTED BY IDOCK:   -0.20 KCAL/MOL
REMARK 927      BINDING AFFINITY PREDICTED BY RF-SCORE:    0.00 PKD
ROOT
HETATM    1  C   UNL     1      -9.971   9.412  66.179  1.00  0.00    -0.351 C  
HETATM    2  C   UNL     1     -10.577   9.077  67.534  1.00  0.00    -0.237 C  
ENDROOT
BRANCH   2   3
HETATM    3  N   UNL     1     -10.232   7.664  68.050  1.00  0.00    -0.194 N  
HETATM    4  C   UNL     1     -10.707   7.544  69.501  1.00  0.00    -0.217 C  
HETATM    5  C   UNL     1     -10.993   6.638  67.205  1.00  0.00    -0.385 C  
BRANCH   3   6
HETATM    6  C   UNL     1      -8.731   7.390  68.062  1.00  0.00    -0.124 A  
HETATM    7  C   UNL     1      -7.858   8.154  68.856  1.00  0.00    -0.112 A  
HETATM    8  C   UNL     1      -6.482   7.929  68.797  1.00  0.00    -0.048 A  
HETATM    9  O   UNL     1      -5.602   8.651  69.546  1.00  0.00    -0.030 OA 
HETATM   10  C   UNL     1      -5.948   6.963  67.957  1.00  0.00    -0.032 A  
HETATM   11  H   UNL     1      -4.665   8.497  69.505  1.00  0.00     0.000 HD 
HETATM   12  C   UNL     1      -6.798   6.217  67.148  1.00  0.00    -0.066 A  
HETATM   13  C   UNL     1      -8.177   6.439  67.188  1.00  0.00    -0.113 A  
ENDBRANCH   3   6
ENDBRANCH   2   3
TORSDOF 2
ENDMDL
MODEL      235
REMARK 921   NORMALIZED FREE ENERGY PREDICTED BY IDOCK:   -1.71 KCAL/MOL
REMARK 922        TOTAL FREE ENERGY PREDICTED BY IDOCK:   -2.07 KCAL/MOL
REMARK 923 INTER-LIGAND FREE ENERGY PREDICTED BY IDOCK:   -1.94 KCAL/MOL
REMARK 924 INTRA-LIGAND FREE ENERGY PREDICTED BY IDOCK:   -0.14 KCAL/MOL
REMARK 927      BINDING AFFINITY PREDICTED BY RF-SCORE:    0.00 PKD
ROOT
HETATM    1  C   UNL     1      -6.227   2.900  68.804  1.00  0.00    -0.029 C  
HETATM    2  C   UNL     1      -7.461   3.790  68.766  1.00  0.00    -0.054 C  
ENDROOT
BRANCH   2   3
HETATM    3  N   UNL     1      -7.272   5.162  69.447  1.00  0.00    -0.056 N  
HETATM    4  C   UNL     1      -6.946   4.933  70.926  1.00  0.00    -0.041 C  
HETATM    5  C   UNL     1      -6.080   5.869  68.794  1.00  0.00    -0.025 C  
BRANCH   3   6
HETATM    6  C   UNL     1      -8.532   6.020  69.409  1.00  0.00    -0.115 A  
HETATM    7  C   UNL     1      -9.483   5.873  68.384  1.00  0.00    -0.130 A  
HETATM    8  C   UNL     1     -10.594   6.715  68.334  1.00  0.00    -0.242 A  
HETATM    9  O   UNL     1     -11.534   6.609  67.354  1.00  0.00    -0.747 OA 
HETATM   10  C   UNL     1     -10.781   7.713  69.279  1.00  0.00    -0.169 A  
HETATM   11  H   UNL     1     -12.291   7.183  67.320  1.00  0.00     0.000 HD 
HETATM   12  C   UNL     1      -9.836   7.887  70.284  1.00  0.00    -0.184 A  
HETATM   13  C   UNL     1      -8.713   7.057  70.341  1.00  0.00    -0.147 A  
ENDBRANCH   3   6
ENDBRANCH   2   3
TORSDOF 2
ENDMDL
MODEL      236
REMARK 921   NORMALIZED FREE ENERGY PREDICTED BY IDOCK:   -1.68 KCAL/MOL
REMARK 922        TOTAL FREE ENERGY PREDICTED BY IDOCK:   -2.04 KCAL/MOL
REMARK 923 INTER-LIGAND FREE ENERGY PREDICTED BY IDOCK:   -1.91 KCAL/MOL
REMARK 924 INTRA-LIGAND FREE ENERGY PREDICTED BY IDOCK:   -0.14 KCAL/MOL
REMARK 927      BINDING AFFINITY PREDICTED BY RF-SCORE:    0.00 PKD
ROOT
HETATM    1  C   UNL     1      -8.381  11.340  66.622  1.00  0.00    -0.163 C  
HETATM    2  C   UNL     1      -8.789   9.896  66.368  1.00  0.00    -0.142 C  
ENDROOT
BRANCH   2   3
HETATM    3  N   UNL     1      -8.464   8.933  67.529  1.00  0.00    -0.116 N  
HETATM    4  C   UNL     1      -6.959   8.647  67.520  1.00  0.00    -0.078 C  
HETATM    5  C   UNL     1      -8.815   9.627  68.849  1.00  0.00    -0.136 C  
BRANCH   3   6
HETATM    6  C   UNL     1      -9.162   7.584  67.391  1.00  0.00    -0.132 A  
HETATM    7  C   UNL     1      -8.474   6.453  66.918  1.00  0.00    -0.110 A  
HETATM    8  C   UNL     1      -9.152   5.247  66.737  1.00  0.00    -0.118 A  
HETATM    9  O   UNL     1      -8.523   4.130  66.275  1.00  0.00    -0.108 OA 
HETATM   10  C   UNL     1     -10.508   5.139  67.007  1.00  0.00    -0.256 A  
HETATM   11  H   UNL     1      -8.986   3.309  66.151  1.00  0.00     0.000 HD 
HETATM   12  C   UNL     1     -11.207   6.255  67.452  1.00  0.00    -0.242 A  
HETATM   13  C   UNL     1     -10.543   7.473  67.628  1.00  0.00    -0.303 A  
ENDBRANCH   3   6
ENDBRANCH   2   3
TORSDOF 2
ENDMDL
MODEL      237
REMARK 921   NORMALIZED FREE ENERGY PREDICTED BY IDOCK:   -1.67 KCAL/MOL
REMARK 922        TOTAL FREE ENERGY PREDICTED BY IDOCK:   -2.03 KCAL/MOL
REMARK 923 INTER-LIGAND FREE ENERGY PREDICTED BY IDOCK:   -1.90 KCAL/MOL
REMARK 924 INTRA-LIGAND FREE ENERGY PREDICTED BY IDOCK:   -0.13 KCAL/MOL
REMARK 927      BINDING AFFINITY PREDICTED BY RF-SCORE:    0.00 PKD
ROOT
HETATM    1  C   UNL     1      -7.950   6.608  66.672  1.00  0.00    -0.105 C  
HETATM    2  C   UNL     1      -7.564   8.027  67.065  1.00  0.00    -0.096 C  
ENDROOT
BRANCH   2   3
HETATM    3  N   UNL     1      -8.757   8.917  67.473  1.00  0.00    -0.123 N  
HETATM    4  C   UNL     1      -9.774   8.925  66.328  1.00  0.00    -0.275 C  
HETATM    5  C   UNL     1      -9.424   8.301  68.707  1.00  0.00    -0.148 C  
BRANCH   3   6
HETATM    6  C   UNL     1      -8.357  10.370  67.708  1.00  0.00    -0.114 A  
HETATM    7  C   UNL     1      -7.557  10.738  68.803  1.00  0.00    -0.113 A  
HETATM    8  C   UNL     1      -7.261  12.081  69.035  1.00  0.00    -0.053 A  
HETATM    9  O   UNL     1      -6.495  12.479  70.088  1.00  0.00    -0.361 OA 
HETATM   10  C   UNL     1      -7.751  13.077  68.203  1.00  0.00    -0.143 A  
HETATM   11  H   UNL     1      -6.294  13.394  70.246  1.00  0.00     0.000 HD 
HETATM   12  C   UNL     1      -8.564  12.731  67.130  1.00  0.00    -0.197 A  
HETATM   13  C   UNL     1      -8.877  11.389  66.892  1.00  0.00    -0.173 A  
ENDBRANCH   3   6
ENDBRANCH   2   3
TORSDOF 2
ENDMDL
MODEL      238
REMARK 921   NORMALIZED FREE ENERGY PREDICTED BY IDOCK:   -1.66 KCAL/MOL
REMARK 922        TOTAL FREE ENERGY PREDICTED BY IDOCK:   -2.02 KCAL/MOL
REMARK 923 INTER-LIGAND FREE ENERGY PREDICTED BY IDOCK:   -1.78 KCAL/MOL
REMARK 924 INTRA-LIGAND FREE ENERGY PREDICTED BY IDOCK:   -0.24 KCAL/MOL
REMARK 927      BINDING AFFINITY PREDICTED BY RF-SCORE:    0.00 PKD
ROOT
HETATM    1  C   UNL     1      -5.980   5.704  64.078  1.00  0.00    -0.025 C  
HETATM    2  C   UNL     1      -5.499   6.499  65.284  1.00  0.00    -0.022 C  
ENDROOT
BRANCH   2   3
HETATM    3  N   UNL     1      -6.614   7.282  66.010  1.00  0.00    -0.051 N  
HETATM    4  C   UNL     1      -6.007   7.975  67.233  1.00  0.00    -0.050 C  
HETATM    5  C   UNL     1      -7.149   8.360  65.061  1.00  0.00    -0.079 C  
BRANCH   3   6
HETATM    6  C   UNL     1      -7.727   6.380  66.531  1.00  0.00    -0.099 A  
HETATM    7  C   UNL     1      -9.066   6.580  66.152  1.00  0.00    -0.146 A  
HETATM    8  C   UNL     1     -10.074   5.784  66.696  1.00  0.00    -0.193 A  
HETATM    9  O   UNL     1     -11.383   5.950  66.359  1.00  0.00    -0.730 OA 
HETATM   10  C   UNL     1      -9.784   4.791  67.620  1.00  0.00    -0.202 A  
HETATM   11  H   UNL     1     -12.070   5.408  66.730  1.00  0.00     0.000 HD 
HETATM   12  C   UNL     1      -8.468   4.598  68.023  1.00  0.00    -0.103 A  
HETATM   13  C   UNL     1      -7.449   5.395  67.495  1.00  0.00    -0.084 A  
ENDBRANCH   3   6
ENDBRANCH   2   3
TORSDOF 2
ENDMDL
MODEL      239
REMARK 921   NORMALIZED FREE ENERGY PREDICTED BY IDOCK:   -1.61 KCAL/MOL
REMARK 922        TOTAL FREE ENERGY PREDICTED BY IDOCK:   -1.97 KCAL/MOL
REMARK 923 INTER-LIGAND FREE ENERGY PREDICTED BY IDOCK:   -1.99 KCAL/MOL
REMARK 924 INTRA-LIGAND FREE ENERGY PREDICTED BY IDOCK:    0.02 KCAL/MOL
REMARK 927      BINDING AFFINITY PREDICTED BY RF-SCORE:    0.00 PKD
ROOT
HETATM    1  C   UNL     1      -7.547   7.216  69.654  1.00  0.00    -0.104 C  
HETATM    2  C   UNL     1      -6.876   8.110  68.621  1.00  0.00    -0.067 C  
ENDROOT
BRANCH   2   3
HETATM    3  N   UNL     1      -6.811   7.500  67.204  1.00  0.00    -0.069 N  
HETATM    4  C   UNL     1      -6.921   8.632  66.179  1.00  0.00    -0.080 C  
HETATM    5  C   UNL     1      -5.449   6.820  67.029  1.00  0.00    -0.013 C  
BRANCH   3   6
HETATM    6  C   UNL     1      -7.965   6.544  66.919  1.00  0.00    -0.112 A  
HETATM    7  C   UNL     1      -9.293   7.002  66.863  1.00  0.00    -0.185 A  
HETATM    8  C   UNL     1     -10.337   6.097  66.669  1.00  0.00    -0.187 A  
HETATM    9  O   UNL     1     -11.638   6.500  66.615  1.00  0.00    -0.678 OA 
HETATM   10  C   UNL     1     -10.094   4.738  66.537  1.00  0.00    -0.286 A  
HETATM   11  H   UNL     1     -12.349   5.883  66.483  1.00  0.00     0.000 HD 
HETATM   12  C   UNL     1      -8.788   4.268  66.615  1.00  0.00    -0.116 A  
HETATM   13  C   UNL     1      -7.733   5.161  66.820  1.00  0.00    -0.092 A  
ENDBRANCH   3   6
ENDBRANCH   2   3
TORSDOF 2
ENDMDL
MODEL      240
REMARK 921   NORMALIZED FREE ENERGY PREDICTED BY IDOCK:   -1.59 KCAL/MOL
REMARK 922        TOTAL FREE ENERGY PREDICTED BY IDOCK:   -1.94 KCAL/MOL
REMARK 923 INTER-LIGAND FREE ENERGY PREDICTED BY IDOCK:   -1.78 KCAL/MOL
REMARK 924 INTRA-LIGAND FREE ENERGY PREDICTED BY IDOCK:   -0.16 KCAL/MOL
REMARK 927      BINDING AFFINITY PREDICTED BY RF-SCORE:    0.00 PKD
ROOT
HETATM    1  C   UNL     1      -8.422  12.178  67.121  1.00  0.00    -0.182 C  
HETATM    2  C   UNL     1      -8.809  13.479  67.810  1.00  0.00    -0.198 C  
ENDROOT
BRANCH   2   3
HETATM    3  N   UNL     1      -7.625  14.439  68.056  1.00  0.00    -0.122 N  
HETATM    4  C   UNL     1      -7.280  14.417  69.548  1.00  0.00    -0.051 C  
HETATM    5  C   UNL     1      -6.413  13.928  67.272  1.00  0.00     0.339 C  
BRANCH   3   6
HETATM    6  C   UNL     1      -7.958  15.887  67.709  1.00  0.00    -0.141 A  
HETATM    7  C   UNL     1      -8.087  16.865  68.711  1.00  0.00    -0.251 A  
HETATM    8  C   UNL     1      -8.459  18.167  68.374  1.00  0.00    -0.299 A  
HETATM    9  O   UNL     1      -8.601  19.141  69.316  1.00  0.00    -0.163 OA 
HETATM   10  C   UNL     1      -8.715  18.522  67.058  1.00  0.00    -0.278 A  
HETATM   11  H   UNL     1      -8.854  20.028  69.086  1.00  0.00     0.000 HD 
HETATM   12  C   UNL     1      -8.615  17.560  66.060  1.00  0.00    -0.080 A  
HETATM   13  C   UNL     1      -8.254  16.249  66.384  1.00  0.00    -0.354 A  
ENDBRANCH   3   6
ENDBRANCH   2   3
TORSDOF 2
ENDMDL
MODEL      241
REMARK 921   NORMALIZED FREE ENERGY PREDICTED BY IDOCK:   -1.58 KCAL/MOL
REMARK 922        TOTAL FREE ENERGY PREDICTED BY IDOCK:   -1.94 KCAL/MOL
REMARK 923 INTER-LIGAND FREE ENERGY PREDICTED BY IDOCK:   -1.79 KCAL/MOL
REMARK 924 INTRA-LIGAND FREE ENERGY PREDICTED BY IDOCK:   -0.14 KCAL/MOL
REMARK 927      BINDING AFFINITY PREDICTED BY RF-SCORE:    0.00 PKD
ROOT
HETATM    1  C   UNL     1      -9.588   3.471  65.539  1.00  0.00    -0.125 C  
HETATM    2  C   UNL     1     -10.525   4.645  65.786  1.00  0.00    -0.255 C  
ENDROOT
BRANCH   2   3
HETATM    3  N   UNL     1      -9.974   5.697  66.772  1.00  0.00    -0.162 N  
HETATM    4  C   UNL     1      -8.955   6.571  66.035  1.00  0.00    -0.122 C  
HETATM    5  C   UNL     1     -11.132   6.588  67.230  1.00  0.00    -0.350 C  
BRANCH   3   6
HETATM    6  C   UNL     1      -9.235   5.072  67.951  1.00  0.00    -0.119 A  
HETATM    7  C   UNL     1      -9.934   4.543  69.050  1.00  0.00    -0.151 A  
HETATM    8  C   UNL     1      -9.234   4.039  70.147  1.00  0.00    -0.142 A  
HETATM    9  O   UNL     1      -9.873   3.523  71.234  1.00  0.00    -0.182 OA 
HETATM   10  C   UNL     1      -7.847   4.055  70.182  1.00  0.00    -0.048 A  
HETATM   11  H   UNL     1      -9.396   3.180  71.981  1.00  0.00     0.000 HD 
HETATM   12  C   UNL     1      -7.144   4.597  69.113  1.00  0.00    -0.052 A  
HETATM   13  C   UNL     1      -7.832   5.116  68.012  1.00  0.00    -0.087 A  
ENDBRANCH   3   6
ENDBRANCH   2   3
TORSDOF 2
ENDMDL
MODEL      242
REMARK 921   NORMALIZED FREE ENERGY PREDICTED BY IDOCK:   -1.58 KCAL/MOL
REMARK 922        TOTAL FREE ENERGY PREDICTED BY IDOCK:   -1.93 KCAL/MOL
REMARK 923 INTER-LIGAND FREE ENERGY PREDICTED BY IDOCK:   -1.79 KCAL/MOL
REMARK 924 INTRA-LIGAND FREE ENERGY PREDICTED BY IDOCK:   -0.14 KCAL/MOL
REMARK 927      BINDING AFFINITY PREDICTED BY RF-SCORE:    0.00 PKD
ROOT
HETATM    1  C   UNL     1      -8.155   8.017  63.002  1.00  0.00    -0.120 C  
HETATM    2  C   UNL     1      -8.534   8.291  64.450  1.00  0.00    -0.005 C  
ENDROOT
BRANCH   2   3
HETATM    3  N   UNL     1      -8.366   9.764  64.880  1.00  0.00    -0.139 N  
HETATM    4  C   UNL     1      -6.905  10.171  64.667  1.00  0.00    -0.117 C  
HETATM    5  C   UNL     1      -9.247  10.636  63.980  1.00  0.00    -0.239 C  
BRANCH   3   6
HETATM    6  C   UNL     1      -8.667   9.986  66.358  1.00  0.00    -0.129 A  
HETATM    7  C   UNL     1      -9.293   8.993  67.132  1.00  0.00    -0.184 A  
HETATM    8  C   UNL     1      -9.619   9.246  68.464  1.00  0.00    -0.147 A  
HETATM    9  O   UNL     1     -10.231   8.312  69.245  1.00  0.00    -0.196 OA 
HETATM   10  C   UNL     1      -9.343  10.472  69.050  1.00  0.00    -0.205 A  
HETATM   11  H   UNL     1     -10.454   8.485  70.153  1.00  0.00     0.000 HD 
HETATM   12  C   UNL     1      -8.747  11.472  68.291  1.00  0.00    -0.162 A  
HETATM   13  C   UNL     1      -8.425  11.237  66.951  1.00  0.00    -0.152 A  
ENDBRANCH   3   6
ENDBRANCH   2   3
TORSDOF 2
ENDMDL
MODEL      243
REMARK 921   NORMALIZED FREE ENERGY PREDICTED BY IDOCK:   -1.58 KCAL/MOL
REMARK 922        TOTAL FREE ENERGY PREDICTED BY IDOCK:   -1.93 KCAL/MOL
REMARK 923 INTER-LIGAND FREE ENERGY PREDICTED BY IDOCK:   -1.72 KCAL/MOL
REMARK 924 INTRA-LIGAND FREE ENERGY PREDICTED BY IDOCK:   -0.20 KCAL/MOL
REMARK 927      BINDING AFFINITY PREDICTED BY RF-SCORE:    0.00 PKD
ROOT
HETATM    1  C   UNL     1     -10.363  10.363  66.238  1.00  0.00    -0.270 C  
HETATM    2  C   UNL     1     -10.642   9.711  67.584  1.00  0.00    -0.275 C  
ENDROOT
BRANCH   2   3
HETATM    3  N   UNL     1      -9.744  10.219  68.732  1.00  0.00    -0.169 N  
HETATM    4  C   UNL     1      -9.359  11.674  68.444  1.00  0.00    -0.191 C  
HETATM    5  C   UNL     1     -10.550  10.183  70.034  1.00  0.00    -0.287 C  
BRANCH   3   6
HETATM    6  C   UNL     1      -8.437   9.441  68.849  1.00  0.00    -0.122 A  
HETATM    7  C   UNL     1      -8.354   8.270  69.622  1.00  0.00    -0.123 A  
HETATM    8  C   UNL     1      -7.131   7.614  69.769  1.00  0.00    -0.067 A  
HETATM    9  O   UNL     1      -7.007   6.480  70.514  1.00  0.00    -0.060 OA 
HETATM   10  C   UNL     1      -5.979   8.101  69.169  1.00  0.00    -0.038 A  
HETATM   11  H   UNL     1      -6.174   6.034  70.614  1.00  0.00     0.000 HD 
HETATM   12  C   UNL     1      -6.042   9.271  68.422  1.00  0.00    -0.045 A  
HETATM   13  C   UNL     1      -7.257   9.945  68.275  1.00  0.00    -0.078 A  
ENDBRANCH   3   6
ENDBRANCH   2   3
TORSDOF 2
ENDMDL
MODEL      244
REMARK 921   NORMALIZED FREE ENERGY PREDICTED BY IDOCK:   -1.57 KCAL/MOL
REMARK 922        TOTAL FREE ENERGY PREDICTED BY IDOCK:   -1.92 KCAL/MOL
REMARK 923 INTER-LIGAND FREE ENERGY PREDICTED BY IDOCK:   -1.76 KCAL/MOL
REMARK 924 INTRA-LIGAND FREE ENERGY PREDICTED BY IDOCK:   -0.16 KCAL/MOL
REMARK 927      BINDING AFFINITY PREDICTED BY RF-SCORE:    0.00 PKD
ROOT
HETATM    1  C   UNL     1     -10.386   9.405  71.112  1.00  0.00    -0.377 C  
HETATM    2  C   UNL     1     -10.391   8.669  69.779  1.00  0.00    -0.212 C  
ENDROOT
BRANCH   2   3
HETATM    3  N   UNL     1      -9.241   9.070  68.831  1.00  0.00    -0.139 N  
HETATM    4  C   UNL     1      -9.827   9.871  67.664  1.00  0.00    -0.163 C  
HETATM    5  C   UNL     1      -8.271   9.975  69.598  1.00  0.00    -0.175 C  
BRANCH   3   6
HETATM    6  C   UNL     1      -8.533   7.867  68.218  1.00  0.00    -0.124 A  
HETATM    7  C   UNL     1      -8.283   7.793  66.837  1.00  0.00    -0.116 A  
HETATM    8  C   UNL     1      -7.695   6.651  66.292  1.00  0.00    -0.098 A  
HETATM    9  O   UNL     1      -7.442   6.539  64.958  1.00  0.00    -0.074 OA 
HETATM   10  C   UNL     1      -7.355   5.569  67.090  1.00  0.00    -0.080 A  
HETATM   11  H   UNL     1      -7.042   5.761  64.587  1.00  0.00     0.000 HD 
HETATM   12  C   UNL     1      -7.619   5.617  68.453  1.00  0.00    -0.081 A  
HETATM   13  C   UNL     1      -8.217   6.750  69.012  1.00  0.00    -0.117 A  
ENDBRANCH   3   6
ENDBRANCH   2   3
TORSDOF 2
ENDMDL
MODEL      245
REMARK 921   NORMALIZED FREE ENERGY PREDICTED BY IDOCK:   -1.57 KCAL/MOL
REMARK 922        TOTAL FREE ENERGY PREDICTED BY IDOCK:   -1.92 KCAL/MOL
REMARK 923 INTER-LIGAND FREE ENERGY PREDICTED BY IDOCK:   -1.77 KCAL/MOL
REMARK 924 INTRA-LIGAND FREE ENERGY PREDICTED BY IDOCK:   -0.15 KCAL/MOL
REMARK 927      BINDING AFFINITY PREDICTED BY RF-SCORE:    0.00 PKD
ROOT
HETATM    1  C   UNL     1     -10.600   4.830  65.968  1.00  0.00    -0.300 C  
HETATM    2  C   UNL     1      -9.713   5.166  67.158  1.00  0.00    -0.157 C  
ENDROOT
BRANCH   2   3
HETATM    3  N   UNL     1     -10.018   6.532  67.808  1.00  0.00    -0.126 N  
HETATM    4  C   UNL     1     -10.588   7.466  66.737  1.00  0.00    -0.211 C  
HETATM    5  C   UNL     1     -11.083   6.330  68.890  1.00  0.00    -0.362 C  
BRANCH   3   6
HETATM    6  C   UNL     1      -8.770   7.215  68.359  1.00  0.00    -0.125 A  
HETATM    7  C   UNL     1      -8.737   8.603  68.579  1.00  0.00    -0.139 A  
HETATM    8  C   UNL     1      -7.562   9.214  69.019  1.00  0.00    -0.074 A  
HETATM    9  O   UNL     1      -7.487  10.557  69.238  1.00  0.00    -0.097 OA 
HETATM   10  C   UNL     1      -6.409   8.476  69.239  1.00  0.00    -0.042 A  
HETATM   11  H   UNL     1      -6.687  10.972  69.537  1.00  0.00     0.000 HD 
HETATM   12  C   UNL     1      -6.420   7.106  69.002  1.00  0.00    -0.036 A  
HETATM   13  C   UNL     1      -7.586   6.483  68.551  1.00  0.00    -0.097 A  
ENDBRANCH   3   6
ENDBRANCH   2   3
TORSDOF 2
ENDMDL
MODEL      246
REMARK 921   NORMALIZED FREE ENERGY PREDICTED BY IDOCK:   -1.55 KCAL/MOL
REMARK 922        TOTAL FREE ENERGY PREDICTED BY IDOCK:   -1.90 KCAL/MOL
REMARK 923 INTER-LIGAND FREE ENERGY PREDICTED BY IDOCK:   -1.72 KCAL/MOL
REMARK 924 INTRA-LIGAND FREE ENERGY PREDICTED BY IDOCK:   -0.18 KCAL/MOL
REMARK 927      BINDING AFFINITY PREDICTED BY RF-SCORE:    0.00 PKD
ROOT
HETATM    1  C   UNL     1     -10.715   4.978  65.803  1.00  0.00    -0.132 C  
HETATM    2  C   UNL     1      -9.371   5.365  66.404  1.00  0.00    -0.150 C  
ENDROOT
BRANCH   2   3
HETATM    3  N   UNL     1      -9.470   6.317  67.615  1.00  0.00    -0.116 N  
HETATM    4  C   UNL     1      -8.480   7.468  67.414  1.00  0.00    -0.115 C  
HETATM    5  C   UNL     1     -10.885   6.901  67.660  1.00  0.00    -0.263 C  
BRANCH   3   6
HETATM    6  C   UNL     1      -9.090   5.643  68.929  1.00  0.00    -0.115 A  
HETATM    7  C   UNL     1      -7.807   5.798  69.483  1.00  0.00    -0.093 A  
HETATM    8  C   UNL     1      -7.462   5.116  70.650  1.00  0.00    -0.070 A  
HETATM    9  O   UNL     1      -6.228   5.236  71.216  1.00  0.00    -0.027 OA 
HETATM   10  C   UNL     1      -8.363   4.271  71.280  1.00  0.00    -0.089 A  
HETATM   11  H   UNL     1      -5.993   4.771  72.010  1.00  0.00     0.000 HD 
HETATM   12  C   UNL     1      -9.626   4.088  70.730  1.00  0.00    -0.263 A  
HETATM   13  C   UNL     1      -9.982   4.756  69.555  1.00  0.00    -0.287 A  
ENDBRANCH   3   6
ENDBRANCH   2   3
TORSDOF 2
ENDMDL
MODEL      247
REMARK 921   NORMALIZED FREE ENERGY PREDICTED BY IDOCK:   -1.54 KCAL/MOL
REMARK 922        TOTAL FREE ENERGY PREDICTED BY IDOCK:   -1.89 KCAL/MOL
REMARK 923 INTER-LIGAND FREE ENERGY PREDICTED BY IDOCK:   -1.74 KCAL/MOL
REMARK 924 INTRA-LIGAND FREE ENERGY PREDICTED BY IDOCK:   -0.15 KCAL/MOL
REMARK 927      BINDING AFFINITY PREDICTED BY RF-SCORE:    0.00 PKD
ROOT
HETATM    1  C   UNL     1      -8.243   5.324  63.302  1.00  0.00    -0.114 C  
HETATM    2  C   UNL     1      -7.750   5.469  64.735  1.00  0.00    -0.092 C  
ENDROOT
BRANCH   2   3
HETATM    3  N   UNL     1      -8.516   4.604  65.758  1.00  0.00    -0.115 N  
HETATM    4  C   UNL     1      -9.831   4.145  65.122  1.00  0.00    -0.205 C  
HETATM    5  C   UNL     1      -7.674   3.365  66.075  1.00  0.00    -0.081 C  
BRANCH   3   6
HETATM    6  C   UNL     1      -8.892   5.375  67.020  1.00  0.00    -0.110 A  
HETATM    7  C   UNL     1      -7.924   6.076  67.760  1.00  0.00    -0.105 A  
HETATM    8  C   UNL     1      -8.280   6.716  68.948  1.00  0.00    -0.120 A  
HETATM    9  O   UNL     1      -7.371   7.401  69.697  1.00  0.00    -0.085 OA 
HETATM   10  C   UNL     1      -9.581   6.669  69.425  1.00  0.00    -0.148 A  
HETATM   11  H   UNL     1      -7.614   7.836  70.506  1.00  0.00     0.000 HD 
HETATM   12  C   UNL     1     -10.543   5.959  68.717  1.00  0.00    -0.340 A  
HETATM   13  C   UNL     1     -10.199   5.304  67.531  1.00  0.00    -0.229 A  
ENDBRANCH   3   6
ENDBRANCH   2   3
TORSDOF 2
ENDMDL
MODEL      248
REMARK 921   NORMALIZED FREE ENERGY PREDICTED BY IDOCK:   -1.52 KCAL/MOL
REMARK 922        TOTAL FREE ENERGY PREDICTED BY IDOCK:   -1.87 KCAL/MOL
REMARK 923 INTER-LIGAND FREE ENERGY PREDICTED BY IDOCK:   -1.67 KCAL/MOL
REMARK 924 INTRA-LIGAND FREE ENERGY PREDICTED BY IDOCK:   -0.20 KCAL/MOL
REMARK 927      BINDING AFFINITY PREDICTED BY RF-SCORE:    0.00 PKD
ROOT
HETATM    1  C   UNL     1      -9.247   6.555  72.630  1.00  0.00    -0.141 C  
HETATM    2  C   UNL     1      -7.757   6.750  72.389  1.00  0.00    -0.093 C  
ENDROOT
BRANCH   2   3
HETATM    3  N   UNL     1      -7.369   6.882  70.900  1.00  0.00    -0.076 N  
HETATM    4  C   UNL     1      -5.942   7.431  70.813  1.00  0.00    -0.035 C  
HETATM    5  C   UNL     1      -7.390   5.488  70.266  1.00  0.00    -0.068 C  
BRANCH   3   6
HETATM    6  C   UNL     1      -8.258   7.864  70.144  1.00  0.00    -0.125 A  
HETATM    7  C   UNL     1      -8.991   7.462  69.014  1.00  0.00    -0.131 A  
HETATM    8  C   UNL     1      -9.742   8.395  68.299  1.00  0.00    -0.155 A  
HETATM    9  O   UNL     1     -10.462   8.047  67.195  1.00  0.00    -0.298 OA 
HETATM   10  C   UNL     1      -9.777   9.729  68.676  1.00  0.00    -0.162 A  
HETATM   11  H   UNL     1     -10.973   8.683  66.708  1.00  0.00     0.000 HD 
HETATM   12  C   UNL     1      -9.037  10.146  69.776  1.00  0.00    -0.166 A  
HETATM   13  C   UNL     1      -8.271   9.225  70.496  1.00  0.00    -0.219 A  
ENDBRANCH   3   6
ENDBRANCH   2   3
TORSDOF 2
ENDMDL
MODEL      249
REMARK 921   NORMALIZED FREE ENERGY PREDICTED BY IDOCK:   -1.49 KCAL/MOL
REMARK 922        TOTAL FREE ENERGY PREDICTED BY IDOCK:   -1.83 KCAL/MOL
REMARK 923 INTER-LIGAND FREE ENERGY PREDICTED BY IDOCK:   -1.65 KCAL/MOL
REMARK 924 INTRA-LIGAND FREE ENERGY PREDICTED BY IDOCK:   -0.17 KCAL/MOL
REMARK 927      BINDING AFFINITY PREDICTED BY RF-SCORE:    0.00 PKD
ROOT
HETATM    1  C   UNL     1      -6.810   1.876  68.606  1.00  0.00    -0.036 C  
HETATM    2  C   UNL     1      -7.329   3.150  67.954  1.00  0.00    -0.054 C  
ENDROOT
BRANCH   2   3
HETATM    3  N   UNL     1      -8.811   3.455  68.256  1.00  0.00    -0.108 N  
HETATM    4  C   UNL     1      -9.483   3.938  66.966  1.00  0.00    -0.200 C  
HETATM    5  C   UNL     1      -9.495   2.158  68.699  1.00  0.00    -0.137 C  
BRANCH   3   6
HETATM    6  C   UNL     1      -8.989   4.571  69.280  1.00  0.00    -0.096 A  
HETATM    7  C   UNL     1      -7.882   5.256  69.811  1.00  0.00    -0.073 A  
HETATM    8  C   UNL     1      -8.066   6.225  70.797  1.00  0.00    -0.120 A  
HETATM    9  O   UNL     1      -7.018   6.907  71.340  1.00  0.00    -0.064 OA 
HETATM   10  C   UNL     1      -9.331   6.528  71.278  1.00  0.00    -0.158 A  
HETATM   11  H   UNL     1      -7.144   7.567  72.012  1.00  0.00     0.000 HD 
HETATM   12  C   UNL     1     -10.432   5.842  70.781  1.00  0.00    -0.324 A  
HETATM   13  C   UNL     1     -10.262   4.860  69.801  1.00  0.00    -0.284 A  
ENDBRANCH   3   6
ENDBRANCH   2   3
TORSDOF 2
ENDMDL
MODEL      250
REMARK 921   NORMALIZED FREE ENERGY PREDICTED BY IDOCK:   -1.48 KCAL/MOL
REMARK 922        TOTAL FREE ENERGY PREDICTED BY IDOCK:   -1.82 KCAL/MOL
REMARK 923 INTER-LIGAND FREE ENERGY PREDICTED BY IDOCK:   -1.69 KCAL/MOL
REMARK 924 INTRA-LIGAND FREE ENERGY PREDICTED BY IDOCK:   -0.14 KCAL/MOL
REMARK 927      BINDING AFFINITY PREDICTED BY RF-SCORE:    0.00 PKD
ROOT
HETATM    1  C   UNL     1      -8.546   3.594  65.837  1.00  0.00    -0.114 C  
HETATM    2  C   UNL     1      -8.997   5.048  65.864  1.00  0.00    -0.141 C  
ENDROOT
BRANCH   2   3
HETATM    3  N   UNL     1      -8.417   5.868  67.035  1.00  0.00    -0.108 N  
HETATM    4  C   UNL     1      -9.375   5.765  68.225  1.00  0.00    -0.117 C  
HETATM    5  C   UNL     1      -7.074   5.254  67.442  1.00  0.00    -0.067 C  
BRANCH   3   6
HETATM    6  C   UNL     1      -8.288   7.353  66.710  1.00  0.00    -0.122 A  
HETATM    7  C   UNL     1      -9.356   8.070  66.143  1.00  0.00    -0.212 A  
HETATM    8  C   UNL     1      -9.191   9.410  65.791  1.00  0.00    -0.219 A  
HETATM    9  O   UNL     1     -10.200  10.137  65.234  1.00  0.00    -0.304 OA 
HETATM   10  C   UNL     1      -7.980  10.058  65.984  1.00  0.00    -0.118 A  
HETATM   11  H   UNL     1     -10.087  11.050  64.995  1.00  0.00     0.000 HD 
HETATM   12  C   UNL     1      -6.908   9.355  66.521  1.00  0.00    -0.083 A  
HETATM   13  C   UNL     1      -7.055   8.009  66.868  1.00  0.00    -0.081 A  
ENDBRANCH   3   6
ENDBRANCH   2   3
TORSDOF 2
ENDMDL
MODEL      251
REMARK 921   NORMALIZED FREE ENERGY PREDICTED BY IDOCK:   -1.48 KCAL/MOL
REMARK 922        TOTAL FREE ENERGY PREDICTED BY IDOCK:   -1.82 KCAL/MOL
REMARK 923 INTER-LIGAND FREE ENERGY PREDICTED BY IDOCK:   -1.63 KCAL/MOL
REMARK 924 INTRA-LIGAND FREE ENERGY PREDICTED BY IDOCK:   -0.19 KCAL/MOL
REMARK 927      BINDING AFFINITY PREDICTED BY RF-SCORE:    0.00 PKD
ROOT
HETATM    1  C   UNL     1      -7.501   2.634  67.591  1.00  0.00    -0.057 C  
HETATM    2  C   UNL     1      -8.215   3.561  66.618  1.00  0.00    -0.099 C  
ENDROOT
BRANCH   2   3
HETATM    3  N   UNL     1      -7.681   5.010  66.618  1.00  0.00    -0.091 N  
HETATM    4  C   UNL     1      -6.372   5.048  67.412  1.00  0.00    -0.040 C  
HETATM    5  C   UNL     1      -7.382   5.418  65.172  1.00  0.00    -0.068 C  
BRANCH   3   6
HETATM    6  C   UNL     1      -8.631   5.989  67.301  1.00  0.00    -0.106 A  
HETATM    7  C   UNL     1      -8.230   6.725  68.430  1.00  0.00    -0.119 A  
HETATM    8  C   UNL     1      -9.139   7.562  69.078  1.00  0.00    -0.140 A  
HETATM    9  O   UNL     1      -8.792   8.287  70.178  1.00  0.00    -0.137 OA 
HETATM   10  C   UNL     1     -10.447   7.681  68.633  1.00  0.00    -0.203 A  
HETATM   11  H   UNL     1      -9.411   8.857  70.619  1.00  0.00     0.000 HD 
HETATM   12  C   UNL     1     -10.864   6.941  67.533  1.00  0.00    -0.363 A  
HETATM   13  C   UNL     1      -9.968   6.090  66.881  1.00  0.00    -0.207 A  
ENDBRANCH   3   6
ENDBRANCH   2   3
TORSDOF 2
ENDMDL
MODEL      252
REMARK 921   NORMALIZED FREE ENERGY PREDICTED BY IDOCK:   -1.47 KCAL/MOL
REMARK 922        TOTAL FREE ENERGY PREDICTED BY IDOCK:   -1.81 KCAL/MOL
REMARK 923 INTER-LIGAND FREE ENERGY PREDICTED BY IDOCK:   -1.63 KCAL/MOL
REMARK 924 INTRA-LIGAND FREE ENERGY PREDICTED BY IDOCK:   -0.19 KCAL/MOL
REMARK 927      BINDING AFFINITY PREDICTED BY RF-SCORE:    0.00 PKD
ROOT
HETATM    1  C   UNL     1      -6.406   6.007  64.387  1.00  0.00    -0.030 C  
HETATM    2  C   UNL     1      -6.063   7.023  65.466  1.00  0.00    -0.037 C  
ENDROOT
BRANCH   2   3
HETATM    3  N   UNL     1      -7.160   8.082  65.709  1.00  0.00    -0.063 N  
HETATM    4  C   UNL     1      -6.488   9.444  65.910  1.00  0.00    -0.075 C  
HETATM    5  C   UNL     1      -8.046   8.160  64.462  1.00  0.00    -0.142 C  
BRANCH   3   6
HETATM    6  C   UNL     1      -7.974   7.811  66.970  1.00  0.00    -0.116 A  
HETATM    7  C   UNL     1      -9.203   8.455  67.197  1.00  0.00    -0.174 A  
HETATM    8  C   UNL     1      -9.895   8.242  68.389  1.00  0.00    -0.172 A  
HETATM    9  O   UNL     1     -11.085   8.851  68.649  1.00  0.00    -0.444 OA 
HETATM   10  C   UNL     1      -9.389   7.404  69.372  1.00  0.00    -0.155 A  
HETATM   11  H   UNL     1     -11.557   8.706  69.462  1.00  0.00     0.000 HD 
HETATM   12  C   UNL     1      -8.164   6.780  69.173  1.00  0.00    -0.121 A  
HETATM   13  C   UNL     1      -7.454   6.993  67.988  1.00  0.00    -0.099 A  
ENDBRANCH   3   6
ENDBRANCH   2   3
TORSDOF 2
ENDMDL
MODEL      253
REMARK 921   NORMALIZED FREE ENERGY PREDICTED BY IDOCK:   -1.44 KCAL/MOL
REMARK 922        TOTAL FREE ENERGY PREDICTED BY IDOCK:   -1.78 KCAL/MOL
REMARK 923 INTER-LIGAND FREE ENERGY PREDICTED BY IDOCK:   -1.60 KCAL/MOL
REMARK 924 INTRA-LIGAND FREE ENERGY PREDICTED BY IDOCK:   -0.18 KCAL/MOL
REMARK 927      BINDING AFFINITY PREDICTED BY RF-SCORE:    0.00 PKD
ROOT
HETATM    1  C   UNL     1     -10.686   9.534  67.282  1.00  0.00    -0.269 C  
HETATM    2  C   UNL     1     -10.668   9.738  68.790  1.00  0.00    -0.215 C  
ENDROOT
BRANCH   2   3
HETATM    3  N   UNL     1      -9.523   8.999  69.514  1.00  0.00    -0.161 N  
HETATM    4  C   UNL     1      -9.715   9.161  71.025  1.00  0.00    -0.289 C  
HETATM    5  C   UNL     1      -9.614   7.508  69.174  1.00  0.00    -0.157 C  
BRANCH   3   6
HETATM    6  C   UNL     1      -8.148   9.574  69.188  1.00  0.00    -0.103 A  
HETATM    7  C   UNL     1      -7.943  10.962  69.094  1.00  0.00    -0.114 A  
HETATM    8  C   UNL     1      -6.693  11.461  68.727  1.00  0.00    -0.073 A  
HETATM    9  O   UNL     1      -6.456  12.799  68.620  1.00  0.00    -0.068 OA 
HETATM   10  C   UNL     1      -5.636  10.610  68.441  1.00  0.00    -0.040 A  
HETATM   11  H   UNL     1      -5.604  13.138  68.369  1.00  0.00     0.000 HD 
HETATM   12  C   UNL     1      -5.831   9.235  68.506  1.00  0.00    -0.041 A  
HETATM   13  C   UNL     1      -7.081   8.720  68.862  1.00  0.00    -0.066 A  
ENDBRANCH   3   6
ENDBRANCH   2   3
TORSDOF 2
ENDMDL
MODEL      254
REMARK 921   NORMALIZED FREE ENERGY PREDICTED BY IDOCK:   -1.43 KCAL/MOL
REMARK 922        TOTAL FREE ENERGY PREDICTED BY IDOCK:   -1.77 KCAL/MOL
REMARK 923 INTER-LIGAND FREE ENERGY PREDICTED BY IDOCK:   -1.63 KCAL/MOL
REMARK 924 INTRA-LIGAND FREE ENERGY PREDICTED BY IDOCK:   -0.14 KCAL/MOL
REMARK 927      BINDING AFFINITY PREDICTED BY RF-SCORE:    0.00 PKD
ROOT
HETATM    1  C   UNL     1      -8.539   7.352  68.828  1.00  0.00    -0.129 C  
HETATM    2  C   UNL     1      -9.029   6.569  67.618  1.00  0.00    -0.114 C  
ENDROOT
BRANCH   2   3
HETATM    3  N   UNL     1      -8.886   5.038  67.755  1.00  0.00    -0.103 N  
HETATM    4  C   UNL     1      -7.420   4.709  68.049  1.00  0.00    -0.073 C  
HETATM    5  C   UNL     1      -9.733   4.575  68.945  1.00  0.00    -0.154 C  
BRANCH   3   6
HETATM    6  C   UNL     1      -9.249   4.294  66.474  1.00  0.00    -0.149 A  
HETATM    7  C   UNL     1      -8.383   3.338  65.916  1.00  0.00    -0.103 A  
HETATM    8  C   UNL     1      -8.706   2.721  64.708  1.00  0.00    -0.111 A  
HETATM    9  O   UNL     1      -7.891   1.794  64.132  1.00  0.00    -0.062 OA 
HETATM   10  C   UNL     1      -9.874   3.038  64.030  1.00  0.00    -0.159 A  
HETATM   11  H   UNL     1      -8.111   1.374  63.308  1.00  0.00     0.000 HD 
HETATM   12  C   UNL     1     -10.729   4.000  64.557  1.00  0.00    -0.181 A  
HETATM   13  C   UNL     1     -10.412   4.634  65.761  1.00  0.00    -0.290 A  
ENDBRANCH   3   6
ENDBRANCH   2   3
TORSDOF 2
ENDMDL
MODEL      255
REMARK 921   NORMALIZED FREE ENERGY PREDICTED BY IDOCK:   -1.39 KCAL/MOL
REMARK 922        TOTAL FREE ENERGY PREDICTED BY IDOCK:   -1.72 KCAL/MOL
REMARK 923 INTER-LIGAND FREE ENERGY PREDICTED BY IDOCK:   -1.54 KCAL/MOL
REMARK 924 INTRA-LIGAND FREE ENERGY PREDICTED BY IDOCK:   -0.18 KCAL/MOL
REMARK 927      BINDING AFFINITY PREDICTED BY RF-SCORE:    0.00 PKD
ROOT
HETATM    1  C   UNL     1      -9.511   5.505  72.118  1.00  0.00    -0.169 C  
HETATM    2  C   UNL     1      -7.990   5.489  72.052  1.00  0.00    -0.111 C  
ENDROOT
BRANCH   2   3
HETATM    3  N   UNL     1      -7.419   5.589  70.621  1.00  0.00    -0.082 N  
HETATM    4  C   UNL     1      -5.910   5.835  70.714  1.00  0.00    -0.024 C  
HETATM    5  C   UNL     1      -7.646   4.250  69.912  1.00  0.00    -0.053 C  
BRANCH   3   6
HETATM    6  C   UNL     1      -8.001   6.757  69.833  1.00  0.00    -0.120 A  
HETATM    7  C   UNL     1      -7.860   8.081  70.281  1.00  0.00    -0.088 A  
HETATM    8  C   UNL     1      -8.460   9.126  69.578  1.00  0.00    -0.128 A  
HETATM    9  O   UNL     1      -8.351  10.422  69.982  1.00  0.00    -0.362 OA 
HETATM   10  C   UNL     1      -9.210   8.885  68.436  1.00  0.00    -0.140 A  
HETATM   11  H   UNL     1      -8.760  11.134  69.503  1.00  0.00     0.000 HD 
HETATM   12  C   UNL     1      -9.379   7.578  67.995  1.00  0.00    -0.142 A  
HETATM   13  C   UNL     1      -8.793   6.520  68.695  1.00  0.00    -0.121 A  
ENDBRANCH   3   6
ENDBRANCH   2   3
TORSDOF 2
ENDMDL
MODEL      256
REMARK 921   NORMALIZED FREE ENERGY PREDICTED BY IDOCK:   -1.36 KCAL/MOL
REMARK 922        TOTAL FREE ENERGY PREDICTED BY IDOCK:   -1.68 KCAL/MOL
REMARK 923 INTER-LIGAND FREE ENERGY PREDICTED BY IDOCK:   -1.54 KCAL/MOL
REMARK 924 INTRA-LIGAND FREE ENERGY PREDICTED BY IDOCK:   -0.14 KCAL/MOL
REMARK 927      BINDING AFFINITY PREDICTED BY RF-SCORE:    0.00 PKD
ROOT
HETATM    1  C   UNL     1      -5.314   3.551  66.618  1.00  0.00    -0.013 C  
HETATM    2  C   UNL     1      -6.264   3.763  67.788  1.00  0.00    -0.036 C  
ENDROOT
BRANCH   2   3
HETATM    3  N   UNL     1      -7.559   4.518  67.423  1.00  0.00    -0.081 N  
HETATM    4  C   UNL     1      -7.183   5.899  66.877  1.00  0.00    -0.071 C  
HETATM    5  C   UNL     1      -8.279   3.742  66.316  1.00  0.00    -0.101 C  
BRANCH   3   6
HETATM    6  C   UNL     1      -8.462   4.761  68.628  1.00  0.00    -0.085 A  
HETATM    7  C   UNL     1      -8.141   4.243  69.895  1.00  0.00    -0.061 A  
HETATM    8  C   UNL     1      -9.017   4.420  70.966  1.00  0.00    -0.117 A  
HETATM    9  O   UNL     1      -8.745   3.929  72.207  1.00  0.00    -0.101 OA 
HETATM   10  C   UNL     1     -10.217   5.097  70.807  1.00  0.00    -0.308 A  
HETATM   11  H   UNL     1      -9.342   4.050  72.936  1.00  0.00     0.000 HD 
HETATM   12  C   UNL     1     -10.559   5.593  69.554  1.00  0.00    -0.384 A  
HETATM   13  C   UNL     1      -9.696   5.414  68.470  1.00  0.00    -0.183 A  
ENDBRANCH   3   6
ENDBRANCH   2   3
TORSDOF 2
ENDMDL
MODEL      257
REMARK 921   NORMALIZED FREE ENERGY PREDICTED BY IDOCK:   -1.35 KCAL/MOL
REMARK 922        TOTAL FREE ENERGY PREDICTED BY IDOCK:   -1.68 KCAL/MOL
REMARK 923 INTER-LIGAND FREE ENERGY PREDICTED BY IDOCK:   -1.54 KCAL/MOL
REMARK 924 INTRA-LIGAND FREE ENERGY PREDICTED BY IDOCK:   -0.14 KCAL/MOL
REMARK 927      BINDING AFFINITY PREDICTED BY RF-SCORE:    0.00 PKD
ROOT
HETATM    1  C   UNL     1      -6.497   4.149  66.740  1.00  0.00    -0.041 C  
HETATM    2  C   UNL     1      -7.091   4.630  68.056  1.00  0.00    -0.061 C  
ENDROOT
BRANCH   2   3
HETATM    3  N   UNL     1      -8.187   5.706  67.899  1.00  0.00    -0.101 N  
HETATM    4  C   UNL     1      -7.635   6.843  67.035  1.00  0.00    -0.102 C  
HETATM    5  C   UNL     1      -9.381   5.081  67.171  1.00  0.00    -0.125 C  
BRANCH   3   6
HETATM    6  C   UNL     1      -8.595   6.331  69.229  1.00  0.00    -0.124 A  
HETATM    7  C   UNL     1      -9.088   7.646  69.295  1.00  0.00    -0.145 A  
HETATM    8  C   UNL     1      -9.390   8.219  70.530  1.00  0.00    -0.159 A  
HETATM    9  O   UNL     1      -9.864   9.492  70.637  1.00  0.00    -0.263 OA 
HETATM   10  C   UNL     1      -9.205   7.516  71.711  1.00  0.00    -0.162 A  
HETATM   11  H   UNL     1     -10.070   9.882  71.478  1.00  0.00     0.000 HD 
HETATM   12  C   UNL     1      -8.695   6.224  71.664  1.00  0.00    -0.134 A  
HETATM   13  C   UNL     1      -8.378   5.641  70.434  1.00  0.00    -0.119 A  
ENDBRANCH   3   6
ENDBRANCH   2   3
TORSDOF 2
ENDMDL
MODEL      258
REMARK 921   NORMALIZED FREE ENERGY PREDICTED BY IDOCK:   -1.34 KCAL/MOL
REMARK 922        TOTAL FREE ENERGY PREDICTED BY IDOCK:   -1.67 KCAL/MOL
REMARK 923 INTER-LIGAND FREE ENERGY PREDICTED BY IDOCK:   -1.52 KCAL/MOL
REMARK 924 INTRA-LIGAND FREE ENERGY PREDICTED BY IDOCK:   -0.15 KCAL/MOL
REMARK 927      BINDING AFFINITY PREDICTED BY RF-SCORE:    0.00 PKD
ROOT
HETATM    1  C   UNL     1      -6.775   6.038  67.691  1.00  0.00    -0.058 C  
HETATM    2  C   UNL     1      -7.045   6.653  69.057  1.00  0.00    -0.089 C  
ENDROOT
BRANCH   2   3
HETATM    3  N   UNL     1      -7.254   5.621  70.185  1.00  0.00    -0.066 N  
HETATM    4  C   UNL     1      -8.075   4.452  69.633  1.00  0.00    -0.060 C  
HETATM    5  C   UNL     1      -5.884   5.087  70.615  1.00  0.00    -0.017 C  
BRANCH   3   6
HETATM    6  C   UNL     1      -8.041   6.185  71.364  1.00  0.00    -0.118 A  
HETATM    7  C   UNL     1      -9.035   7.160  71.176  1.00  0.00    -0.145 A  
HETATM    8  C   UNL     1      -9.693   7.710  72.277  1.00  0.00    -0.174 A  
HETATM    9  O   UNL     1     -10.658   8.661  72.137  1.00  0.00    -0.321 OA 
HETATM   10  C   UNL     1      -9.380   7.317  73.569  1.00  0.00    -0.253 A  
HETATM   11  H   UNL     1     -11.106   9.035  72.887  1.00  0.00     0.000 HD 
HETATM   12  C   UNL     1      -8.381   6.371  73.772  1.00  0.00    -0.119 A  
HETATM   13  C   UNL     1      -7.706   5.820  72.679  1.00  0.00    -0.101 A  
ENDBRANCH   3   6
ENDBRANCH   2   3
TORSDOF 2
ENDMDL
MODEL      259
REMARK 921   NORMALIZED FREE ENERGY PREDICTED BY IDOCK:   -1.33 KCAL/MOL
REMARK 922        TOTAL FREE ENERGY PREDICTED BY IDOCK:   -1.65 KCAL/MOL
REMARK 923 INTER-LIGAND FREE ENERGY PREDICTED BY IDOCK:   -1.45 KCAL/MOL
REMARK 924 INTRA-LIGAND FREE ENERGY PREDICTED BY IDOCK:   -0.20 KCAL/MOL
REMARK 927      BINDING AFFINITY PREDICTED BY RF-SCORE:    0.00 PKD
ROOT
HETATM    1  C   UNL     1      -7.564   2.926  67.792  1.00  0.00    -0.057 C  
HETATM    2  C   UNL     1      -8.970   3.482  67.618  1.00  0.00    -0.141 C  
ENDROOT
BRANCH   2   3
HETATM    3  N   UNL     1      -9.014   4.960  67.173  1.00  0.00    -0.110 N  
HETATM    4  C   UNL     1     -10.426   5.501  67.417  1.00  0.00    -0.219 C  
HETATM    5  C   UNL     1      -8.035   5.758  68.039  1.00  0.00    -0.101 C  
BRANCH   3   6
HETATM    6  C   UNL     1      -8.734   5.137  65.685  1.00  0.00    -0.143 A  
HETATM    7  C   UNL     1      -9.188   4.200  64.740  1.00  0.00    -0.154 A  
HETATM    8  C   UNL     1      -8.860   4.349  63.393  1.00  0.00    -0.131 A  
HETATM    9  O   UNL     1      -9.276   3.460  62.448  1.00  0.00    -0.087 OA 
HETATM   10  C   UNL     1      -8.079   5.409  62.958  1.00  0.00    -0.101 A  
HETATM   11  H   UNL     1      -9.052   3.562  61.530  1.00  0.00     0.000 HD 
HETATM   12  C   UNL     1      -7.601   6.330  63.883  1.00  0.00    -0.091 A  
HETATM   13  C   UNL     1      -7.913   6.188  65.238  1.00  0.00    -0.115 A  
ENDBRANCH   3   6
ENDBRANCH   2   3
TORSDOF 2
ENDMDL
MODEL      260
REMARK 921   NORMALIZED FREE ENERGY PREDICTED BY IDOCK:   -1.30 KCAL/MOL
REMARK 922        TOTAL FREE ENERGY PREDICTED BY IDOCK:   -1.62 KCAL/MOL
REMARK 923 INTER-LIGAND FREE ENERGY PREDICTED BY IDOCK:   -1.48 KCAL/MOL
REMARK 924 INTRA-LIGAND FREE ENERGY PREDICTED BY IDOCK:   -0.13 KCAL/MOL
REMARK 927      BINDING AFFINITY PREDICTED BY RF-SCORE:    0.00 PKD
ROOT
HETATM    1  C   UNL     1      -9.135   5.436  72.291  1.00  0.00    -0.151 C  
HETATM    2  C   UNL     1      -8.348   6.288  71.305  1.00  0.00    -0.123 C  
ENDROOT
BRANCH   2   3
HETATM    3  N   UNL     1      -9.008   6.420  69.916  1.00  0.00    -0.142 N  
HETATM    4  C   UNL     1      -8.824   5.101  69.160  1.00  0.00    -0.092 C  
HETATM    5  C   UNL     1     -10.509   6.659  70.111  1.00  0.00    -0.210 C  
BRANCH   3   6
HETATM    6  C   UNL     1      -8.366   7.505  69.058  1.00  0.00    -0.129 A  
HETATM    7  C   UNL     1      -9.047   8.698  68.761  1.00  0.00    -0.142 A  
HETATM    8  C   UNL     1      -8.466   9.645  67.917  1.00  0.00    -0.122 A  
HETATM    9  O   UNL     1      -9.096  10.811  67.601  1.00  0.00    -0.145 OA 
HETATM   10  C   UNL     1      -7.218   9.430  67.351  1.00  0.00    -0.087 A  
HETATM   11  H   UNL     1      -8.700  11.455  67.026  1.00  0.00     0.000 HD 
HETATM   12  C   UNL     1      -6.543   8.245  67.615  1.00  0.00    -0.058 A  
HETATM   13  C   UNL     1      -7.118   7.282  68.450  1.00  0.00    -0.081 A  
ENDBRANCH   3   6
ENDBRANCH   2   3
TORSDOF 2
ENDMDL
MODEL      261
REMARK 921   NORMALIZED FREE ENERGY PREDICTED BY IDOCK:   -1.27 KCAL/MOL
REMARK 922        TOTAL FREE ENERGY PREDICTED BY IDOCK:   -1.59 KCAL/MOL
REMARK 923 INTER-LIGAND FREE ENERGY PREDICTED BY IDOCK:   -1.67 KCAL/MOL
REMARK 924 INTRA-LIGAND FREE ENERGY PREDICTED BY IDOCK:    0.08 KCAL/MOL
REMARK 927      BINDING AFFINITY PREDICTED BY RF-SCORE:    0.00 PKD
ROOT
HETATM    1  C   UNL     1      -8.321   7.399  69.901  1.00  0.00    -0.134 C  
HETATM    2  C   UNL     1      -7.919   8.044  68.582  1.00  0.00    -0.123 C  
ENDROOT
BRANCH   2   3
HETATM    3  N   UNL     1      -7.353   7.054  67.541  1.00  0.00    -0.090 N  
HETATM    4  C   UNL     1      -6.805   7.853  66.355  1.00  0.00    -0.062 C  
HETATM    5  C   UNL     1      -6.194   6.285  68.182  1.00  0.00    -0.032 C  
BRANCH   3   6
HETATM    6  C   UNL     1      -8.416   6.116  66.978  1.00  0.00    -0.105 A  
HETATM    7  C   UNL     1      -8.073   5.058  66.119  1.00  0.00    -0.108 A  
HETATM    8  C   UNL     1      -9.070   4.257  65.562  1.00  0.00    -0.138 A  
HETATM    9  O   UNL     1      -8.779   3.225  64.721  1.00  0.00    -0.100 OA 
HETATM   10  C   UNL     1     -10.411   4.488  65.834  1.00  0.00    -0.289 A  
HETATM   11  H   UNL     1      -9.459   2.680  64.342  1.00  0.00     0.000 HD 
HETATM   12  C   UNL     1     -10.767   5.545  66.662  1.00  0.00    -0.332 A  
HETATM   13  C   UNL     1      -9.779   6.363  67.218  1.00  0.00    -0.155 A  
ENDBRANCH   3   6
ENDBRANCH   2   3
TORSDOF 2
ENDMDL
MODEL      262
REMARK 921   NORMALIZED FREE ENERGY PREDICTED BY IDOCK:   -1.27 KCAL/MOL
REMARK 922        TOTAL FREE ENERGY PREDICTED BY IDOCK:   -1.59 KCAL/MOL
REMARK 923 INTER-LIGAND FREE ENERGY PREDICTED BY IDOCK:   -1.44 KCAL/MOL
REMARK 924 INTRA-LIGAND FREE ENERGY PREDICTED BY IDOCK:   -0.15 KCAL/MOL
REMARK 927      BINDING AFFINITY PREDICTED BY RF-SCORE:    0.00 PKD
ROOT
HETATM    1  C   UNL     1      -7.012   5.050  69.596  1.00  0.00    -0.054 C  
HETATM    2  C   UNL     1      -6.936   6.479  69.078  1.00  0.00    -0.075 C  
ENDROOT
BRANCH   2   3
HETATM    3  N   UNL     1      -7.635   7.518  69.981  1.00  0.00    -0.086 N  
HETATM    4  C   UNL     1      -8.873   6.867  70.606  1.00  0.00    -0.150 C  
HETATM    5  C   UNL     1      -6.674   7.907  71.109  1.00  0.00    -0.041 C  
BRANCH   3   6
HETATM    6  C   UNL     1      -8.129   8.736  69.208  1.00  0.00    -0.110 A  
HETATM    7  C   UNL     1      -8.798   8.597  67.980  1.00  0.00    -0.141 A  
HETATM    8  C   UNL     1      -9.179   9.729  67.259  1.00  0.00    -0.134 A  
HETATM    9  O   UNL     1      -9.824   9.636  66.062  1.00  0.00    -0.239 OA 
HETATM   10  C   UNL     1      -8.903  11.004  67.728  1.00  0.00    -0.133 A  
HETATM   11  H   UNL     1     -10.083  10.408  65.571  1.00  0.00     0.000 HD 
HETATM   12  C   UNL     1      -8.221  11.157  68.928  1.00  0.00    -0.104 A  
HETATM   13  C   UNL     1      -7.823  10.032  69.656  1.00  0.00    -0.171 A  
ENDBRANCH   3   6
ENDBRANCH   2   3
TORSDOF 2
ENDMDL
MODEL      263
REMARK 921   NORMALIZED FREE ENERGY PREDICTED BY IDOCK:   -1.24 KCAL/MOL
REMARK 922        TOTAL FREE ENERGY PREDICTED BY IDOCK:   -1.55 KCAL/MOL
REMARK 923 INTER-LIGAND FREE ENERGY PREDICTED BY IDOCK:   -1.39 KCAL/MOL
REMARK 924 INTRA-LIGAND FREE ENERGY PREDICTED BY IDOCK:   -0.16 KCAL/MOL
REMARK 927      BINDING AFFINITY PREDICTED BY RF-SCORE:    0.00 PKD
ROOT
HETATM    1  C   UNL     1      -6.539   3.100  68.625  1.00  0.00    -0.040 C  
HETATM    2  C   UNL     1      -7.675   4.074  68.350  1.00  0.00    -0.066 C  
ENDROOT
BRANCH   2   3
HETATM    3  N   UNL     1      -7.322   5.551  68.625  1.00  0.00    -0.074 N  
HETATM    4  C   UNL     1      -8.030   5.992  69.910  1.00  0.00    -0.113 C  
HETATM    5  C   UNL     1      -5.810   5.657  68.847  1.00  0.00    -0.019 C  
BRANCH   3   6
HETATM    6  C   UNL     1      -7.803   6.488  67.522  1.00  0.00    -0.113 A  
HETATM    7  C   UNL     1      -7.898   6.055  66.188  1.00  0.00    -0.104 A  
HETATM    8  C   UNL     1      -8.274   6.951  65.187  1.00  0.00    -0.115 A  
HETATM    9  O   UNL     1      -8.372   6.572  63.882  1.00  0.00    -0.320 OA 
HETATM   10  C   UNL     1      -8.553   8.278  65.479  1.00  0.00    -0.183 A  
HETATM   11  H   UNL     1      -8.628   7.183  63.200  1.00  0.00     0.000 HD 
HETATM   12  C   UNL     1      -8.440   8.726  66.790  1.00  0.00    -0.113 A  
HETATM   13  C   UNL     1      -8.053   7.843  67.802  1.00  0.00    -0.128 A  
ENDBRANCH   3   6
ENDBRANCH   2   3
TORSDOF 2
ENDMDL
MODEL      264
REMARK 921   NORMALIZED FREE ENERGY PREDICTED BY IDOCK:   -1.16 KCAL/MOL
REMARK 922        TOTAL FREE ENERGY PREDICTED BY IDOCK:   -1.47 KCAL/MOL
REMARK 923 INTER-LIGAND FREE ENERGY PREDICTED BY IDOCK:   -1.31 KCAL/MOL
REMARK 924 INTRA-LIGAND FREE ENERGY PREDICTED BY IDOCK:   -0.16 KCAL/MOL
REMARK 927      BINDING AFFINITY PREDICTED BY RF-SCORE:    0.00 PKD
ROOT
HETATM    1  C   UNL     1      -6.778   2.123  68.168  1.00  0.00    -0.035 C  
HETATM    2  C   UNL     1      -7.295   3.183  67.206  1.00  0.00    -0.058 C  
ENDROOT
BRANCH   2   3
HETATM    3  N   UNL     1      -6.479   4.492  67.209  1.00  0.00    -0.041 N  
HETATM    4  C   UNL     1      -5.565   4.495  68.438  1.00  0.00    -0.016 C  
HETATM    5  C   UNL     1      -5.600   4.521  65.955  1.00  0.00    -0.017 C  
BRANCH   3   6
HETATM    6  C   UNL     1      -7.356   5.735  67.318  1.00  0.00    -0.077 A  
HETATM    7  C   UNL     1      -8.677   5.739  66.838  1.00  0.00    -0.110 A  
HETATM    8  C   UNL     1      -9.436   6.909  66.888  1.00  0.00    -0.158 A  
HETATM    9  O   UNL     1     -10.718   6.955  66.428  1.00  0.00    -0.481 OA 
HETATM   10  C   UNL     1      -8.909   8.085  67.398  1.00  0.00    -0.134 A  
HETATM   11  H   UNL     1     -11.234   7.752  66.461  1.00  0.00     0.000 HD 
HETATM   12  C   UNL     1      -7.596   8.103  67.854  1.00  0.00    -0.102 A  
HETATM   13  C   UNL     1      -6.820   6.942  67.801  1.00  0.00    -0.081 A  
ENDBRANCH   3   6
ENDBRANCH   2   3
TORSDOF 2
ENDMDL
MODEL      265
REMARK 921   NORMALIZED FREE ENERGY PREDICTED BY IDOCK:   -1.09 KCAL/MOL
REMARK 922        TOTAL FREE ENERGY PREDICTED BY IDOCK:   -1.39 KCAL/MOL
REMARK 923 INTER-LIGAND FREE ENERGY PREDICTED BY IDOCK:   -1.25 KCAL/MOL
REMARK 924 INTRA-LIGAND FREE ENERGY PREDICTED BY IDOCK:   -0.14 KCAL/MOL
REMARK 927      BINDING AFFINITY PREDICTED BY RF-SCORE:    0.00 PKD
ROOT
HETATM    1  C   UNL     1      -7.884   3.749  65.493  1.00  0.00    -0.093 C  
HETATM    2  C   UNL     1      -8.163   5.235  65.667  1.00  0.00    -0.121 C  
ENDROOT
BRANCH   2   3
HETATM    3  N   UNL     1      -7.478   6.134  64.616  1.00  0.00    -0.079 N  
HETATM    4  C   UNL     1      -6.005   5.729  64.511  1.00  0.00    -0.025 C  
HETATM    5  C   UNL     1      -8.144   5.887  63.258  1.00  0.00    -0.101 C  
BRANCH   3   6
HETATM    6  C   UNL     1      -7.496   7.610  64.999  1.00  0.00    -0.090 A  
HETATM    7  C   UNL     1      -8.402   8.104  65.954  1.00  0.00    -0.134 A  
HETATM    8  C   UNL     1      -8.445   9.469  66.237  1.00  0.00    -0.115 A  
HETATM    9  O   UNL     1      -9.311   9.988  67.151  1.00  0.00    -0.146 OA 
HETATM   10  C   UNL     1      -7.610  10.364  65.584  1.00  0.00    -0.150 A  
HETATM   11  H   UNL     1      -9.341  10.918  67.343  1.00  0.00     0.000 HD 
HETATM   12  C   UNL     1      -6.727   9.893  64.619  1.00  0.00    -0.123 A  
HETATM   13  C   UNL     1      -6.680   8.529  64.317  1.00  0.00    -0.071 A  
ENDBRANCH   3   6
ENDBRANCH   2   3
TORSDOF 2
ENDMDL
MODEL      266
REMARK 921   NORMALIZED FREE ENERGY PREDICTED BY IDOCK:   -1.07 KCAL/MOL
REMARK 922        TOTAL FREE ENERGY PREDICTED BY IDOCK:   -1.36 KCAL/MOL
REMARK 923 INTER-LIGAND FREE ENERGY PREDICTED BY IDOCK:   -1.19 KCAL/MOL
REMARK 924 INTRA-LIGAND FREE ENERGY PREDICTED BY IDOCK:   -0.17 KCAL/MOL
REMARK 927      BINDING AFFINITY PREDICTED BY RF-SCORE:    0.00 PKD
ROOT
HETATM    1  C   UNL     1     -10.280   5.002  71.082  1.00  0.00    -0.281 C  
HETATM    2  C   UNL     1     -10.113   5.883  69.853  1.00  0.00    -0.198 C  
ENDROOT
BRANCH   2   3
HETATM    3  N   UNL     1      -9.440   5.177  68.656  1.00  0.00    -0.126 N  
HETATM    4  C   UNL     1      -9.050   3.759  69.082  1.00  0.00    -0.137 C  
HETATM    5  C   UNL     1     -10.458   5.076  67.516  1.00  0.00    -0.026 C  
BRANCH   3   6
HETATM    6  C   UNL     1      -8.154   5.866  68.211  1.00  0.00    -0.109 A  
HETATM    7  C   UNL     1      -7.887   6.103  66.852  1.00  0.00    -0.104 A  
HETATM    8  C   UNL     1      -6.673   6.672  66.466  1.00  0.00    -0.056 A  
HETATM    9  O   UNL     1      -6.374   6.912  65.159  1.00  0.00    -0.038 OA 
HETATM   10  C   UNL     1      -5.708   7.007  67.404  1.00  0.00    -0.024 A  
HETATM   11  H   UNL     1      -5.547   7.300  64.896  1.00  0.00     0.000 HD 
HETATM   12  C   UNL     1      -5.947   6.756  68.750  1.00  0.00    -0.022 A  
HETATM   13  C   UNL     1      -7.155   6.176  69.150  1.00  0.00    -0.070 A  
ENDBRANCH   3   6
ENDBRANCH   2   3
TORSDOF 2
ENDMDL
MODEL      267
REMARK 921   NORMALIZED FREE ENERGY PREDICTED BY IDOCK:   -0.91 KCAL/MOL
REMARK 922        TOTAL FREE ENERGY PREDICTED BY IDOCK:   -1.19 KCAL/MOL
REMARK 923 INTER-LIGAND FREE ENERGY PREDICTED BY IDOCK:   -1.04 KCAL/MOL
REMARK 924 INTRA-LIGAND FREE ENERGY PREDICTED BY IDOCK:   -0.15 KCAL/MOL
REMARK 927      BINDING AFFINITY PREDICTED BY RF-SCORE:    0.00 PKD
ROOT
HETATM    1  C   UNL     1      -7.988   6.436  68.340  1.00  0.00    -0.106 C  
HETATM    2  C   UNL     1      -8.350   5.948  66.944  1.00  0.00    -0.108 C  
ENDROOT
BRANCH   2   3
HETATM    3  N   UNL     1      -8.325   4.413  66.785  1.00  0.00    -0.105 N  
HETATM    4  C   UNL     1      -7.153   3.856  67.599  1.00  0.00    -0.056 C  
HETATM    5  C   UNL     1      -9.625   3.843  67.359  1.00  0.00    -0.172 C  
BRANCH   3   6
HETATM    6  C   UNL     1      -8.097   3.972  65.343  1.00  0.00    -0.101 A  
HETATM    7  C   UNL     1      -7.059   4.519  64.568  1.00  0.00    -0.050 A  
HETATM    8  C   UNL     1      -6.914   4.150  63.231  1.00  0.00    -0.044 A  
HETATM    9  O   UNL     1      -5.925   4.661  62.446  1.00  0.00    -0.013 OA 
HETATM   10  C   UNL     1      -7.787   3.251  62.637  1.00  0.00    -0.067 A  
HETATM   11  H   UNL     1      -5.827   4.410  61.535  1.00  0.00     0.000 HD 
HETATM   12  C   UNL     1      -8.833   2.721  63.382  1.00  0.00    -0.088 A  
HETATM   13  C   UNL     1      -8.997   3.089  64.721  1.00  0.00    -0.129 A  
ENDBRANCH   3   6
ENDBRANCH   2   3
TORSDOF 2
ENDMDL
MODEL      268
REMARK 921   NORMALIZED FREE ENERGY PREDICTED BY IDOCK:   -0.65 KCAL/MOL
REMARK 922        TOTAL FREE ENERGY PREDICTED BY IDOCK:   -0.89 KCAL/MOL
REMARK 923 INTER-LIGAND FREE ENERGY PREDICTED BY IDOCK:   -0.97 KCAL/MOL
REMARK 924 INTRA-LIGAND FREE ENERGY PREDICTED BY IDOCK:    0.08 KCAL/MOL
REMARK 927      BINDING AFFINITY PREDICTED BY RF-SCORE:    0.00 PKD
ROOT
HETATM    1  C   UNL     1      -6.633   4.044  65.082  1.00  0.00    -0.047 C  
HETATM    2  C   UNL     1      -7.204   3.014  66.046  1.00  0.00    -0.070 C  
ENDROOT
BRANCH   2   3
HETATM    3  N   UNL     1      -7.354   3.520  67.496  1.00  0.00    -0.059 N  
HETATM    4  C   UNL     1      -8.690   3.019  68.052  1.00  0.00    -0.109 C  
HETATM    5  C   UNL     1      -6.225   2.922  68.340  1.00  0.00    -0.029 C  
BRANCH   3   6
HETATM    6  C   UNL     1      -7.390   5.042  67.590  1.00  0.00    -0.078 A  
HETATM    7  C   UNL     1      -8.507   5.773  67.148  1.00  0.00    -0.107 A  
HETATM    8  C   UNL     1      -8.487   7.168  67.181  1.00  0.00    -0.121 A  
HETATM    9  O   UNL     1      -9.546   7.913  66.757  1.00  0.00    -0.184 OA 
HETATM   10  C   UNL     1      -7.375   7.859  67.638  1.00  0.00    -0.096 A  
HETATM   11  H   UNL     1      -9.533   8.863  66.779  1.00  0.00     0.000 HD 
HETATM   12  C   UNL     1      -6.255   7.150  68.055  1.00  0.00    -0.035 A  
HETATM   13  C   UNL     1      -6.256   5.753  68.017  1.00  0.00    -0.039 A  
ENDBRANCH   3   6
ENDBRANCH   2   3
TORSDOF 2
ENDMDL
MODEL      269
REMARK 921   NORMALIZED FREE ENERGY PREDICTED BY IDOCK:   -0.61 KCAL/MOL
REMARK 922        TOTAL FREE ENERGY PREDICTED BY IDOCK:   -0.84 KCAL/MOL
REMARK 923 INTER-LIGAND FREE ENERGY PREDICTED BY IDOCK:   -0.63 KCAL/MOL
REMARK 924 INTRA-LIGAND FREE ENERGY PREDICTED BY IDOCK:   -0.21 KCAL/MOL
REMARK 927      BINDING AFFINITY PREDICTED BY RF-SCORE:    0.00 PKD
ROOT
HETATM    1  C   UNL     1      -9.522  15.585  68.278  1.00  0.00    -0.200 C  
HETATM    2  C   UNL     1     -10.068  14.388  67.513  1.00  0.00    -0.232 C  
ENDROOT
BRANCH   2   3
HETATM    3  N   UNL     1      -8.980  13.458  66.935  1.00  0.00    -0.228 N  
HETATM    4  C   UNL     1      -9.549  12.744  65.706  1.00  0.00    -0.092 C  
HETATM    5  C   UNL     1      -7.793  14.317  66.488  1.00  0.00     1.008 C  
BRANCH   3   6
HETATM    6  C   UNL     1      -8.556  12.366  67.912  1.00  0.00    -0.171 A  
HETATM    7  C   UNL     1      -9.386  11.263  68.176  1.00  0.00    -0.181 A  
HETATM    8  C   UNL     1      -9.007  10.313  69.125  1.00  0.00    -0.180 A  
HETATM    9  O   UNL     1      -9.786   9.233  69.414  1.00  0.00    -0.163 OA 
HETATM   10  C   UNL     1      -7.818  10.437  69.829  1.00  0.00    -0.108 A  
HETATM   11  H   UNL     1      -9.527   8.586  70.060  1.00  0.00     0.000 HD 
HETATM   12  C   UNL     1      -6.999  11.535  69.596  1.00  0.00     0.016 A  
HETATM   13  C   UNL     1      -7.371  12.501  68.656  1.00  0.00    -0.099 A  
ENDBRANCH   3   6
ENDBRANCH   2   3
TORSDOF 2
ENDMDL
MODEL      270
REMARK 921   NORMALIZED FREE ENERGY PREDICTED BY IDOCK:   -0.57 KCAL/MOL
REMARK 922        TOTAL FREE ENERGY PREDICTED BY IDOCK:   -0.80 KCAL/MOL
REMARK 923 INTER-LIGAND FREE ENERGY PREDICTED BY IDOCK:   -1.02 KCAL/MOL
REMARK 924 INTRA-LIGAND FREE ENERGY PREDICTED BY IDOCK:    0.22 KCAL/MOL
REMARK 927      BINDING AFFINITY PREDICTED BY RF-SCORE:    0.00 PKD
ROOT
HETATM    1  C   UNL     1      -6.039   3.806  64.201  1.00  0.00    -0.018 C  
HETATM    2  C   UNL     1      -6.713   2.766  65.085  1.00  0.00    -0.040 C  
ENDROOT
BRANCH   2   3
HETATM    3  N   UNL     1      -7.197   3.311  66.445  1.00  0.00    -0.066 N  
HETATM    4  C   UNL     1      -8.299   2.391  66.976  1.00  0.00    -0.088 C  
HETATM    5  C   UNL     1      -6.023   3.276  67.429  1.00  0.00    -0.024 C  
BRANCH   3   6
HETATM    6  C   UNL     1      -7.809   4.704  66.339  1.00  0.00    -0.099 A  
HETATM    7  C   UNL     1      -7.001   5.853  66.278  1.00  0.00    -0.063 A  
HETATM    8  C   UNL     1      -7.586   7.119  66.251  1.00  0.00    -0.091 A  
HETATM    9  O   UNL     1      -6.837   8.256  66.197  1.00  0.00    -0.057 OA 
HETATM   10  C   UNL     1      -8.963   7.274  66.291  1.00  0.00    -0.185 A  
HETATM   11  H   UNL     1      -7.236   9.119  66.179  1.00  0.00     0.000 HD 
HETATM   12  C   UNL     1      -9.774   6.149  66.377  1.00  0.00    -0.152 A  
HETATM   13  C   UNL     1      -9.202   4.874  66.416  1.00  0.00    -0.138 A  
ENDBRANCH   3   6
ENDBRANCH   2   3
TORSDOF 2
ENDMDL
MODEL      271
REMARK 921   NORMALIZED FREE ENERGY PREDICTED BY IDOCK:   -0.26 KCAL/MOL
REMARK 922        TOTAL FREE ENERGY PREDICTED BY IDOCK:   -0.46 KCAL/MOL
REMARK 923 INTER-LIGAND FREE ENERGY PREDICTED BY IDOCK:   -0.45 KCAL/MOL
REMARK 924 INTRA-LIGAND FREE ENERGY PREDICTED BY IDOCK:   -0.01 KCAL/MOL
REMARK 927      BINDING AFFINITY PREDICTED BY RF-SCORE:    0.00 PKD
ROOT
HETATM    1  C   UNL     1      -6.718   3.119  64.068  1.00  0.00    -0.036 C  
HETATM    2  C   UNL     1      -8.081   2.444  64.050  1.00  0.00    -0.081 C  
ENDROOT
BRANCH   2   3
HETATM    3  N   UNL     1      -8.977   2.796  65.257  1.00  0.00    -0.133 N  
HETATM    4  C   UNL     1      -9.973   3.877  64.828  1.00  0.00    -0.200 C  
HETATM    5  C   UNL     1      -9.765   1.546  65.660  1.00  0.00     0.461 C  
BRANCH   3   6
HETATM    6  C   UNL     1      -8.189   3.374  66.428  1.00  0.00    -0.097 A  
HETATM    7  C   UNL     1      -7.437   2.546  67.280  1.00  0.00    -0.061 A  
HETATM    8  C   UNL     1      -6.781   3.090  68.385  1.00  0.00    -0.040 A  
HETATM    9  O   UNL     1      -6.047   2.321  69.237  1.00  0.00    -0.023 OA 
HETATM   10  C   UNL     1      -6.860   4.445  68.671  1.00  0.00    -0.051 A  
HETATM   11  H   UNL     1      -5.601   2.692  69.989  1.00  0.00     0.000 HD 
HETATM   12  C   UNL     1      -7.620   5.272  67.852  1.00  0.00    -0.084 A  
HETATM   13  C   UNL     1      -8.292   4.739  66.748  1.00  0.00    -0.106 A  
ENDBRANCH   3   6
ENDBRANCH   2   3
TORSDOF 2
ENDMDL
MODEL      272
REMARK 921   NORMALIZED FREE ENERGY PREDICTED BY IDOCK:    0.86 KCAL/MOL
REMARK 922        TOTAL FREE ENERGY PREDICTED BY IDOCK:    0.79 KCAL/MOL
REMARK 923 INTER-LIGAND FREE ENERGY PREDICTED BY IDOCK:    0.93 KCAL/MOL
REMARK 924 INTRA-LIGAND FREE ENERGY PREDICTED BY IDOCK:   -0.14 KCAL/MOL
REMARK 927      BINDING AFFINITY PREDICTED BY RF-SCORE:    0.00 PKD
ROOT
HETATM    1  C   UNL     1      -7.616  13.812  69.503  1.00  0.00     0.419 C  
HETATM    2  C   UNL     1      -7.153  14.930  68.581  1.00  0.00    -0.111 C  
ENDROOT
BRANCH   2   3
HETATM    3  N   UNL     1      -6.996  16.299  69.276  1.00  0.00    -0.210 N  
HETATM    4  C   UNL     1      -8.303  16.631  70.002  1.00  0.00     1.540 C  
HETATM    5  C   UNL     1      -5.879  16.191  70.319  1.00  0.00    -0.117 C  
BRANCH   3   6
HETATM    6  C   UNL     1      -6.748  17.437  68.292  1.00  0.00    -0.183 A  
HETATM    7  C   UNL     1      -7.440  17.509  67.071  1.00  0.00    -0.229 A  
HETATM    8  C   UNL     1      -7.146  18.521  66.157  1.00  0.00    -0.266 A  
HETATM    9  O   UNL     1      -7.791  18.622  64.961  1.00  0.00     0.628 OA 
HETATM   10  C   UNL     1      -6.167  19.466  66.425  1.00  0.00    -0.183 A  
HETATM   11  H   UNL     1      -7.589  19.311  64.339  1.00  0.00     0.000 HD 
HETATM   12  C   UNL     1      -5.456  19.394  67.617  1.00  0.00    -0.179 A  
HETATM   13  C   UNL     1      -5.733  18.379  68.537  1.00  0.00    -0.181 A  
ENDBRANCH   3   6
ENDBRANCH   2   3
TORSDOF 2
ENDMDL
