MODEL        1
REMARK 921   NORMALIZED FREE ENERGY PREDICTED BY IDOCK:   -6.80 KCAL/MOL
REMARK 922        TOTAL FREE ENERGY PREDICTED BY IDOCK:   -8.05 KCAL/MOL
REMARK 923 INTER-LIGAND FREE ENERGY PREDICTED BY IDOCK:   -7.60 KCAL/MOL
REMARK 924 INTRA-LIGAND FREE ENERGY PREDICTED BY IDOCK:   -0.45 KCAL/MOL
REMARK 927      BINDING AFFINITY PREDICTED BY RF-SCORE:    0.00 PKD
ROOT
HETATM    1  F   UNL     1      -7.824  15.809  67.075  1.00  0.00    -0.182 F  
HETATM    2  C   UNL     1      -8.507  14.670  67.363  1.00  0.00    -0.204 C  
HETATM    3  F   UNL     1      -8.451  14.520  68.711  1.00  0.00    -0.152 F  
HETATM    4  F   UNL     1      -7.767  13.657  66.842  1.00  0.00    -0.105 F  
HETATM    5  C   UNL     1      -9.980  14.701  66.815  1.00  0.00    -0.261 C  
HETATM    6  O   UNL     1     -10.105  15.926  66.041  1.00  0.00    -0.291 OA 
HETATM    7  C   UNL     1     -11.222  12.517  63.947  1.00  0.00    -0.496 A  
HETATM    8  C   UNL     1     -10.919  16.038  64.973  1.00  0.00    -0.380 C  
HETATM    9 CL   UNL     1      -9.969   9.462  66.185  1.00  0.00    -0.358 Cl 
HETATM   10  C   UNL     1     -10.909  11.230  64.380  1.00  0.00    -0.373 A  
HETATM   11  N   UNL     1     -11.268  14.885  64.339  1.00  0.00    -0.646 N  
HETATM   12  O   UNL     1     -11.274  17.128  64.540  1.00  0.00    -1.104 OA 
HETATM   13  C   UNL     1     -10.336  11.050  65.636  1.00  0.00    -0.251 A  
HETATM   14  C   UNL     1     -10.925  13.613  64.759  1.00  0.00    -0.378 A  
HETATM   15  H   UNL     1     -11.824  14.966  63.488  1.00  0.00     0.000 HD 
HETATM   16  C   UNL     1     -10.051  12.149  66.450  1.00  0.00    -0.242 A  
HETATM   17  C   UNL     1     -10.310  13.457  65.999  1.00  0.00    -0.297 A  
ENDROOT
BRANCH   5  18
HETATM   18  C   UNL     1     -10.951  14.842  67.931  1.00  0.00    -0.288 C  
HETATM   19  C   UNL     1     -11.685  14.986  68.875  1.00  0.00    -0.354 C  
BRANCH  19  20
HETATM   20  C   UNL     1     -12.522  15.173  70.019  1.00  0.00    -0.316 C  
HETATM   21  C   UNL     1     -12.182  14.441  71.293  1.00  0.00    -0.429 C  
HETATM   22  C   UNL     1     -11.976  15.925  71.209  1.00  0.00    -0.493 C  
ENDBRANCH  19  20
ENDBRANCH   5  18
TORSDOF 2
ENDMDL
MODEL        2
REMARK 921   NORMALIZED FREE ENERGY PREDICTED BY IDOCK:   -6.54 KCAL/MOL
REMARK 922        TOTAL FREE ENERGY PREDICTED BY IDOCK:   -7.76 KCAL/MOL
REMARK 923 INTER-LIGAND FREE ENERGY PREDICTED BY IDOCK:   -7.33 KCAL/MOL
REMARK 924 INTRA-LIGAND FREE ENERGY PREDICTED BY IDOCK:   -0.43 KCAL/MOL
REMARK 927      BINDING AFFINITY PREDICTED BY RF-SCORE:    0.00 PKD
ROOT
HETATM    1  F   UNL     1      -8.658  14.256  68.837  1.00  0.00    -0.165 F  
HETATM    2  C   UNL     1      -9.963  14.605  68.985  1.00  0.00    -0.193 C  
HETATM    3  F   UNL     1     -10.209  15.572  68.064  1.00  0.00    -0.221 F  
HETATM    4  F   UNL     1     -10.045  15.212  70.197  1.00  0.00    -0.252 F  
HETATM    5  C   UNL     1     -10.930  13.373  68.847  1.00  0.00    -0.248 C  
HETATM    6  O   UNL     1     -10.083  12.197  68.726  1.00  0.00    -0.184 OA 
HETATM    7  C   UNL     1     -12.916  11.901  71.750  1.00  0.00    -0.455 A  
HETATM    8  C   UNL     1     -10.449  10.981  69.179  1.00  0.00    -0.210 C  
HETATM    9 CL   UNL     1     -14.391  15.585  72.159  1.00  0.00    -0.635 Cl 
HETATM   10  C   UNL     1     -13.623  13.002  72.230  1.00  0.00    -0.643 A  
HETATM   11  N   UNL     1     -11.396  10.946  70.156  1.00  0.00    -0.386 N  
HETATM   12  O   UNL     1      -9.906   9.955  68.789  1.00  0.00    -0.161 OA 
HETATM   13  C   UNL     1     -13.503  14.229  71.584  1.00  0.00    -0.376 A  
HETATM   14  C   UNL     1     -12.070  12.048  70.649  1.00  0.00    -0.274 A  
HETATM   15  H   UNL     1     -11.626  10.035  70.555  1.00  0.00     0.000 HD 
HETATM   16  C   UNL     1     -12.663  14.369  70.477  1.00  0.00    -0.401 A  
HETATM   17  C   UNL     1     -11.901  13.278  70.018  1.00  0.00    -0.365 A  
ENDROOT
BRANCH   5  18
HETATM   18  C   UNL     1     -11.688  13.443  67.570  1.00  0.00    -0.406 C  
HETATM   19  C   UNL     1     -12.238  13.502  66.501  1.00  0.00    -0.433 C  
BRANCH  19  20
HETATM   20  C   UNL     1     -12.851  13.576  65.212  1.00  0.00    -0.410 C  
HETATM   21  C   UNL     1     -12.316  14.569  64.210  1.00  0.00    -0.396 C  
HETATM   22  C   UNL     1     -12.077  13.102  64.005  1.00  0.00    -0.511 C  
ENDBRANCH  19  20
ENDBRANCH   5  18
TORSDOF 2
ENDMDL
MODEL        3
REMARK 921   NORMALIZED FREE ENERGY PREDICTED BY IDOCK:   -6.47 KCAL/MOL
REMARK 922        TOTAL FREE ENERGY PREDICTED BY IDOCK:   -7.67 KCAL/MOL
REMARK 923 INTER-LIGAND FREE ENERGY PREDICTED BY IDOCK:   -7.21 KCAL/MOL
REMARK 924 INTRA-LIGAND FREE ENERGY PREDICTED BY IDOCK:   -0.46 KCAL/MOL
REMARK 927      BINDING AFFINITY PREDICTED BY RF-SCORE:    0.00 PKD
ROOT
HETATM    1  F   UNL     1     -11.785  12.869  64.847  1.00  0.00    -0.332 F  
HETATM    2  C   UNL     1     -11.880  14.050  65.511  1.00  0.00    -0.365 C  
HETATM    3  F   UNL     1     -13.169  14.156  65.925  1.00  0.00    -0.515 F  
HETATM    4  F   UNL     1     -11.707  15.014  64.570  1.00  0.00    -0.391 F  
HETATM    5  C   UNL     1     -10.850  14.155  66.695  1.00  0.00    -0.299 C  
HETATM    6  O   UNL     1     -10.014  12.967  66.619  1.00  0.00    -0.238 OA 
HETATM    7  C   UNL     1      -7.856  16.516  66.699  1.00  0.00    -0.321 A  
HETATM    8  C   UNL     1      -8.725  12.953  67.010  1.00  0.00    -0.195 C  
HETATM    9 CL   UNL     1     -10.558  19.392  66.118  1.00  0.00    -0.570 Cl 
HETATM   10  C   UNL     1      -8.443  17.760  66.475  1.00  0.00    -0.288 A  
HETATM   11  N   UNL     1      -8.074  14.149  67.036  1.00  0.00    -0.376 N  
HETATM   12  O   UNL     1      -8.135  11.909  67.260  1.00  0.00    -0.154 OA 
HETATM   13  C   UNL     1      -9.828  17.856  66.371  1.00  0.00    -0.337 A  
HETATM   14  C   UNL     1      -8.658  15.376  66.781  1.00  0.00    -0.273 A  
HETATM   15  H   UNL     1      -7.079  14.138  67.261  1.00  0.00     0.000 HD 
HETATM   16  C   UNL     1     -10.627  16.714  66.464  1.00  0.00    -0.203 A  
HETATM   17  C   UNL     1     -10.041  15.445  66.633  1.00  0.00    -0.273 A  
ENDROOT
BRANCH   5  18
HETATM   18  C   UNL     1     -11.547  14.061  68.005  1.00  0.00    -0.372 C  
HETATM   19  C   UNL     1     -12.060  14.026  69.093  1.00  0.00    -0.375 C  
BRANCH  19  20
HETATM   20  C   UNL     1     -12.634  14.010  70.402  1.00  0.00    -0.374 C  
HETATM   21  C   UNL     1     -11.931  14.751  71.512  1.00  0.00    -0.415 C  
HETATM   22  C   UNL     1     -13.221  15.285  70.960  1.00  0.00    -0.546 C  
ENDBRANCH  19  20
ENDBRANCH   5  18
TORSDOF 2
ENDMDL
MODEL        4
REMARK 921   NORMALIZED FREE ENERGY PREDICTED BY IDOCK:   -6.25 KCAL/MOL
REMARK 922        TOTAL FREE ENERGY PREDICTED BY IDOCK:   -7.43 KCAL/MOL
REMARK 923 INTER-LIGAND FREE ENERGY PREDICTED BY IDOCK:   -6.96 KCAL/MOL
REMARK 924 INTRA-LIGAND FREE ENERGY PREDICTED BY IDOCK:   -0.46 KCAL/MOL
REMARK 927      BINDING AFFINITY PREDICTED BY RF-SCORE:    0.00 PKD
ROOT
HETATM    1  F   UNL     1     -10.938  16.706  64.999  1.00  0.00    -0.405 F  
HETATM    2  C   UNL     1     -10.240  16.267  66.079  1.00  0.00    -0.358 C  
HETATM    3  F   UNL     1     -10.244  17.285  66.978  1.00  0.00    -0.285 F  
HETATM    4  F   UNL     1      -8.955  16.142  65.659  1.00  0.00    -0.329 F  
HETATM    5  C   UNL     1     -10.827  14.933  66.668  1.00  0.00    -0.319 C  
HETATM    6  O   UNL     1     -11.887  14.515  65.763  1.00  0.00    -0.362 OA 
HETATM    7  C   UNL     1      -9.050  11.565  66.473  1.00  0.00    -0.199 A  
HETATM    8  C   UNL     1     -12.205  13.223  65.554  1.00  0.00    -0.457 C  
HETATM    9 CL   UNL     1      -6.045  13.432  68.318  1.00  0.00    -0.088 Cl 
HETATM   10  C   UNL     1      -7.814  11.834  67.059  1.00  0.00    -0.161 A  
HETATM   11  N   UNL     1     -11.242  12.299  65.823  1.00  0.00    -0.323 N  
HETATM   12  O   UNL     1     -13.281  12.889  65.074  1.00  0.00    -0.765 OA 
HETATM   13  C   UNL     1      -7.560  13.102  67.573  1.00  0.00    -0.163 A  
HETATM   14  C   UNL     1     -10.005  12.579  66.376  1.00  0.00    -0.252 A  
HETATM   15  H   UNL     1     -11.448  11.325  65.600  1.00  0.00     0.000 HD 
HETATM   16  C   UNL     1      -8.523  14.110  67.483  1.00  0.00    -0.194 A  
HETATM   17  C   UNL     1      -9.753  13.866  66.843  1.00  0.00    -0.268 A  
ENDROOT
BRANCH   5  18
HETATM   18  C   UNL     1     -11.501  15.187  67.969  1.00  0.00    -0.355 C  
HETATM   19  C   UNL     1     -12.013  15.333  69.048  1.00  0.00    -0.304 C  
BRANCH  19  20
HETATM   20  C   UNL     1     -12.601  15.470  70.344  1.00  0.00    -0.421 C  
HETATM   21  C   UNL     1     -12.354  14.390  71.369  1.00  0.00    -0.433 C  
HETATM   22  C   UNL     1     -11.704  15.733  71.530  1.00  0.00    -0.523 C  
ENDBRANCH  19  20
ENDBRANCH   5  18
TORSDOF 2
ENDMDL
MODEL        5
REMARK 921   NORMALIZED FREE ENERGY PREDICTED BY IDOCK:   -6.22 KCAL/MOL
REMARK 922        TOTAL FREE ENERGY PREDICTED BY IDOCK:   -7.39 KCAL/MOL
REMARK 923 INTER-LIGAND FREE ENERGY PREDICTED BY IDOCK:   -6.97 KCAL/MOL
REMARK 924 INTRA-LIGAND FREE ENERGY PREDICTED BY IDOCK:   -0.43 KCAL/MOL
REMARK 927      BINDING AFFINITY PREDICTED BY RF-SCORE:    0.00 PKD
ROOT
HETATM    1  F   UNL     1      -8.215  12.622  67.838  1.00  0.00    -0.129 F  
HETATM    2  C   UNL     1      -9.377  13.300  68.028  1.00  0.00    -0.218 C  
HETATM    3  F   UNL     1      -9.443  14.231  67.042  1.00  0.00    -0.218 F  
HETATM    4  F   UNL     1      -9.214  13.989  69.186  1.00  0.00    -0.079 F  
HETATM    5  C   UNL     1     -10.627  12.347  68.050  1.00  0.00    -0.221 C  
HETATM    6  O   UNL     1     -10.110  10.988  67.984  1.00  0.00    -0.172 OA 
HETATM    7  C   UNL     1     -12.693  11.630  71.173  1.00  0.00    -0.426 A  
HETATM    8  C   UNL     1     -10.732   9.940  68.558  1.00  0.00    -0.226 C  
HETATM    9 CL   UNL     1     -13.172  15.587  71.346  1.00  0.00    -0.559 Cl 
HETATM   10  C   UNL     1     -13.066  12.905  71.596  1.00  0.00    -0.430 A  
HETATM   11  N   UNL     1     -11.582  10.213  69.586  1.00  0.00    -0.414 N  
HETATM   12  O   UNL     1     -10.492   8.784  68.229  1.00  0.00    -0.215 OA 
HETATM   13  C   UNL     1     -12.694  14.014  70.841  1.00  0.00    -0.350 A  
HETATM   14  C   UNL     1     -11.922  11.482  70.019  1.00  0.00    -0.357 A  
HETATM   15  H   UNL     1     -12.001   9.421  70.074  1.00  0.00     0.000 HD 
HETATM   16  C   UNL     1     -11.931  13.859  69.682  1.00  0.00    -0.399 A  
HETATM   17  C   UNL     1     -11.500  12.582  69.276  1.00  0.00    -0.353 A  
ENDROOT
BRANCH   5  18
HETATM   18  C   UNL     1     -11.438  12.518  66.815  1.00  0.00    -0.422 C  
HETATM   19  C   UNL     1     -12.054  12.715  65.800  1.00  0.00    -0.484 C  
BRANCH  19  20
HETATM   20  C   UNL     1     -12.762  12.985  64.588  1.00  0.00    -0.367 C  
HETATM   21  C   UNL     1     -11.981  13.088  63.301  1.00  0.00    -0.493 C  
HETATM   22  C   UNL     1     -12.866  11.900  63.543  1.00  0.00    -0.435 C  
ENDBRANCH  19  20
ENDBRANCH   5  18
TORSDOF 2
ENDMDL
MODEL        6
REMARK 921   NORMALIZED FREE ENERGY PREDICTED BY IDOCK:   -6.19 KCAL/MOL
REMARK 922        TOTAL FREE ENERGY PREDICTED BY IDOCK:   -7.37 KCAL/MOL
REMARK 923 INTER-LIGAND FREE ENERGY PREDICTED BY IDOCK:   -6.92 KCAL/MOL
REMARK 924 INTRA-LIGAND FREE ENERGY PREDICTED BY IDOCK:   -0.44 KCAL/MOL
REMARK 927      BINDING AFFINITY PREDICTED BY RF-SCORE:    0.00 PKD
ROOT
HETATM    1  F   UNL     1     -13.655  14.338  65.479  1.00  0.00    -0.386 F  
HETATM    2  C   UNL     1     -12.473  13.844  65.028  1.00  0.00    -0.419 C  
HETATM    3  F   UNL     1     -12.022  14.719  64.093  1.00  0.00    -0.429 F  
HETATM    4  F   UNL     1     -12.784  12.705  64.357  1.00  0.00    -0.476 F  
HETATM    5  C   UNL     1     -11.440  13.610  66.190  1.00  0.00    -0.325 C  
HETATM    6  O   UNL     1     -12.147  13.888  67.431  1.00  0.00    -0.392 OA 
HETATM    7  C   UNL     1     -10.312  10.162  67.364  1.00  0.00    -0.289 A  
HETATM    8  C   UNL     1     -11.862  13.266  68.591  1.00  0.00    -0.345 C  
HETATM    9 CL   UNL     1      -9.232   9.600  63.565  1.00  0.00    -0.230 Cl 
HETATM   10  C   UNL     1      -9.841   9.575  66.191  1.00  0.00    -0.343 A  
HETATM   11  N   UNL     1     -11.243  12.057  68.508  1.00  0.00    -0.233 N  
HETATM   12  O   UNL     1     -12.208  13.724  69.674  1.00  0.00    -0.332 OA 
HETATM   13  C   UNL     1      -9.835  10.312  65.010  1.00  0.00    -0.329 A  
HETATM   14  C   UNL     1     -10.806  11.468  67.335  1.00  0.00    -0.246 A  
HETATM   15  H   UNL     1     -11.088  11.546  69.377  1.00  0.00     0.000 HD 
HETATM   16  C   UNL     1     -10.320  11.622  64.989  1.00  0.00    -0.329 A  
HETATM   17  C   UNL     1     -10.852  12.205  66.155  1.00  0.00    -0.317 A  
ENDROOT
BRANCH   5  18
HETATM   18  C   UNL     1     -10.346  14.615  66.128  1.00  0.00    -0.309 C  
HETATM   19  C   UNL     1      -9.473  15.444  66.148  1.00  0.00    -0.371 C  
BRANCH  19  20
HETATM   20  C   UNL     1      -8.448  16.437  66.214  1.00  0.00    -0.372 C  
HETATM   21  C   UNL     1      -8.203  17.141  67.526  1.00  0.00    -0.196 C  
HETATM   22  C   UNL     1      -7.200  16.148  67.015  1.00  0.00    -0.256 C  
ENDBRANCH  19  20
ENDBRANCH   5  18
TORSDOF 2
ENDMDL
MODEL        7
REMARK 921   NORMALIZED FREE ENERGY PREDICTED BY IDOCK:   -6.18 KCAL/MOL
REMARK 922        TOTAL FREE ENERGY PREDICTED BY IDOCK:   -7.35 KCAL/MOL
REMARK 923 INTER-LIGAND FREE ENERGY PREDICTED BY IDOCK:   -6.92 KCAL/MOL
REMARK 924 INTRA-LIGAND FREE ENERGY PREDICTED BY IDOCK:   -0.44 KCAL/MOL
REMARK 927      BINDING AFFINITY PREDICTED BY RF-SCORE:    0.00 PKD
ROOT
HETATM    1  F   UNL     1      -8.087  14.885  68.271  1.00  0.00    -0.118 F  
HETATM    2  C   UNL     1      -8.837  15.674  69.084  1.00  0.00    -0.251 C  
HETATM    3  F   UNL     1      -8.215  16.879  69.130  1.00  0.00    -0.239 F  
HETATM    4  F   UNL     1      -8.714  15.140  70.327  1.00  0.00    -0.002 F  
HETATM    5  C   UNL     1     -10.330  15.778  68.604  1.00  0.00    -0.225 C  
HETATM    6  O   UNL     1     -10.465  14.866  67.478  1.00  0.00    -0.249 OA 
HETATM    7  C   UNL     1     -13.272  14.232  70.474  1.00  0.00    -0.061 A  
HETATM    8  C   UNL     1     -11.614  14.225  67.188  1.00  0.00    -0.380 C  
HETATM    9 CL   UNL     1     -11.996  16.397  73.573  1.00  0.00    -0.506 Cl 
HETATM   10  C   UNL     1     -13.149  14.780  71.750  1.00  0.00    -0.421 A  
HETATM   11  N   UNL     1     -12.505  14.064  68.205  1.00  0.00    -0.414 N  
HETATM   12  O   UNL     1     -11.824  13.739  66.084  1.00  0.00    -0.358 OA 
HETATM   13  C   UNL     1     -12.137  15.701  72.006  1.00  0.00    -0.443 A  
HETATM   14  C   UNL     1     -12.359  14.585  69.478  1.00  0.00    -0.208 A  
HETATM   15  H   UNL     1     -13.344  13.517  68.013  1.00  0.00     0.000 HD 
HETATM   16  C   UNL     1     -11.233  16.059  71.004  1.00  0.00    -0.347 A  
HETATM   17  C   UNL     1     -11.312  15.469  69.728  1.00  0.00    -0.325 A  
ENDROOT
BRANCH   5  18
HETATM   18  C   UNL     1     -10.609  17.129  68.050  1.00  0.00    -0.374 C  
HETATM   19  C   UNL     1     -10.766  18.226  67.580  1.00  0.00    -0.381 C  
BRANCH  19  20
HETATM   20  C   UNL     1     -10.908  19.529  67.010  1.00  0.00    -0.542 C  
HETATM   21  C   UNL     1      -9.715  20.452  67.005  1.00  0.00    -0.588 C  
HETATM   22  C   UNL     1     -10.193  19.846  65.719  1.00  0.00    -0.486 C  
ENDBRANCH  19  20
ENDBRANCH   5  18
TORSDOF 2
ENDMDL
MODEL        8
REMARK 921   NORMALIZED FREE ENERGY PREDICTED BY IDOCK:   -6.11 KCAL/MOL
REMARK 922        TOTAL FREE ENERGY PREDICTED BY IDOCK:   -7.27 KCAL/MOL
REMARK 923 INTER-LIGAND FREE ENERGY PREDICTED BY IDOCK:   -6.84 KCAL/MOL
REMARK 924 INTRA-LIGAND FREE ENERGY PREDICTED BY IDOCK:   -0.43 KCAL/MOL
REMARK 927      BINDING AFFINITY PREDICTED BY RF-SCORE:    0.00 PKD
ROOT
HETATM    1  F   UNL     1      -8.129  13.893  68.904  1.00  0.00    -0.137 F  
HETATM    2  C   UNL     1      -8.674  12.941  68.103  1.00  0.00    -0.190 C  
HETATM    3  F   UNL     1      -8.085  11.767  68.446  1.00  0.00    -0.124 F  
HETATM    4  F   UNL     1      -8.241  13.226  66.848  1.00  0.00    -0.170 F  
HETATM    5  C   UNL     1     -10.241  12.891  68.216  1.00  0.00    -0.245 C  
HETATM    6  O   UNL     1     -10.627  14.000  69.075  1.00  0.00    -0.238 OA 
HETATM    7  C   UNL     1     -12.605  13.962  65.422  1.00  0.00    -0.538 A  
HETATM    8  C   UNL     1     -11.799  14.653  68.946  1.00  0.00    -0.309 C  
HETATM    9 CL   UNL     1     -10.658  11.272  63.211  1.00  0.00    -0.385 Cl 
HETATM   10  C   UNL     1     -12.186  13.180  64.347  1.00  0.00    -0.462 A  
HETATM   11  N   UNL     1     -12.411  14.589  67.732  1.00  0.00    -0.595 N  
HETATM   12  O   UNL     1     -12.262  15.338  69.850  1.00  0.00    -0.329 OA 
HETATM   13  C   UNL     1     -11.162  12.255  64.529  1.00  0.00    -0.326 A  
HETATM   14  C   UNL     1     -11.970  13.835  66.659  1.00  0.00    -0.431 A  
HETATM   15  H   UNL     1     -13.260  15.139  67.603  1.00  0.00     0.000 HD 
HETATM   16  C   UNL     1     -10.538  12.124  65.771  1.00  0.00    -0.295 A  
HETATM   17  C   UNL     1     -10.913  12.948  66.850  1.00  0.00    -0.294 A  
ENDROOT
BRANCH   5  18
HETATM   18  C   UNL     1     -10.675  11.666  68.939  1.00  0.00    -0.244 C  
HETATM   19  C   UNL     1     -11.045  10.716  69.580  1.00  0.00    -0.328 C  
BRANCH  19  20
HETATM   20  C   UNL     1     -11.492   9.616  70.375  1.00  0.00    -0.325 C  
HETATM   21  C   UNL     1     -10.780   9.322  71.672  1.00  0.00    -0.393 C  
HETATM   22  C   UNL     1     -12.166   9.896  71.697  1.00  0.00    -0.482 C  
ENDBRANCH  19  20
ENDBRANCH   5  18
TORSDOF 2
ENDMDL
MODEL        9
REMARK 921   NORMALIZED FREE ENERGY PREDICTED BY IDOCK:   -6.06 KCAL/MOL
REMARK 922        TOTAL FREE ENERGY PREDICTED BY IDOCK:   -7.22 KCAL/MOL
REMARK 923 INTER-LIGAND FREE ENERGY PREDICTED BY IDOCK:   -6.76 KCAL/MOL
REMARK 924 INTRA-LIGAND FREE ENERGY PREDICTED BY IDOCK:   -0.46 KCAL/MOL
REMARK 927      BINDING AFFINITY PREDICTED BY RF-SCORE:    0.00 PKD
ROOT
HETATM    1  F   UNL     1      -9.516  16.268  65.989  1.00  0.00    -0.293 F  
HETATM    2  C   UNL     1      -9.311  15.416  67.027  1.00  0.00    -0.224 C  
HETATM    3  F   UNL     1      -8.983  16.186  68.096  1.00  0.00    -0.177 F  
HETATM    4  F   UNL     1      -8.193  14.714  66.711  1.00  0.00    -0.225 F  
HETATM    5  C   UNL     1     -10.557  14.497  67.300  1.00  0.00    -0.280 C  
HETATM    6  O   UNL     1     -11.514  14.774  66.239  1.00  0.00    -0.350 OA 
HETATM    7  C   UNL     1     -10.605  10.741  66.644  1.00  0.00    -0.291 A  
HETATM    8  C   UNL     1     -12.370  13.848  65.765  1.00  0.00    -0.486 C  
HETATM    9 CL   UNL     1      -7.443  10.623  69.074  1.00  0.00    -0.106 Cl 
HETATM   10  C   UNL     1      -9.514  10.285  67.381  1.00  0.00    -0.174 A  
HETATM   11  N   UNL     1     -12.030  12.543  65.945  1.00  0.00    -0.431 N  
HETATM   12  O   UNL     1     -13.374  14.157  65.134  1.00  0.00    -0.684 OA 
HETATM   13  C   UNL     1      -8.777  11.185  68.145  1.00  0.00    -0.144 A  
HETATM   14  C   UNL     1     -10.926  12.099  66.651  1.00  0.00    -0.282 A  
HETATM   15  H   UNL     1     -12.635  11.836  65.526  1.00  0.00     0.000 HD 
HETATM   16  C   UNL     1      -9.108  12.542  68.156  1.00  0.00    -0.204 A  
HETATM   17  C   UNL     1     -10.173  13.024  67.371  1.00  0.00    -0.231 A  
ENDROOT
BRANCH   5  18
HETATM   18  C   UNL     1     -11.240  14.899  68.558  1.00  0.00    -0.292 C  
HETATM   19  C   UNL     1     -11.851  15.190  69.554  1.00  0.00    -0.358 C  
BRANCH  19  20
HETATM   20  C   UNL     1     -12.612  15.513  70.719  1.00  0.00    -0.505 C  
HETATM   21  C   UNL     1     -12.528  14.600  71.917  1.00  0.00    -0.412 C  
HETATM   22  C   UNL     1     -11.887  15.956  71.968  1.00  0.00    -0.609 C  
ENDBRANCH  19  20
ENDBRANCH   5  18
TORSDOF 2
ENDMDL
MODEL       10
REMARK 921   NORMALIZED FREE ENERGY PREDICTED BY IDOCK:   -6.06 KCAL/MOL
REMARK 922        TOTAL FREE ENERGY PREDICTED BY IDOCK:   -7.21 KCAL/MOL
REMARK 923 INTER-LIGAND FREE ENERGY PREDICTED BY IDOCK:   -6.75 KCAL/MOL
REMARK 924 INTRA-LIGAND FREE ENERGY PREDICTED BY IDOCK:   -0.46 KCAL/MOL
REMARK 927      BINDING AFFINITY PREDICTED BY RF-SCORE:    0.00 PKD
ROOT
HETATM    1  F   UNL     1      -8.427  11.357  68.313  1.00  0.00    -0.126 F  
HETATM    2  C   UNL     1      -8.969  12.540  67.925  1.00  0.00    -0.188 C  
HETATM    3  F   UNL     1      -8.708  12.666  66.599  1.00  0.00    -0.207 F  
HETATM    4  F   UNL     1      -8.237  13.501  68.546  1.00  0.00    -0.145 F  
HETATM    5  C   UNL     1     -10.504  12.630  68.254  1.00  0.00    -0.239 C  
HETATM    6  O   UNL     1     -10.835  11.429  69.006  1.00  0.00    -0.205 OA 
HETATM    7  C   UNL     1     -11.975  14.944  70.904  1.00  0.00    -0.374 A  
HETATM    8  C   UNL     1     -11.801  11.395  69.944  1.00  0.00    -0.359 C  
HETATM    9 CL   UNL     1     -10.177  17.861  68.861  1.00  0.00    -0.373 Cl 
HETATM   10  C   UNL     1     -11.503  16.197  70.516  1.00  0.00    -0.363 A  
HETATM   11  N   UNL     1     -12.147  12.581  70.517  1.00  0.00    -0.495 N  
HETATM   12  O   UNL     1     -12.299  10.342  70.324  1.00  0.00    -0.287 OA 
HETATM   13  C   UNL     1     -10.742  16.314  69.356  1.00  0.00    -0.318 A  
HETATM   14  C   UNL     1     -11.650  13.817  70.147  1.00  0.00    -0.160 A  
HETATM   15  H   UNL     1     -12.826  12.555  71.278  1.00  0.00     0.000 HD 
HETATM   16  C   UNL     1     -10.429  15.185  68.596  1.00  0.00    -0.234 A  
HETATM   17  C   UNL     1     -10.851  13.907  69.009  1.00  0.00    -0.253 A  
ENDROOT
BRANCH   5  18
HETATM   18  C   UNL     1     -11.312  12.547  67.008  1.00  0.00    -0.386 C  
HETATM   19  C   UNL     1     -11.934  12.541  65.978  1.00  0.00    -0.456 C  
BRANCH  19  20
HETATM   20  C   UNL     1     -12.653  12.573  64.743  1.00  0.00    -0.493 C  
HETATM   21  C   UNL     1     -12.120  13.422  63.615  1.00  0.00    -0.513 C  
HETATM   22  C   UNL     1     -12.042  11.926  63.523  1.00  0.00    -0.575 C  
ENDBRANCH  19  20
ENDBRANCH   5  18
TORSDOF 2
ENDMDL
MODEL       11
REMARK 921   NORMALIZED FREE ENERGY PREDICTED BY IDOCK:   -6.05 KCAL/MOL
REMARK 922        TOTAL FREE ENERGY PREDICTED BY IDOCK:   -7.21 KCAL/MOL
REMARK 923 INTER-LIGAND FREE ENERGY PREDICTED BY IDOCK:   -6.77 KCAL/MOL
REMARK 924 INTRA-LIGAND FREE ENERGY PREDICTED BY IDOCK:   -0.44 KCAL/MOL
REMARK 927      BINDING AFFINITY PREDICTED BY RF-SCORE:    0.00 PKD
ROOT
HETATM    1  F   UNL     1     -13.334  14.326  65.684  1.00  0.00    -0.526 F  
HETATM    2  C   UNL     1     -12.186  13.614  65.536  1.00  0.00    -0.443 C  
HETATM    3  F   UNL     1     -11.521  14.172  64.493  1.00  0.00    -0.355 F  
HETATM    4  F   UNL     1     -12.571  12.380  65.120  1.00  0.00    -0.511 F  
HETATM    5  C   UNL     1     -11.331  13.580  66.855  1.00  0.00    -0.326 C  
HETATM    6  O   UNL     1     -12.129  14.236  67.880  1.00  0.00    -0.345 OA 
HETATM    7  C   UNL     1     -10.816  10.448  68.968  1.00  0.00    -0.273 A  
HETATM    8  C   UNL     1     -12.062  13.904  69.184  1.00  0.00    -0.338 C  
HETATM    9 CL   UNL     1      -9.403   8.829  65.607  1.00  0.00    -0.257 Cl 
HETATM   10  C   UNL     1     -10.299   9.537  68.049  1.00  0.00    -0.260 A  
HETATM   11  N   UNL     1     -11.605  12.657  69.481  1.00  0.00    -0.382 N  
HETATM   12  O   UNL     1     -12.462  14.656  70.065  1.00  0.00    -0.326 OA 
HETATM   13  C   UNL     1     -10.062   9.944  66.739  1.00  0.00    -0.230 A  
HETATM   14  C   UNL     1     -11.123  11.747  68.558  1.00  0.00    -0.239 A  
HETATM   15  H   UNL     1     -11.619  12.371  70.461  1.00  0.00     0.000 HD 
HETATM   16  C   UNL     1     -10.361  11.247  66.336  1.00  0.00    -0.291 A  
HETATM   17  C   UNL     1     -10.937  12.159  67.241  1.00  0.00    -0.308 A  
ENDROOT
BRANCH   5  18
HETATM   18  C   UNL     1     -10.112  14.419  66.710  1.00  0.00    -0.266 C  
HETATM   19  C   UNL     1      -9.113  15.088  66.664  1.00  0.00    -0.309 C  
BRANCH  19  20
HETATM   20  C   UNL     1      -7.921  15.877  66.653  1.00  0.00    -0.270 C  
HETATM   21  C   UNL     1      -8.023  17.340  66.298  1.00  0.00    -0.330 C  
HETATM   22  C   UNL     1      -7.733  16.934  67.714  1.00  0.00    -0.184 C  
ENDBRANCH  19  20
ENDBRANCH   5  18
TORSDOF 2
ENDMDL
MODEL       12
REMARK 921   NORMALIZED FREE ENERGY PREDICTED BY IDOCK:   -6.00 KCAL/MOL
REMARK 922        TOTAL FREE ENERGY PREDICTED BY IDOCK:   -7.15 KCAL/MOL
REMARK 923 INTER-LIGAND FREE ENERGY PREDICTED BY IDOCK:   -6.71 KCAL/MOL
REMARK 924 INTRA-LIGAND FREE ENERGY PREDICTED BY IDOCK:   -0.44 KCAL/MOL
REMARK 927      BINDING AFFINITY PREDICTED BY RF-SCORE:    0.00 PKD
ROOT
HETATM    1  F   UNL     1     -11.398  15.062  71.064  1.00  0.00    -0.309 F  
HETATM    2  C   UNL     1     -11.807  15.147  69.771  1.00  0.00    -0.333 C  
HETATM    3  F   UNL     1     -12.782  16.092  69.738  1.00  0.00    -0.250 F  
HETATM    4  F   UNL     1     -12.420  13.965  69.502  1.00  0.00    -0.366 F  
HETATM    5  C   UNL     1     -10.621  15.463  68.788  1.00  0.00    -0.235 C  
HETATM    6  O   UNL     1      -9.406  15.438  69.588  1.00  0.00    -0.267 OA 
HETATM    7  C   UNL     1      -9.249  12.970  66.250  1.00  0.00    -0.077 A  
HETATM    8  C   UNL     1      -8.210  15.065  69.092  1.00  0.00    -0.188 C  
HETATM    9 CL   UNL     1     -12.998  12.807  64.897  1.00  0.00    -0.374 Cl 
HETATM   10  C   UNL     1     -10.383  12.617  65.520  1.00  0.00    -0.305 A  
HETATM   11  N   UNL     1      -8.221  14.273  67.985  1.00  0.00    -0.141 N  
HETATM   12  O   UNL     1      -7.159  15.358  69.648  1.00  0.00    -0.183 OA 
HETATM   13  C   UNL     1     -11.602  13.224  65.810  1.00  0.00    -0.337 A  
HETATM   14  C   UNL     1      -9.354  13.901  67.285  1.00  0.00    -0.231 A  
HETATM   15  H   UNL     1      -7.323  13.927  67.645  1.00  0.00     0.000 HD 
HETATM   16  C   UNL     1     -11.699  14.162  66.839  1.00  0.00    -0.437 A  
HETATM   17  C   UNL     1     -10.573  14.485  67.621  1.00  0.00    -0.251 A  
ENDROOT
BRANCH   5  18
HETATM   18  C   UNL     1     -10.723  16.854  68.274  1.00  0.00    -0.377 C  
HETATM   19  C   UNL     1     -10.752  17.999  67.903  1.00  0.00    -0.329 C  
BRANCH  19  20
HETATM   20  C   UNL     1     -10.753  19.368  67.492  1.00  0.00    -0.570 C  
HETATM   21  C   UNL     1      -9.456  19.989  67.036  1.00  0.00    -0.523 C  
HETATM   22  C   UNL     1     -10.534  19.694  66.034  1.00  0.00    -0.622 C  
ENDBRANCH  19  20
ENDBRANCH   5  18
TORSDOF 2
ENDMDL
MODEL       13
REMARK 921   NORMALIZED FREE ENERGY PREDICTED BY IDOCK:   -6.00 KCAL/MOL
REMARK 922        TOTAL FREE ENERGY PREDICTED BY IDOCK:   -7.15 KCAL/MOL
REMARK 923 INTER-LIGAND FREE ENERGY PREDICTED BY IDOCK:   -6.72 KCAL/MOL
REMARK 924 INTRA-LIGAND FREE ENERGY PREDICTED BY IDOCK:   -0.43 KCAL/MOL
REMARK 927      BINDING AFFINITY PREDICTED BY RF-SCORE:    0.00 PKD
ROOT
HETATM    1  F   UNL     1     -10.859  18.114  67.405  1.00  0.00    -0.403 F  
HETATM    2  C   UNL     1     -10.201  17.469  68.403  1.00  0.00    -0.372 C  
HETATM    3  F   UNL     1     -10.440  18.174  69.539  1.00  0.00    -0.276 F  
HETATM    4  F   UNL     1      -8.879  17.627  68.134  1.00  0.00    -0.239 F  
HETATM    5  C   UNL     1     -10.628  15.960  68.523  1.00  0.00    -0.263 C  
HETATM    6  O   UNL     1     -11.526  15.697  67.410  1.00  0.00    -0.235 OA 
HETATM    7  C   UNL     1      -8.347  13.034  67.642  1.00  0.00    -0.181 A  
HETATM    8  C   UNL     1     -11.623  14.492  66.816  1.00  0.00    -0.376 C  
HETATM    9 CL   UNL     1      -5.838  14.636  70.299  1.00  0.00    -0.135 Cl 
HETATM   10  C   UNL     1      -7.224  13.269  68.433  1.00  0.00    -0.110 A  
HETATM   11  N   UNL     1     -10.558  13.654  66.943  1.00  0.00    -0.271 N  
HETATM   12  O   UNL     1     -12.589  14.184  66.128  1.00  0.00    -0.465 OA 
HETATM   13  C   UNL     1      -7.213  14.355  69.304  1.00  0.00    -0.107 A  
HETATM   14  C   UNL     1      -9.433  13.909  67.705  1.00  0.00    -0.214 A  
HETATM   15  H   UNL     1     -10.593  12.769  66.436  1.00  0.00     0.000 HD 
HETATM   16  C   UNL     1      -8.307  15.221  69.371  1.00  0.00    -0.232 A  
HETATM   17  C   UNL     1      -9.423  15.027  68.535  1.00  0.00    -0.203 A  
ENDROOT
BRANCH   5  18
HETATM   18  C   UNL     1     -11.445  15.743  69.746  1.00  0.00    -0.350 C  
HETATM   19  C   UNL     1     -12.133  15.633  70.727  1.00  0.00    -0.454 C  
BRANCH  19  20
HETATM   20  C   UNL     1     -12.965  15.545  71.886  1.00  0.00    -0.522 C  
HETATM   21  C   UNL     1     -14.410  15.146  71.713  1.00  0.00    -0.696 C  
HETATM   22  C   UNL     1     -13.443  14.187  72.343  1.00  0.00    -0.616 C  
ENDBRANCH  19  20
ENDBRANCH   5  18
TORSDOF 2
ENDMDL
MODEL       14
REMARK 921   NORMALIZED FREE ENERGY PREDICTED BY IDOCK:   -5.98 KCAL/MOL
REMARK 922        TOTAL FREE ENERGY PREDICTED BY IDOCK:   -7.12 KCAL/MOL
REMARK 923 INTER-LIGAND FREE ENERGY PREDICTED BY IDOCK:   -6.68 KCAL/MOL
REMARK 924 INTRA-LIGAND FREE ENERGY PREDICTED BY IDOCK:   -0.45 KCAL/MOL
REMARK 927      BINDING AFFINITY PREDICTED BY RF-SCORE:    0.00 PKD
ROOT
HETATM    1  F   UNL     1      -7.221  16.848  69.294  1.00  0.00    -0.228 F  
HETATM    2  C   UNL     1      -8.096  15.840  69.039  1.00  0.00    -0.224 C  
HETATM    3  F   UNL     1      -8.181  15.108  70.179  1.00  0.00    -0.109 F  
HETATM    4  F   UNL     1      -7.483  15.045  68.126  1.00  0.00    -0.097 F  
HETATM    5  C   UNL     1      -9.494  16.371  68.552  1.00  0.00    -0.227 C  
HETATM    6  O   UNL     1      -9.358  17.813  68.405  1.00  0.00    -0.277 OA 
HETATM    7  C   UNL     1     -10.812  15.926  65.002  1.00  0.00    -0.444 A  
HETATM    8  C   UNL     1     -10.050  18.524  67.494  1.00  0.00    -0.357 C  
HETATM    9 CL   UNL     1     -10.251  12.030  65.650  1.00  0.00    -0.273 Cl 
HETATM   10  C   UNL     1     -10.743  14.546  64.818  1.00  0.00    -0.414 A  
HETATM   11  N   UNL     1     -10.519  17.849  66.410  1.00  0.00    -0.349 N  
HETATM   12  O   UNL     1     -10.190  19.737  67.590  1.00  0.00    -0.385 OA 
HETATM   13  C   UNL     1     -10.315  13.735  65.865  1.00  0.00    -0.309 A  
HETATM   14  C   UNL     1     -10.418  16.482  66.220  1.00  0.00    -0.281 A  
HETATM   15  H   UNL     1     -10.981  18.392  65.680  1.00  0.00     0.000 HD 
HETATM   16  C   UNL     1      -9.933  14.295  67.086  1.00  0.00    -0.255 A  
HETATM   17  C   UNL     1      -9.943  15.692  67.264  1.00  0.00    -0.236 A  
ENDROOT
BRANCH   5  18
HETATM   18  C   UNL     1     -10.523  16.180  69.607  1.00  0.00    -0.291 C  
HETATM   19  C   UNL     1     -11.307  15.993  70.502  1.00  0.00    -0.420 C  
BRANCH  19  20
HETATM   20  C   UNL     1     -12.205  15.748  71.587  1.00  0.00    -0.523 C  
HETATM   21  C   UNL     1     -13.609  15.291  71.277  1.00  0.00    -0.584 C  
HETATM   22  C   UNL     1     -12.628  14.329  71.880  1.00  0.00    -0.396 C  
ENDBRANCH  19  20
ENDBRANCH   5  18
TORSDOF 2
ENDMDL
MODEL       15
REMARK 921   NORMALIZED FREE ENERGY PREDICTED BY IDOCK:   -5.94 KCAL/MOL
REMARK 922        TOTAL FREE ENERGY PREDICTED BY IDOCK:   -7.09 KCAL/MOL
REMARK 923 INTER-LIGAND FREE ENERGY PREDICTED BY IDOCK:   -6.66 KCAL/MOL
REMARK 924 INTRA-LIGAND FREE ENERGY PREDICTED BY IDOCK:   -0.43 KCAL/MOL
REMARK 927      BINDING AFFINITY PREDICTED BY RF-SCORE:    0.00 PKD
ROOT
HETATM    1  F   UNL     1      -8.128  12.848  68.660  1.00  0.00    -0.143 F  
HETATM    2  C   UNL     1      -9.377  12.570  68.203  1.00  0.00    -0.210 C  
HETATM    3  F   UNL     1      -9.878  11.606  69.017  1.00  0.00    -0.187 F  
HETATM    4  F   UNL     1      -9.202  11.984  66.991  1.00  0.00    -0.174 F  
HETATM    5  C   UNL     1     -10.290  13.849  68.142  1.00  0.00    -0.247 C  
HETATM    6  O   UNL     1      -9.439  14.978  68.486  1.00  0.00    -0.190 OA 
HETATM    7  C   UNL     1     -11.468  15.460  64.893  1.00  0.00    -0.311 A  
HETATM    8  C   UNL     1      -9.630  16.216  67.991  1.00  0.00    -0.220 C  
HETATM    9 CL   UNL     1     -12.980  11.864  64.060  1.00  0.00    -0.348 Cl 
HETATM   10  C   UNL     1     -12.094  14.404  64.234  1.00  0.00    -0.461 A  
HETATM   11  N   UNL     1     -10.320  16.314  66.821  1.00  0.00    -0.292 N  
HETATM   12  O   UNL     1      -9.146  17.208  68.521  1.00  0.00    -0.251 OA 
HETATM   13  C   UNL     1     -12.188  13.164  64.860  1.00  0.00    -0.428 A  
HETATM   14  C   UNL     1     -10.911  15.255  66.157  1.00  0.00    -0.320 A  
HETATM   15  H   UNL     1     -10.406  17.240  66.402  1.00  0.00     0.000 HD 
HETATM   16  C   UNL     1     -11.638  12.966  66.128  1.00  0.00    -0.423 A  
HETATM   17  C   UNL     1     -10.953  14.010  66.780  1.00  0.00    -0.298 A  
ENDROOT
BRANCH   5  18
HETATM   18  C   UNL     1     -11.328  13.802  69.205  1.00  0.00    -0.329 C  
HETATM   19  C   UNL     1     -12.116  13.761  70.114  1.00  0.00    -0.429 C  
BRANCH  19  20
HETATM   20  C   UNL     1     -13.016  13.708  71.223  1.00  0.00    -0.399 C  
HETATM   21  C   UNL     1     -12.781  14.630  72.393  1.00  0.00    -0.429 C  
HETATM   22  C   UNL     1     -13.939  14.877  71.472  1.00  0.00    -0.571 C  
ENDBRANCH  19  20
ENDBRANCH   5  18
TORSDOF 2
ENDMDL
MODEL       16
REMARK 921   NORMALIZED FREE ENERGY PREDICTED BY IDOCK:   -5.90 KCAL/MOL
REMARK 922        TOTAL FREE ENERGY PREDICTED BY IDOCK:   -7.04 KCAL/MOL
REMARK 923 INTER-LIGAND FREE ENERGY PREDICTED BY IDOCK:   -6.62 KCAL/MOL
REMARK 924 INTRA-LIGAND FREE ENERGY PREDICTED BY IDOCK:   -0.43 KCAL/MOL
REMARK 927      BINDING AFFINITY PREDICTED BY RF-SCORE:    0.00 PKD
ROOT
HETATM    1  F   UNL     1     -10.498  15.316  69.311  1.00  0.00    -0.214 F  
HETATM    2  C   UNL     1     -11.375  14.279  69.292  1.00  0.00    -0.283 C  
HETATM    3  F   UNL     1     -12.512  14.748  68.717  1.00  0.00    -0.214 F  
HETATM    4  F   UNL     1     -11.683  14.036  70.592  1.00  0.00    -0.347 F  
HETATM    5  C   UNL     1     -10.794  13.019  68.552  1.00  0.00    -0.258 C  
HETATM    6  O   UNL     1      -9.412  13.335  68.224  1.00  0.00    -0.214 OA 
HETATM    7  C   UNL     1      -9.851   9.772  70.314  1.00  0.00    -0.296 A  
HETATM    8  C   UNL     1      -8.443  12.401  68.158  1.00  0.00    -0.180 C  
HETATM    9 CL   UNL     1     -13.622   9.784  71.615  1.00  0.00    -0.399 Cl 
HETATM   10  C   UNL     1     -11.027   9.427  70.977  1.00  0.00    -0.409 A  
HETATM   11  N   UNL     1      -8.651  11.246  68.846  1.00  0.00    -0.333 N  
HETATM   12  O   UNL     1      -7.388  12.603  67.569  1.00  0.00    -0.128 OA 
HETATM   13  C   UNL     1     -12.161  10.219  70.818  1.00  0.00    -0.350 A  
HETATM   14  C   UNL     1      -9.811  10.925  69.528  1.00  0.00     0.068 A  
HETATM   15  H   UNL     1      -7.893  10.563  68.861  1.00  0.00     0.000 HD 
HETATM   16  C   UNL     1     -12.119  11.365  70.022  1.00  0.00    -0.417 A  
HETATM   17  C   UNL     1     -10.921  11.755  69.394  1.00  0.00    -0.185 A  
ENDROOT
BRANCH   5  18
HETATM   18  C   UNL     1     -11.472  12.822  67.243  1.00  0.00    -0.393 C  
HETATM   19  C   UNL     1     -12.005  12.731  66.168  1.00  0.00    -0.476 C  
BRANCH  19  20
HETATM   20  C   UNL     1     -12.629  12.666  64.884  1.00  0.00    -0.525 C  
HETATM   21  C   UNL     1     -12.081  13.520  63.767  1.00  0.00    -0.482 C  
HETATM   22  C   UNL     1     -11.878  12.034  63.736  1.00  0.00    -0.581 C  
ENDBRANCH  19  20
ENDBRANCH   5  18
TORSDOF 2
ENDMDL
MODEL       17
REMARK 921   NORMALIZED FREE ENERGY PREDICTED BY IDOCK:   -5.89 KCAL/MOL
REMARK 922        TOTAL FREE ENERGY PREDICTED BY IDOCK:   -7.03 KCAL/MOL
REMARK 923 INTER-LIGAND FREE ENERGY PREDICTED BY IDOCK:   -6.59 KCAL/MOL
REMARK 924 INTRA-LIGAND FREE ENERGY PREDICTED BY IDOCK:   -0.44 KCAL/MOL
REMARK 927      BINDING AFFINITY PREDICTED BY RF-SCORE:    0.00 PKD
ROOT
HETATM    1  F   UNL     1     -12.248  11.711  68.517  1.00  0.00    -0.373 F  
HETATM    2  C   UNL     1     -11.050  12.290  68.242  1.00  0.00    -0.240 C  
HETATM    3  F   UNL     1     -10.100  11.476  68.768  1.00  0.00    -0.200 F  
HETATM    4  F   UNL     1     -11.017  13.431  68.979  1.00  0.00    -0.258 F  
HETATM    5  C   UNL     1     -10.850  12.546  66.704  1.00  0.00    -0.246 C  
HETATM    6  O   UNL     1     -12.103  12.183  66.060  1.00  0.00    -0.612 OA 
HETATM    7  C   UNL     1     -10.799  16.013  65.118  1.00  0.00    -0.411 A  
HETATM    8  C   UNL     1     -12.550  12.781  64.938  1.00  0.00    -0.470 C  
HETATM    9 CL   UNL     1      -7.843  16.768  67.688  1.00  0.00    -0.183 Cl 
HETATM   10  C   UNL     1      -9.800  16.667  65.837  1.00  0.00    -0.301 A  
HETATM   11  N   UNL     1     -12.072  14.027  64.671  1.00  0.00    -0.420 N  
HETATM   12  O   UNL     1     -13.404  12.267  64.226  1.00  0.00    -0.777 OA 
HETATM   13  C   UNL     1      -9.092  15.972  66.815  1.00  0.00    -0.244 A  
HETATM   14  C   UNL     1     -11.103  14.682  65.409  1.00  0.00    -0.348 A  
HETATM   15  H   UNL     1     -12.459  14.517  63.863  1.00  0.00     0.000 HD 
HETATM   16  C   UNL     1      -9.393  14.638  67.094  1.00  0.00    -0.231 A  
HETATM   17  C   UNL     1     -10.438  13.984  66.414  1.00  0.00    -0.284 A  
ENDROOT
BRANCH   5  18
HETATM   18  C   UNL     1      -9.838  11.611  66.146  1.00  0.00    -0.250 C  
HETATM   19  C   UNL     1      -9.048  10.864  65.628  1.00  0.00    -0.223 C  
BRANCH  19  20
HETATM   20  C   UNL     1      -8.131   9.983  64.975  1.00  0.00    -0.145 C  
HETATM   21  C   UNL     1      -8.446   8.508  64.936  1.00  0.00    -0.166 C  
HETATM   22  C   UNL     1      -8.546   9.325  63.681  1.00  0.00    -0.208 C  
ENDBRANCH  19  20
ENDBRANCH   5  18
TORSDOF 2
ENDMDL
MODEL       18
REMARK 921   NORMALIZED FREE ENERGY PREDICTED BY IDOCK:   -5.85 KCAL/MOL
REMARK 922        TOTAL FREE ENERGY PREDICTED BY IDOCK:   -6.98 KCAL/MOL
REMARK 923 INTER-LIGAND FREE ENERGY PREDICTED BY IDOCK:   -6.53 KCAL/MOL
REMARK 924 INTRA-LIGAND FREE ENERGY PREDICTED BY IDOCK:   -0.45 KCAL/MOL
REMARK 927      BINDING AFFINITY PREDICTED BY RF-SCORE:    0.00 PKD
ROOT
HETATM    1  F   UNL     1     -10.859  19.258  66.642  1.00  0.00    -0.492 F  
HETATM    2  C   UNL     1     -10.086  18.979  67.724  1.00  0.00    -0.379 C  
HETATM    3  F   UNL     1     -10.756  19.450  68.807  1.00  0.00    -0.272 F  
HETATM    4  F   UNL     1      -8.982  19.760  67.597  1.00  0.00    -0.339 F  
HETATM    5  C   UNL     1      -9.747  17.448  67.836  1.00  0.00    -0.272 C  
HETATM    6  O   UNL     1     -10.281  16.819  66.638  1.00  0.00    -0.292 OA 
HETATM    7  C   UNL     1      -6.261  16.002  67.290  1.00  0.00    -0.155 A  
HETATM    8  C   UNL     1      -9.722  15.733  66.070  1.00  0.00    -0.345 C  
HETATM    9 CL   UNL     1      -5.136  18.532  70.163  1.00  0.00    -0.196 Cl 
HETATM   10  C   UNL     1      -5.482  16.724  68.193  1.00  0.00    -0.117 A  
HETATM   11  N   UNL     1      -8.407  15.505  66.335  1.00  0.00    -0.378 N  
HETATM   12  O   UNL     1     -10.340  15.020  65.288  1.00  0.00    -0.354 OA 
HETATM   13  C   UNL     1      -6.089  17.656  69.031  1.00  0.00    -0.206 A  
HETATM   14  C   UNL     1      -7.633  16.246  67.210  1.00  0.00    -0.171 A  
HETATM   15  H   UNL     1      -7.957  14.727  65.852  1.00  0.00     0.000 HD 
HETATM   16  C   UNL     1      -7.464  17.889  68.954  1.00  0.00    -0.234 A  
HETATM   17  C   UNL     1      -8.251  17.207  68.006  1.00  0.00    -0.216 A  
ENDROOT
BRANCH   5  18
HETATM   18  C   UNL     1     -10.487  16.830  68.967  1.00  0.00    -0.336 C  
HETATM   19  C   UNL     1     -11.026  16.292  69.900  1.00  0.00    -0.365 C  
BRANCH  19  20
HETATM   20  C   UNL     1     -11.629  15.631  71.015  1.00  0.00    -0.434 C  
HETATM   21  C   UNL     1     -13.133  15.523  71.068  1.00  0.00    -0.551 C  
HETATM   22  C   UNL     1     -12.307  14.300  70.797  1.00  0.00    -0.427 C  
ENDBRANCH  19  20
ENDBRANCH   5  18
TORSDOF 2
ENDMDL
MODEL       19
REMARK 921   NORMALIZED FREE ENERGY PREDICTED BY IDOCK:   -5.83 KCAL/MOL
REMARK 922        TOTAL FREE ENERGY PREDICTED BY IDOCK:   -6.96 KCAL/MOL
REMARK 923 INTER-LIGAND FREE ENERGY PREDICTED BY IDOCK:   -6.51 KCAL/MOL
REMARK 924 INTRA-LIGAND FREE ENERGY PREDICTED BY IDOCK:   -0.46 KCAL/MOL
REMARK 927      BINDING AFFINITY PREDICTED BY RF-SCORE:    0.00 PKD
ROOT
HETATM    1  F   UNL     1     -10.028  15.310  67.656  1.00  0.00    -0.218 F  
HETATM    2  C   UNL     1      -9.648  14.006  67.659  1.00  0.00    -0.221 C  
HETATM    3  F   UNL     1      -9.317  13.705  68.940  1.00  0.00    -0.141 F  
HETATM    4  F   UNL     1      -8.490  13.961  66.950  1.00  0.00    -0.213 F  
HETATM    5  C   UNL     1     -10.760  13.058  67.079  1.00  0.00    -0.258 C  
HETATM    6  O   UNL     1     -11.825  13.922  66.594  1.00  0.00    -0.374 OA 
HETATM    7  C   UNL     1     -10.457  11.217  63.753  1.00  0.00    -0.459 A  
HETATM    8  C   UNL     1     -12.613  13.598  65.550  1.00  0.00    -0.496 C  
HETATM    9 CL   UNL     1      -7.111   9.689  65.296  1.00  0.00    -0.103 Cl 
HETATM   10  C   UNL     1      -9.266  10.509  63.900  1.00  0.00    -0.287 A  
HETATM   11  N   UNL     1     -12.120  12.691  64.663  1.00  0.00    -0.396 N  
HETATM   12  O   UNL     1     -13.693  14.145  65.359  1.00  0.00    -0.363 OA 
HETATM   13  C   UNL     1      -8.569  10.580  65.103  1.00  0.00    -0.180 A  
HETATM   14  C   UNL     1     -10.921  12.017  64.800  1.00  0.00    -0.311 A  
HETATM   15  H   UNL     1     -12.679  12.495  63.832  1.00  0.00     0.000 HD 
HETATM   16  C   UNL     1      -9.043  11.372  66.151  1.00  0.00    -0.217 A  
HETATM   17  C   UNL     1     -10.215  12.137  65.994  1.00  0.00    -0.265 A  
ENDROOT
BRANCH   5  18
HETATM   18  C   UNL     1     -11.376  12.249  68.164  1.00  0.00    -0.349 C  
HETATM   19  C   UNL     1     -11.875  11.537  68.997  1.00  0.00    -0.408 C  
BRANCH  19  20
HETATM   20  C   UNL     1     -12.469  10.659  69.955  1.00  0.00    -0.294 C  
HETATM   21  C   UNL     1     -11.584  10.014  70.994  1.00  0.00    -0.476 C  
HETATM   22  C   UNL     1     -12.543  11.095  71.399  1.00  0.00    -0.479 C  
ENDBRANCH  19  20
ENDBRANCH   5  18
TORSDOF 2
ENDMDL
MODEL       20
REMARK 921   NORMALIZED FREE ENERGY PREDICTED BY IDOCK:   -5.82 KCAL/MOL
REMARK 922        TOTAL FREE ENERGY PREDICTED BY IDOCK:   -6.95 KCAL/MOL
REMARK 923 INTER-LIGAND FREE ENERGY PREDICTED BY IDOCK:   -6.50 KCAL/MOL
REMARK 924 INTRA-LIGAND FREE ENERGY PREDICTED BY IDOCK:   -0.44 KCAL/MOL
REMARK 927      BINDING AFFINITY PREDICTED BY RF-SCORE:    0.00 PKD
ROOT
HETATM    1  F   UNL     1     -10.084  13.421  67.138  1.00  0.00    -0.230 F  
HETATM    2  C   UNL     1     -10.587  14.671  67.313  1.00  0.00    -0.284 C  
HETATM    3  F   UNL     1     -11.918  14.521  67.536  1.00  0.00    -0.375 F  
HETATM    4  F   UNL     1     -10.475  15.284  66.106  1.00  0.00    -0.270 F  
HETATM    5  C   UNL     1      -9.860  15.451  68.469  1.00  0.00    -0.207 C  
HETATM    6  O   UNL     1      -8.763  14.603  68.911  1.00  0.00    -0.177 OA 
HETATM    7  C   UNL     1      -7.583  18.455  67.896  1.00  0.00    -0.255 A  
HETATM    8  C   UNL     1      -7.609  15.096  69.400  1.00  0.00    -0.210 C  
HETATM    9 CL   UNL     1     -10.736  20.060  66.054  1.00  0.00    -0.459 Cl 
HETATM   10  C   UNL     1      -8.398  19.328  67.180  1.00  0.00    -0.305 A  
HETATM   11  N   UNL     1      -7.284  16.370  69.050  1.00  0.00    -0.204 N  
HETATM   12  O   UNL     1      -6.844  14.411  70.068  1.00  0.00    -0.126 OA 
HETATM   13  C   UNL     1      -9.719  18.975  66.918  1.00  0.00    -0.324 A  
HETATM   14  C   UNL     1      -8.086  17.220  68.312  1.00  0.00    -0.246 A  
HETATM   15  H   UNL     1      -6.378  16.726  69.356  1.00  0.00     0.000 HD 
HETATM   16  C   UNL     1     -10.221  17.744  67.344  1.00  0.00    -0.353 A  
HETATM   17  C   UNL     1      -9.390  16.829  68.019  1.00  0.00    -0.229 A  
ENDROOT
BRANCH   5  18
HETATM   18  C   UNL     1     -10.752  15.585  69.651  1.00  0.00    -0.274 C  
HETATM   19  C   UNL     1     -11.530  15.679  70.565  1.00  0.00    -0.380 C  
BRANCH  19  20
HETATM   20  C   UNL     1     -12.488  15.782  71.621  1.00  0.00    -0.525 C  
HETATM   21  C   UNL     1     -13.875  15.231  71.399  1.00  0.00    -0.603 C  
HETATM   22  C   UNL     1     -12.933  14.526  72.331  1.00  0.00    -0.469 C  
ENDBRANCH  19  20
ENDBRANCH   5  18
TORSDOF 2
ENDMDL
MODEL       21
REMARK 921   NORMALIZED FREE ENERGY PREDICTED BY IDOCK:   -5.78 KCAL/MOL
REMARK 922        TOTAL FREE ENERGY PREDICTED BY IDOCK:   -6.90 KCAL/MOL
REMARK 923 INTER-LIGAND FREE ENERGY PREDICTED BY IDOCK:   -6.46 KCAL/MOL
REMARK 924 INTRA-LIGAND FREE ENERGY PREDICTED BY IDOCK:   -0.44 KCAL/MOL
REMARK 927      BINDING AFFINITY PREDICTED BY RF-SCORE:    0.00 PKD
ROOT
HETATM    1  F   UNL     1     -10.958  18.280  66.887  1.00  0.00    -0.346 F  
HETATM    2  C   UNL     1     -10.266  17.197  66.446  1.00  0.00    -0.328 C  
HETATM    3  F   UNL     1      -9.010  17.630  66.167  1.00  0.00    -0.270 F  
HETATM    4  F   UNL     1     -10.824  16.867  65.252  1.00  0.00    -0.376 F  
HETATM    5  C   UNL     1     -10.286  16.014  67.481  1.00  0.00    -0.287 C  
HETATM    6  O   UNL     1     -11.172  16.425  68.559  1.00  0.00    -0.358 OA 
HETATM    7  C   UNL     1     -12.151  12.735  66.921  1.00  0.00    -0.267 A  
HETATM    8  C   UNL     1     -11.907  15.553  69.276  1.00  0.00    -0.353 C  
HETATM    9 CL   UNL     1      -9.972  12.463  63.590  1.00  0.00    -0.311 Cl 
HETATM   10  C   UNL     1     -11.633  12.289  65.707  1.00  0.00    -0.443 A  
HETATM   11  N   UNL     1     -12.180  14.352  68.696  1.00  0.00    -0.575 N  
HETATM   12  O   UNL     1     -12.377  15.846  70.369  1.00  0.00    -0.366 OA 
HETATM   13  C   UNL     1     -10.631  13.022  65.077  1.00  0.00    -0.319 A  
HETATM   14  C   UNL     1     -11.686  13.929  67.475  1.00  0.00    -0.380 A  
HETATM   15  H   UNL     1     -12.796  13.714  69.201  1.00  0.00     0.000 HD 
HETATM   16  C   UNL     1     -10.162  14.210  65.641  1.00  0.00    -0.357 A  
HETATM   17  C   UNL     1     -10.718  14.701  66.838  1.00  0.00    -0.294 A  
ENDROOT
BRANCH   5  18
HETATM   18  C   UNL     1      -8.950  15.849  68.113  1.00  0.00    -0.181 C  
HETATM   19  C   UNL     1      -7.868  15.786  68.637  1.00  0.00    -0.156 C  
BRANCH  19  20
HETATM   20  C   UNL     1      -6.585  15.757  69.265  1.00  0.00    -0.160 C  
HETATM   21  C   UNL     1      -5.427  16.441  68.580  1.00  0.00    -0.105 C  
HETATM   22  C   UNL     1      -6.015  17.038  69.825  1.00  0.00    -0.230 C  
ENDBRANCH  19  20
ENDBRANCH   5  18
TORSDOF 2
ENDMDL
MODEL       22
REMARK 921   NORMALIZED FREE ENERGY PREDICTED BY IDOCK:   -5.78 KCAL/MOL
REMARK 922        TOTAL FREE ENERGY PREDICTED BY IDOCK:   -6.90 KCAL/MOL
REMARK 923 INTER-LIGAND FREE ENERGY PREDICTED BY IDOCK:   -6.44 KCAL/MOL
REMARK 924 INTRA-LIGAND FREE ENERGY PREDICTED BY IDOCK:   -0.46 KCAL/MOL
REMARK 927      BINDING AFFINITY PREDICTED BY RF-SCORE:    0.00 PKD
ROOT
HETATM    1  F   UNL     1     -11.745  15.084  65.289  1.00  0.00    -0.342 F  
HETATM    2  C   UNL     1     -11.421  14.274  66.331  1.00  0.00    -0.355 C  
HETATM    3  F   UNL     1     -10.727  13.232  65.806  1.00  0.00    -0.268 F  
HETATM    4  F   UNL     1     -12.596  13.758  66.774  1.00  0.00    -0.416 F  
HETATM    5  C   UNL     1     -10.622  15.034  67.452  1.00  0.00    -0.271 C  
HETATM    6  O   UNL     1     -10.594  16.435  67.060  1.00  0.00    -0.305 OA 
HETATM    7  C   UNL     1     -12.035  15.814  70.906  1.00  0.00    -0.453 A  
HETATM    8  C   UNL     1     -10.566  17.444  67.952  1.00  0.00    -0.383 C  
HETATM    9 CL   UNL     1     -12.634  11.879  71.173  1.00  0.00    -0.446 Cl 
HETATM   10  C   UNL     1     -12.421  14.559  71.373  1.00  0.00    -0.423 A  
HETATM   11  N   UNL     1     -11.033  17.176  69.202  1.00  0.00    -0.277 N  
HETATM   12  O   UNL     1     -10.210  18.574  67.641  1.00  0.00    -0.348 OA 
HETATM   13  C   UNL     1     -12.180  13.432  70.591  1.00  0.00    -0.350 A  
HETATM   14  C   UNL     1     -11.444  15.933  69.647  1.00  0.00    -0.346 A  
HETATM   15  H   UNL     1     -11.083  17.953  69.862  1.00  0.00     0.000 HD 
HETATM   16  C   UNL     1     -11.578  13.556  69.337  1.00  0.00    -0.369 A  
HETATM   17  C   UNL     1     -11.236  14.824  68.831  1.00  0.00    -0.282 A  
ENDROOT
BRANCH   5  18
HETATM   18  C   UNL     1      -9.199  14.602  67.465  1.00  0.00    -0.192 C  
HETATM   19  C   UNL     1      -8.038  14.290  67.536  1.00  0.00    -0.200 C  
BRANCH  19  20
HETATM   20  C   UNL     1      -6.657  13.944  67.659  1.00  0.00    -0.178 C  
HETATM   21  C   UNL     1      -6.232  13.045  68.793  1.00  0.00    -0.079 C  
HETATM   22  C   UNL     1      -6.232  12.521  67.387  1.00  0.00    -0.158 C  
ENDBRANCH  19  20
ENDBRANCH   5  18
TORSDOF 2
ENDMDL
MODEL       23
REMARK 921   NORMALIZED FREE ENERGY PREDICTED BY IDOCK:   -5.76 KCAL/MOL
REMARK 922        TOTAL FREE ENERGY PREDICTED BY IDOCK:   -6.88 KCAL/MOL
REMARK 923 INTER-LIGAND FREE ENERGY PREDICTED BY IDOCK:   -6.44 KCAL/MOL
REMARK 924 INTRA-LIGAND FREE ENERGY PREDICTED BY IDOCK:   -0.44 KCAL/MOL
REMARK 927      BINDING AFFINITY PREDICTED BY RF-SCORE:    0.00 PKD
ROOT
HETATM    1  F   UNL     1     -11.694  14.872  65.385  1.00  0.00    -0.348 F  
HETATM    2  C   UNL     1     -11.370  14.047  66.415  1.00  0.00    -0.333 C  
HETATM    3  F   UNL     1     -10.598  13.062  65.890  1.00  0.00    -0.263 F  
HETATM    4  F   UNL     1     -12.533  13.454  66.790  1.00  0.00    -0.396 F  
HETATM    5  C   UNL     1     -10.663  14.812  67.593  1.00  0.00    -0.270 C  
HETATM    6  O   UNL     1     -10.696  16.225  67.245  1.00  0.00    -0.314 OA 
HETATM    7  C   UNL     1     -12.264  15.401  71.003  1.00  0.00    -0.431 A  
HETATM    8  C   UNL     1     -10.763  17.204  68.168  1.00  0.00    -0.366 C  
HETATM    9 CL   UNL     1     -12.653  11.433  71.124  1.00  0.00    -0.506 Cl 
HETATM   10  C   UNL     1     -12.599  14.112  71.414  1.00  0.00    -0.445 A  
HETATM   11  N   UNL     1     -11.267  16.871  69.387  1.00  0.00    -0.257 N  
HETATM   12  O   UNL     1     -10.458  18.362  67.907  1.00  0.00    -0.388 OA 
HETATM   13  C   UNL     1     -12.262  13.027  70.610  1.00  0.00    -0.307 A  
HETATM   14  C   UNL     1     -11.627  15.593  69.776  1.00  0.00    -0.352 A  
HETATM   15  H   UNL     1     -11.388  17.622  70.068  1.00  0.00     0.000 HD 
HETATM   16  C   UNL     1     -11.615  13.224  69.388  1.00  0.00    -0.364 A  
HETATM   17  C   UNL     1     -11.323  14.525  68.936  1.00  0.00    -0.298 A  
ENDROOT
BRANCH   5  18
HETATM   18  C   UNL     1      -9.220  14.458  67.656  1.00  0.00    -0.196 C  
HETATM   19  C   UNL     1      -8.038  14.234  67.674  1.00  0.00    -0.188 C  
BRANCH  19  20
HETATM   20  C   UNL     1      -6.626  14.008  67.674  1.00  0.00    -0.175 C  
HETATM   21  C   UNL     1      -5.702  15.190  67.835  1.00  0.00    -0.149 C  
HETATM   22  C   UNL     1      -5.854  14.205  68.957  1.00  0.00    -0.089 C  
ENDBRANCH  19  20
ENDBRANCH   5  18
TORSDOF 2
ENDMDL
MODEL       24
REMARK 921   NORMALIZED FREE ENERGY PREDICTED BY IDOCK:   -5.72 KCAL/MOL
REMARK 922        TOTAL FREE ENERGY PREDICTED BY IDOCK:   -6.84 KCAL/MOL
REMARK 923 INTER-LIGAND FREE ENERGY PREDICTED BY IDOCK:   -6.41 KCAL/MOL
REMARK 924 INTRA-LIGAND FREE ENERGY PREDICTED BY IDOCK:   -0.44 KCAL/MOL
REMARK 927      BINDING AFFINITY PREDICTED BY RF-SCORE:    0.00 PKD
ROOT
HETATM    1  F   UNL     1     -12.607  14.420  66.575  1.00  0.00    -0.461 F  
HETATM    2  C   UNL     1     -11.678  13.523  66.998  1.00  0.00    -0.383 C  
HETATM    3  F   UNL     1     -10.594  13.688  66.198  1.00  0.00    -0.278 F  
HETATM    4  F   UNL     1     -12.185  12.300  66.698  1.00  0.00    -0.392 F  
HETATM    5  C   UNL     1     -11.338  13.691  68.524  1.00  0.00    -0.290 C  
HETATM    6  O   UNL     1     -12.249  14.702  69.040  1.00  0.00    -0.261 OA 
HETATM    7  C   UNL     1     -12.305  11.156  71.203  1.00  0.00    -0.451 A  
HETATM    8  C   UNL     1     -12.696  14.705  70.311  1.00  0.00    -0.273 C  
HETATM    9 CL   UNL     1     -10.290   8.538  68.966  1.00  0.00    -0.225 Cl 
HETATM   10  C   UNL     1     -11.746   9.973  70.724  1.00  0.00    -0.437 A  
HETATM   11  N   UNL     1     -12.671  13.518  70.977  1.00  0.00    -0.340 N  
HETATM   12  O   UNL     1     -13.174  15.708  70.827  1.00  0.00    -0.517 OA 
HETATM   13  C   UNL     1     -11.001   9.992  69.548  1.00  0.00    -0.253 A  
HETATM   14  C   UNL     1     -12.143  12.340  70.481  1.00  0.00    -0.282 A  
HETATM   15  H   UNL     1     -13.074  13.496  71.914  1.00  0.00     0.000 HD 
HETATM   16  C   UNL     1     -10.833  11.181  68.835  1.00  0.00    -0.261 A  
HETATM   17  C   UNL     1     -11.441  12.371  69.279  1.00  0.00    -0.349 A  
ENDROOT
BRANCH   5  18
HETATM   18  C   UNL     1      -9.978  14.265  68.698  1.00  0.00    -0.234 C  
HETATM   19  C   UNL     1      -8.907  14.794  68.850  1.00  0.00    -0.164 C  
BRANCH  19  20
HETATM   20  C   UNL     1      -7.657  15.461  69.037  1.00  0.00    -0.177 C  
HETATM   21  C   UNL     1      -6.792  15.731  67.831  1.00  0.00    -0.161 C  
HETATM   22  C   UNL     1      -7.493  16.868  68.515  1.00  0.00    -0.217 C  
ENDBRANCH  19  20
ENDBRANCH   5  18
TORSDOF 2
ENDMDL
MODEL       25
REMARK 921   NORMALIZED FREE ENERGY PREDICTED BY IDOCK:   -5.72 KCAL/MOL
REMARK 922        TOTAL FREE ENERGY PREDICTED BY IDOCK:   -6.84 KCAL/MOL
REMARK 923 INTER-LIGAND FREE ENERGY PREDICTED BY IDOCK:   -6.38 KCAL/MOL
REMARK 924 INTRA-LIGAND FREE ENERGY PREDICTED BY IDOCK:   -0.46 KCAL/MOL
REMARK 927      BINDING AFFINITY PREDICTED BY RF-SCORE:    0.00 PKD
ROOT
HETATM    1  F   UNL     1     -12.394  14.755  64.440  1.00  0.00    -0.467 F  
HETATM    2  C   UNL     1     -12.293  14.011  65.572  1.00  0.00    -0.483 C  
HETATM    3  F   UNL     1     -12.453  12.716  65.195  1.00  0.00    -0.480 F  
HETATM    4  F   UNL     1     -13.386  14.324  66.315  1.00  0.00    -0.099 F  
HETATM    5  C   UNL     1     -10.940  14.261  66.332  1.00  0.00    -0.311 C  
HETATM    6  O   UNL     1     -10.263  15.337  65.625  1.00  0.00    -0.315 OA 
HETATM    7  C   UNL     1     -10.696  16.040  69.696  1.00  0.00    -0.316 A  
HETATM    8  C   UNL     1      -9.449  16.218  66.238  1.00  0.00    -0.316 C  
HETATM    9 CL   UNL     1     -13.238  13.243  70.972  1.00  0.00    -0.138 Cl 
HETATM   10  C   UNL     1     -11.558  15.297  70.501  1.00  0.00    -0.340 A  
HETATM   11  N   UNL     1      -9.624  16.392  67.577  1.00  0.00    -0.226 N  
HETATM   12  O   UNL     1      -8.637  16.891  65.616  1.00  0.00    -0.443 OA 
HETATM   13  C   UNL     1     -12.192  14.175  69.976  1.00  0.00    -0.357 A  
HETATM   14  C   UNL     1     -10.505  15.672  68.363  1.00  0.00    -0.242 A  
HETATM   15  H   UNL     1      -9.061  17.109  68.036  1.00  0.00     0.000 HD 
HETATM   16  C   UNL     1     -11.989  13.805  68.644  1.00  0.00    -0.401 A  
HETATM   17  C   UNL     1     -11.166  14.580  67.805  1.00  0.00    -0.312 A  
ENDROOT
BRANCH   5  18
HETATM   18  C   UNL     1     -10.043  13.083  66.205  1.00  0.00    -0.283 C  
HETATM   19  C   UNL     1      -9.372  12.091  66.076  1.00  0.00    -0.196 C  
BRANCH  19  20
HETATM   20  C   UNL     1      -8.612  10.893  65.907  1.00  0.00    -0.179 C  
HETATM   21  C   UNL     1      -9.053   9.646  66.634  1.00  0.00    -0.176 C  
HETATM   22  C   UNL     1      -9.222   9.740  65.145  1.00  0.00    -0.297 C  
ENDBRANCH  19  20
ENDBRANCH   5  18
TORSDOF 2
ENDMDL
MODEL       26
REMARK 921   NORMALIZED FREE ENERGY PREDICTED BY IDOCK:   -5.70 KCAL/MOL
REMARK 922        TOTAL FREE ENERGY PREDICTED BY IDOCK:   -6.81 KCAL/MOL
REMARK 923 INTER-LIGAND FREE ENERGY PREDICTED BY IDOCK:   -6.38 KCAL/MOL
REMARK 924 INTRA-LIGAND FREE ENERGY PREDICTED BY IDOCK:   -0.44 KCAL/MOL
REMARK 927      BINDING AFFINITY PREDICTED BY RF-SCORE:    0.00 PKD
ROOT
HETATM    1  F   UNL     1      -7.443  14.695  69.144  1.00  0.00    -0.118 F  
HETATM    2  C   UNL     1      -7.557  15.420  68.001  1.00  0.00    -0.127 C  
HETATM    3  F   UNL     1      -7.160  14.608  66.989  1.00  0.00    -0.183 F  
HETATM    4  F   UNL     1      -6.618  16.397  68.091  1.00  0.00    -0.117 F  
HETATM    5  C   UNL     1      -9.011  15.983  67.794  1.00  0.00    -0.188 C  
HETATM    6  O   UNL     1      -9.759  15.642  68.995  1.00  0.00    -0.210 OA 
HETATM    7  C   UNL     1      -9.908  19.681  68.037  1.00  0.00    -0.524 A  
HETATM    8  C   UNL     1     -10.763  16.402  69.473  1.00  0.00    -0.325 C  
HETATM    9 CL   UNL     1      -7.130  20.187  65.218  1.00  0.00    -0.312 Cl 
HETATM   10  C   UNL     1      -9.040  20.270  67.119  1.00  0.00    -0.499 A  
HETATM   11  N   UNL     1     -10.771  17.714  69.109  1.00  0.00    -0.321 N  
HETATM   12  O   UNL     1     -11.592  15.961  70.259  1.00  0.00    -0.320 OA 
HETATM   13  C   UNL     1      -8.186  19.467  66.369  1.00  0.00    -0.325 A  
HETATM   14  C   UNL     1      -9.886  18.297  68.221  1.00  0.00    -0.350 A  
HETATM   15  H   UNL     1     -11.485  18.313  69.524  1.00  0.00     0.000 HD 
HETATM   16  C   UNL     1      -8.176  18.082  66.549  1.00  0.00    -0.298 A  
HETATM   17  C   UNL     1      -9.007  17.481  67.514  1.00  0.00    -0.230 A  
ENDROOT
BRANCH   5  18
HETATM   18  C   UNL     1      -9.697  15.266  66.687  1.00  0.00    -0.268 C  
HETATM   19  C   UNL     1     -10.245  14.625  65.829  1.00  0.00    -0.360 C  
BRANCH  19  20
HETATM   20  C   UNL     1     -10.889  13.826  64.834  1.00  0.00    -0.398 C  
HETATM   21  C   UNL     1     -12.226  13.206  65.155  1.00  0.00    -0.497 C  
HETATM   22  C   UNL     1     -12.148  14.344  64.181  1.00  0.00    -0.405 C  
ENDBRANCH  19  20
ENDBRANCH   5  18
TORSDOF 2
ENDMDL
MODEL       27
REMARK 921   NORMALIZED FREE ENERGY PREDICTED BY IDOCK:   -5.64 KCAL/MOL
REMARK 922        TOTAL FREE ENERGY PREDICTED BY IDOCK:   -6.75 KCAL/MOL
REMARK 923 INTER-LIGAND FREE ENERGY PREDICTED BY IDOCK:   -6.32 KCAL/MOL
REMARK 924 INTRA-LIGAND FREE ENERGY PREDICTED BY IDOCK:   -0.43 KCAL/MOL
REMARK 927      BINDING AFFINITY PREDICTED BY RF-SCORE:    0.00 PKD
ROOT
HETATM    1  F   UNL     1     -13.930   7.278  71.676  1.00  0.00    -0.417 F  
HETATM    2  C   UNL     1     -13.192   8.416  71.759  1.00  0.00    -0.355 C  
HETATM    3  F   UNL     1     -13.115   8.728  73.078  1.00  0.00    -0.410 F  
HETATM    4  F   UNL     1     -13.949   9.387  71.186  1.00  0.00    -0.407 F  
HETATM    5  C   UNL     1     -11.779   8.261  71.087  1.00  0.00    -0.280 C  
HETATM    6  O   UNL     1     -11.762   6.948  70.461  1.00  0.00    -0.341 OA 
HETATM    7  C   UNL     1     -10.755  10.036  67.871  1.00  0.00    -0.322 A  
HETATM    8  C   UNL     1     -11.056   6.677  69.346  1.00  0.00    -0.310 C  
HETATM    9 CL   UNL     1     -11.703  13.384  69.821  1.00  0.00    -0.363 Cl 
HETATM   10  C   UNL     1     -10.989  11.376  68.170  1.00  0.00    -0.284 A  
HETATM   11  N   UNL     1     -10.738   7.731  68.546  1.00  0.00    -0.394 N  
HETATM   12  O   UNL     1     -10.775   5.531  69.020  1.00  0.00    -0.237 OA 
HETATM   13  C   UNL     1     -11.435  11.728  69.441  1.00  0.00    -0.307 A  
HETATM   14  C   UNL     1     -11.003   9.057  68.836  1.00  0.00     0.054 A  
HETATM   15  H   UNL     1     -10.267   7.527  67.664  1.00  0.00     0.000 HD 
HETATM   16  C   UNL     1     -11.672  10.747  70.406  1.00  0.00    -0.445 A  
HETATM   17  C   UNL     1     -11.493   9.385  70.097  1.00  0.00    -0.175 A  
ENDROOT
BRANCH   5  18
HETATM   18  C   UNL     1     -10.710   8.217  72.119  1.00  0.00    -0.389 C  
HETATM   19  C   UNL     1      -9.820   8.120  72.925  1.00  0.00    -0.339 C  
BRANCH  19  20
HETATM   20  C   UNL     1      -8.752   7.967  73.862  1.00  0.00    -0.332 C  
HETATM   21  C   UNL     1      -8.519   6.610  74.480  1.00  0.00    -0.169 C  
HETATM   22  C   UNL     1      -7.547   7.145  73.469  1.00  0.00    -0.102 C  
ENDBRANCH  19  20
ENDBRANCH   5  18
TORSDOF 2
ENDMDL
MODEL       28
REMARK 921   NORMALIZED FREE ENERGY PREDICTED BY IDOCK:   -5.56 KCAL/MOL
REMARK 922        TOTAL FREE ENERGY PREDICTED BY IDOCK:   -6.66 KCAL/MOL
REMARK 923 INTER-LIGAND FREE ENERGY PREDICTED BY IDOCK:   -6.20 KCAL/MOL
REMARK 924 INTRA-LIGAND FREE ENERGY PREDICTED BY IDOCK:   -0.46 KCAL/MOL
REMARK 927      BINDING AFFINITY PREDICTED BY RF-SCORE:    0.00 PKD
ROOT
HETATM    1  F   UNL     1     -11.275  12.689  64.527  1.00  0.00    -0.317 F  
HETATM    2  C   UNL     1     -11.044  12.338  65.820  1.00  0.00    -0.323 C  
HETATM    3  F   UNL     1     -10.316  11.193  65.783  1.00  0.00    -0.273 F  
HETATM    4  F   UNL     1     -12.256  11.998  66.329  1.00  0.00    -0.352 F  
HETATM    5  C   UNL     1     -10.335  13.484  66.631  1.00  0.00    -0.271 C  
HETATM    6  O   UNL     1     -10.266  14.635  65.744  1.00  0.00    -0.302 OA 
HETATM    7  C   UNL     1     -12.025  15.470  69.413  1.00  0.00    -0.358 A  
HETATM    8  C   UNL     1     -10.305  15.906  66.188  1.00  0.00    -0.328 C  
HETATM    9 CL   UNL     1     -12.670  11.910  71.094  1.00  0.00    -0.440 Cl 
HETATM   10  C   UNL     1     -12.457  14.473  70.286  1.00  0.00    -0.405 A  
HETATM   11  N   UNL     1     -10.876  16.116  67.406  1.00  0.00    -0.302 N  
HETATM   12  O   UNL     1      -9.917  16.844  65.503  1.00  0.00    -0.572 OA 
HETATM   13  C   UNL     1     -12.159  13.142  70.008  1.00  0.00    -0.305 A  
HETATM   14  C   UNL     1     -11.331  15.122  68.253  1.00  0.00    -0.327 A  
HETATM   15  H   UNL     1     -10.975  17.082  67.719  1.00  0.00     0.000 HD 
HETATM   16  C   UNL     1     -11.455  12.800  68.852  1.00  0.00    -0.352 A  
HETATM   17  C   UNL     1     -11.063  13.793  67.934  1.00  0.00    -0.285 A  
ENDROOT
BRANCH   5  18
HETATM   18  C   UNL     1      -8.922  13.124  66.918  1.00  0.00    -0.213 C  
HETATM   19  C   UNL     1      -7.789  12.849  67.220  1.00  0.00    -0.134 C  
BRANCH  19  20
HETATM   20  C   UNL     1      -6.454  12.534  67.621  1.00  0.00    -0.138 C  
HETATM   21  C   UNL     1      -5.533  13.659  68.022  1.00  0.00    -0.116 C  
HETATM   22  C   UNL     1      -6.061  12.721  69.067  1.00  0.00    -0.089 C  
ENDBRANCH  19  20
ENDBRANCH   5  18
TORSDOF 2
ENDMDL
MODEL       29
REMARK 921   NORMALIZED FREE ENERGY PREDICTED BY IDOCK:   -5.53 KCAL/MOL
REMARK 922        TOTAL FREE ENERGY PREDICTED BY IDOCK:   -6.62 KCAL/MOL
REMARK 923 INTER-LIGAND FREE ENERGY PREDICTED BY IDOCK:   -6.18 KCAL/MOL
REMARK 924 INTRA-LIGAND FREE ENERGY PREDICTED BY IDOCK:   -0.44 KCAL/MOL
REMARK 927      BINDING AFFINITY PREDICTED BY RF-SCORE:    0.00 PKD
ROOT
HETATM    1  F   UNL     1     -12.186  16.205  69.693  1.00  0.00    -0.281 F  
HETATM    2  C   UNL     1     -11.057  15.496  69.430  1.00  0.00    -0.291 C  
HETATM    3  F   UNL     1     -11.460  14.241  69.103  1.00  0.00    -0.251 F  
HETATM    4  F   UNL     1     -10.410  15.385  70.619  1.00  0.00    -0.321 F  
HETATM    5  C   UNL     1     -10.179  16.164  68.311  1.00  0.00    -0.248 C  
HETATM    6  O   UNL     1     -10.813  17.434  67.993  1.00  0.00    -0.384 OA 
HETATM    7  C   UNL     1      -6.788  17.784  68.961  1.00  0.00    -0.244 A  
HETATM    8  C   UNL     1     -10.122  18.516  67.584  1.00  0.00    -0.364 C  
HETATM    9 CL   UNL     1      -5.768  14.236  70.474  1.00  0.00    -0.142 Cl 
HETATM   10  C   UNL     1      -6.069  16.760  69.574  1.00  0.00    -0.218 A  
HETATM   11  N   UNL     1      -8.802  18.566  67.913  1.00  0.00    -0.279 N  
HETATM   12  O   UNL     1     -10.664  19.451  67.008  1.00  0.00    -0.455 OA 
HETATM   13  C   UNL     1      -6.660  15.510  69.738  1.00  0.00    -0.166 A  
HETATM   14  C   UNL     1      -8.104  17.557  68.550  1.00  0.00    -0.275 A  
HETATM   15  H   UNL     1      -8.288  19.414  67.670  1.00  0.00     0.000 HD 
HETATM   16  C   UNL     1      -7.972  15.285  69.317  1.00  0.00    -0.223 A  
HETATM   17  C   UNL     1      -8.728  16.328  68.748  1.00  0.00    -0.244 A  
ENDROOT
BRANCH   5  18
HETATM   18  C   UNL     1     -10.239  15.371  67.055  1.00  0.00    -0.262 C  
HETATM   19  C   UNL     1     -10.338  14.775  66.014  1.00  0.00    -0.318 C  
BRANCH  19  20
HETATM   20  C   UNL     1     -10.487  14.096  64.765  1.00  0.00    -0.432 C  
HETATM   21  C   UNL     1     -10.972  12.667  64.770  1.00  0.00    -0.334 C  
HETATM   22  C   UNL     1     -11.876  13.759  64.277  1.00  0.00    -0.451 C  
ENDBRANCH  19  20
ENDBRANCH   5  18
TORSDOF 2
ENDMDL
MODEL       30
REMARK 921   NORMALIZED FREE ENERGY PREDICTED BY IDOCK:   -5.46 KCAL/MOL
REMARK 922        TOTAL FREE ENERGY PREDICTED BY IDOCK:   -6.55 KCAL/MOL
REMARK 923 INTER-LIGAND FREE ENERGY PREDICTED BY IDOCK:   -6.10 KCAL/MOL
REMARK 924 INTRA-LIGAND FREE ENERGY PREDICTED BY IDOCK:   -0.44 KCAL/MOL
REMARK 927      BINDING AFFINITY PREDICTED BY RF-SCORE:    0.00 PKD
ROOT
HETATM    1  F   UNL     1     -11.305  13.758  69.744  1.00  0.00    -0.289 F  
HETATM    2  C   UNL     1     -11.583  13.946  68.427  1.00  0.00    -0.332 C  
HETATM    3  F   UNL     1     -12.360  15.056  68.353  1.00  0.00    -0.229 F  
HETATM    4  F   UNL     1     -12.378  12.906  68.068  1.00  0.00    -0.316 F  
HETATM    5  C   UNL     1     -10.281  14.055  67.552  1.00  0.00    -0.244 C  
HETATM    6  O   UNL     1      -9.163  13.785  68.442  1.00  0.00    -0.198 OA 
HETATM    7  C   UNL     1      -9.187  11.405  65.038  1.00  0.00    -0.093 A  
HETATM    8  C   UNL     1      -8.019  13.207  68.027  1.00  0.00    -0.156 C  
HETATM    9 CL   UNL     1     -12.776  11.977  63.392  1.00  0.00    -0.651 Cl 
HETATM   10  C   UNL     1     -10.302  11.286  64.210  1.00  0.00    -0.399 A  
HETATM   11  N   UNL     1      -8.084  12.455  66.894  1.00  0.00    -0.354 N  
HETATM   12  O   UNL     1      -6.981  13.285  68.673  1.00  0.00    -0.091 OA 
HETATM   13  C   UNL     1     -11.407  12.104  64.426  1.00  0.00    -0.344 A  
HETATM   14  C   UNL     1      -9.204  12.317  66.095  1.00  0.00    -0.132 A  
HETATM   15  H   UNL     1      -7.240  11.954  66.612  1.00  0.00     0.000 HD 
HETATM   16  C   UNL     1     -11.415  13.022  65.479  1.00  0.00    -0.352 A  
HETATM   17  C   UNL     1     -10.318  13.111  66.356  1.00  0.00    -0.289 A  
ENDROOT
BRANCH   5  18
HETATM   18  C   UNL     1     -10.081  15.452  67.083  1.00  0.00    -0.245 C  
HETATM   19  C   UNL     1      -9.988  16.584  66.683  1.00  0.00    -0.284 C  
BRANCH  19  20
HETATM   20  C   UNL     1      -9.921  17.925  66.196  1.00  0.00    -0.288 C  
HETATM   21  C   UNL     1     -10.742  18.989  66.883  1.00  0.00    -0.484 C  
HETATM   22  C   UNL     1      -9.250  18.980  67.043  1.00  0.00    -0.330 C  
ENDBRANCH  19  20
ENDBRANCH   5  18
TORSDOF 2
ENDMDL
MODEL       31
REMARK 921   NORMALIZED FREE ENERGY PREDICTED BY IDOCK:   -5.45 KCAL/MOL
REMARK 922        TOTAL FREE ENERGY PREDICTED BY IDOCK:   -6.54 KCAL/MOL
REMARK 923 INTER-LIGAND FREE ENERGY PREDICTED BY IDOCK:   -6.10 KCAL/MOL
REMARK 924 INTRA-LIGAND FREE ENERGY PREDICTED BY IDOCK:   -0.44 KCAL/MOL
REMARK 927      BINDING AFFINITY PREDICTED BY RF-SCORE:    0.00 PKD
ROOT
HETATM    1  F   UNL     1     -12.974   6.626  70.469  1.00  0.00    -0.280 F  
HETATM    2  C   UNL     1     -12.819   7.715  71.267  1.00  0.00    -0.260 C  
HETATM    3  F   UNL     1     -12.849   7.262  72.546  1.00  0.00    -0.090 F  
HETATM    4  F   UNL     1     -13.946   8.454  71.102  1.00  0.00    -0.331 F  
HETATM    5  C   UNL     1     -11.506   8.516  70.936  1.00  0.00    -0.267 C  
HETATM    6  O   UNL     1     -10.924   7.885  69.761  1.00  0.00    -0.233 OA 
HETATM    7  C   UNL     1     -11.479  11.980  69.344  1.00  0.00    -0.361 A  
HETATM    8  C   UNL     1     -10.206   8.564  68.846  1.00  0.00    -0.207 C  
HETATM    9 CL   UNL     1     -13.763  13.043  72.438  1.00  0.00    -0.658 Cl 
HETATM   10  C   UNL     1     -12.278  12.724  70.210  1.00  0.00    -0.351 A  
HETATM   11  N   UNL     1     -10.416   9.906  68.768  1.00  0.00    -0.204 N  
HETATM   12  O   UNL     1      -9.453   7.997  68.063  1.00  0.00    -0.144 OA 
HETATM   13  C   UNL     1     -12.795  12.123  71.354  1.00  0.00    -0.276 A  
HETATM   14  C   UNL     1     -11.236  10.632  69.613  1.00  0.00    -0.289 A  
HETATM   15  H   UNL     1      -9.930  10.417  68.030  1.00  0.00     0.000 HD 
HETATM   16  C   UNL     1     -12.540  10.776  71.624  1.00  0.00    -0.456 A  
HETATM   17  C   UNL     1     -11.782  10.000  70.727  1.00  0.00    -0.437 A  
ENDROOT
BRANCH   5  18
HETATM   18  C   UNL     1     -10.499   8.339  72.015  1.00  0.00    -0.350 C  
HETATM   19  C   UNL     1      -9.640   8.239  72.852  1.00  0.00    -0.320 C  
BRANCH  19  20
HETATM   20  C   UNL     1      -8.593   8.148  73.821  1.00  0.00    -0.307 C  
HETATM   21  C   UNL     1      -8.329   6.816  74.480  1.00  0.00    -0.172 C  
HETATM   22  C   UNL     1      -7.349   7.361  73.483  1.00  0.00    -0.103 C  
ENDBRANCH  19  20
ENDBRANCH   5  18
TORSDOF 2
ENDMDL
MODEL       32
REMARK 921   NORMALIZED FREE ENERGY PREDICTED BY IDOCK:   -5.43 KCAL/MOL
REMARK 922        TOTAL FREE ENERGY PREDICTED BY IDOCK:   -6.52 KCAL/MOL
REMARK 923 INTER-LIGAND FREE ENERGY PREDICTED BY IDOCK:   -6.07 KCAL/MOL
REMARK 924 INTRA-LIGAND FREE ENERGY PREDICTED BY IDOCK:   -0.45 KCAL/MOL
REMARK 927      BINDING AFFINITY PREDICTED BY RF-SCORE:    0.00 PKD
ROOT
HETATM    1  F   UNL     1     -12.352  13.815  68.581  1.00  0.00    -0.391 F  
HETATM    2  C   UNL     1     -11.492  14.813  68.915  1.00  0.00    -0.297 C  
HETATM    3  F   UNL     1     -10.871  14.417  70.056  1.00  0.00    -0.215 F  
HETATM    4  F   UNL     1     -12.272  15.870  69.259  1.00  0.00    -0.368 F  
HETATM    5  C   UNL     1     -10.483  15.144  67.756  1.00  0.00    -0.247 C  
HETATM    6  O   UNL     1     -10.888  14.338  66.615  1.00  0.00    -0.295 OA 
HETATM    7  C   UNL     1     -10.547  18.387  65.751  1.00  0.00    -0.236 A  
HETATM    8  C   UNL     1     -10.710  14.734  65.339  1.00  0.00    -0.371 C  
HETATM    9 CL   UNL     1     -10.205  20.184  69.297  1.00  0.00    -0.267 Cl 
HETATM   10  C   UNL     1     -10.463  19.364  66.742  1.00  0.00    -0.569 A  
HETATM   11  N   UNL     1     -10.585  16.071  65.119  1.00  0.00    -0.408 N  
HETATM   12  O   UNL     1     -10.735  13.941  64.405  1.00  0.00    -0.394 OA 
HETATM   13  C   UNL     1     -10.332  18.981  68.074  1.00  0.00    -0.394 A  
HETATM   14  C   UNL     1     -10.534  17.037  66.108  1.00  0.00    -0.271 A  
HETATM   15  H   UNL     1     -10.523  16.385  64.150  1.00  0.00     0.000 HD 
HETATM   16  C   UNL     1     -10.310  17.630  68.424  1.00  0.00    -0.375 A  
HETATM   17  C   UNL     1     -10.451  16.634  67.438  1.00  0.00    -0.314 A  
ENDROOT
BRANCH   5  18
HETATM   18  C   UNL     1      -9.115  14.675  68.102  1.00  0.00    -0.187 C  
HETATM   19  C   UNL     1      -7.984  14.361  68.367  1.00  0.00    -0.141 C  
BRANCH  19  20
HETATM   20  C   UNL     1      -6.626  14.029  68.669  1.00  0.00    -0.093 C  
HETATM   21  C   UNL     1      -6.308  12.630  69.134  1.00  0.00    -0.099 C  
HETATM   22  C   UNL     1      -5.888  13.073  67.763  1.00  0.00    -0.141 C  
ENDBRANCH  19  20
ENDBRANCH   5  18
TORSDOF 2
ENDMDL
MODEL       33
REMARK 921   NORMALIZED FREE ENERGY PREDICTED BY IDOCK:   -5.39 KCAL/MOL
REMARK 922        TOTAL FREE ENERGY PREDICTED BY IDOCK:   -6.46 KCAL/MOL
REMARK 923 INTER-LIGAND FREE ENERGY PREDICTED BY IDOCK:   -6.00 KCAL/MOL
REMARK 924 INTRA-LIGAND FREE ENERGY PREDICTED BY IDOCK:   -0.46 KCAL/MOL
REMARK 927      BINDING AFFINITY PREDICTED BY RF-SCORE:    0.00 PKD
ROOT
HETATM    1  F   UNL     1     -12.011  10.818  68.094  1.00  0.00    -0.334 F  
HETATM    2  C   UNL     1     -10.744  11.232  67.830  1.00  0.00    -0.220 C  
HETATM    3  F   UNL     1      -9.932  10.177  68.093  1.00  0.00    -0.150 F  
HETATM    4  F   UNL     1     -10.461  12.169  68.772  1.00  0.00    -0.216 F  
HETATM    5  C   UNL     1     -10.586  11.771  66.361  1.00  0.00    -0.255 C  
HETATM    6  O   UNL     1     -11.918  11.769  65.776  1.00  0.00    -0.376 OA 
HETATM    7  C   UNL     1      -9.986  15.436  65.498  1.00  0.00    -0.379 A  
HETATM    8  C   UNL     1     -12.309  12.658  64.842  1.00  0.00    -0.498 C  
HETATM    9 CL   UNL     1      -6.803  15.121  67.883  1.00  0.00    -0.151 Cl 
HETATM   10  C   UNL     1      -8.846  15.745  66.237  1.00  0.00    -0.378 A  
HETATM   11  N   UNL     1     -11.626  13.834  64.785  1.00  0.00    -0.347 N  
HETATM   12  O   UNL     1     -13.281  12.458  64.124  1.00  0.00    -0.761 OA 
HETATM   13  C   UNL     1      -8.224  14.750  66.987  1.00  0.00    -0.179 A  
HETATM   14  C   UNL     1     -10.513  14.144  65.545  1.00  0.00    -0.339 A  
HETATM   15  H   UNL     1     -11.961  14.541  64.130  1.00  0.00     0.000 HD 
HETATM   16  C   UNL     1      -8.750  13.456  67.023  1.00  0.00    -0.195 A  
HETATM   17  C   UNL     1      -9.933  13.147  66.326  1.00  0.00    -0.285 A  
ENDROOT
BRANCH   5  18
HETATM   18  C   UNL     1      -9.796  10.819  65.537  1.00  0.00    -0.309 C  
HETATM   19  C   UNL     1      -9.106  10.099  64.861  1.00  0.00    -0.256 C  
BRANCH  19  20
HETATM   20  C   UNL     1      -8.258   9.280  64.054  1.00  0.00    -0.164 C  
HETATM   21  C   UNL     1      -7.334   9.946  63.064  1.00  0.00    -0.124 C  
HETATM   22  C   UNL     1      -6.768   9.306  64.297  1.00  0.00    -0.087 C  
ENDBRANCH  19  20
ENDBRANCH   5  18
TORSDOF 2
ENDMDL
MODEL       34
REMARK 921   NORMALIZED FREE ENERGY PREDICTED BY IDOCK:   -5.36 KCAL/MOL
REMARK 922        TOTAL FREE ENERGY PREDICTED BY IDOCK:   -6.43 KCAL/MOL
REMARK 923 INTER-LIGAND FREE ENERGY PREDICTED BY IDOCK:   -5.98 KCAL/MOL
REMARK 924 INTRA-LIGAND FREE ENERGY PREDICTED BY IDOCK:   -0.46 KCAL/MOL
REMARK 927      BINDING AFFINITY PREDICTED BY RF-SCORE:    0.00 PKD
ROOT
HETATM    1  F   UNL     1      -8.987   8.392  66.845  1.00  0.00    -0.132 F  
HETATM    2  C   UNL     1     -10.050   9.227  66.983  1.00  0.00    -0.247 C  
HETATM    3  F   UNL     1     -11.127   8.440  67.235  1.00  0.00    -0.267 F  
HETATM    4  F   UNL     1     -10.257   9.764  65.753  1.00  0.00    -0.345 F  
HETATM    5  C   UNL     1      -9.817  10.312  68.097  1.00  0.00    -0.148 C  
HETATM    6  O   UNL     1      -8.444  10.148  68.550  1.00  0.00    -0.113 OA 
HETATM    7  C   UNL     1      -9.352  14.027  67.373  1.00  0.00    -0.220 A  
HETATM    8  C   UNL     1      -7.694  11.173  69.000  1.00  0.00    -0.114 C  
HETATM    9 CL   UNL     1     -12.879  13.759  65.529  1.00  0.00    -0.526 Cl 
HETATM   10  C   UNL     1     -10.493  14.344  66.640  1.00  0.00    -0.274 A  
HETATM   11  N   UNL     1      -8.051  12.423  68.598  1.00  0.00    -0.310 N  
HETATM   12  O   UNL     1      -6.690  10.991  69.679  1.00  0.00    -0.112 OA 
HETATM   13  C   UNL     1     -11.458  13.366  66.414  1.00  0.00    -0.329 A  
HETATM   14  C   UNL     1      -9.169  12.725  67.843  1.00  0.00    -0.205 A  
HETATM   15  H   UNL     1      -7.447  13.197  68.874  1.00  0.00     0.000 HD 
HETATM   16  C   UNL     1     -11.276  12.067  66.895  1.00  0.00    -0.375 A  
HETATM   17  C   UNL     1     -10.100  11.721  67.587  1.00  0.00    -0.206 A  
ENDROOT
BRANCH   5  18
HETATM   18  C   UNL     1     -10.659  10.030  69.288  1.00  0.00    -0.249 C  
HETATM   19  C   UNL     1     -11.311   9.858  70.286  1.00  0.00    -0.357 C  
BRANCH  19  20
HETATM   20  C   UNL     1     -12.064   9.688  71.489  1.00  0.00    -0.482 C  
HETATM   21  C   UNL     1     -13.112  10.715  71.839  1.00  0.00    -0.563 C  
HETATM   22  C   UNL     1     -13.531   9.345  71.392  1.00  0.00    -0.403 C  
ENDBRANCH  19  20
ENDBRANCH   5  18
TORSDOF 2
ENDMDL
MODEL       35
REMARK 921   NORMALIZED FREE ENERGY PREDICTED BY IDOCK:   -5.30 KCAL/MOL
REMARK 922        TOTAL FREE ENERGY PREDICTED BY IDOCK:   -6.37 KCAL/MOL
REMARK 923 INTER-LIGAND FREE ENERGY PREDICTED BY IDOCK:   -5.92 KCAL/MOL
REMARK 924 INTRA-LIGAND FREE ENERGY PREDICTED BY IDOCK:   -0.45 KCAL/MOL
REMARK 927      BINDING AFFINITY PREDICTED BY RF-SCORE:    0.00 PKD
ROOT
HETATM    1  F   UNL     1     -11.215  17.391  67.643  1.00  0.00    -0.272 F  
HETATM    2  C   UNL     1     -10.575  16.209  67.447  1.00  0.00    -0.311 C  
HETATM    3  F   UNL     1      -9.439  16.497  66.762  1.00  0.00    -0.223 F  
HETATM    4  F   UNL     1     -11.361  15.504  66.593  1.00  0.00    -0.295 F  
HETATM    5  C   UNL     1     -10.296  15.450  68.795  1.00  0.00    -0.229 C  
HETATM    6  O   UNL     1     -10.946  16.221  69.844  1.00  0.00    -0.337 OA 
HETATM    7  C   UNL     1     -12.042  12.215  69.808  1.00  0.00    -0.306 A  
HETATM    8  C   UNL     1     -11.452  15.660  70.959  1.00  0.00    -0.395 C  
HETATM    9 CL   UNL     1     -10.638  10.781  66.360  1.00  0.00    -0.291 Cl 
HETATM   10  C   UNL     1     -11.779  11.371  68.730  1.00  0.00    -0.404 A  
HETATM   11  N   UNL     1     -11.775  14.339  70.894  1.00  0.00    -0.496 N  
HETATM   12  O   UNL     1     -11.687  16.317  71.966  1.00  0.00    -0.496 OA 
HETATM   13  C   UNL     1     -10.985  11.826  67.681  1.00  0.00    -0.233 A  
HETATM   14  C   UNL     1     -11.538  13.517  69.808  1.00  0.00    -0.244 A  
HETATM   15  H   UNL     1     -12.225  13.924  71.710  1.00  0.00     0.000 HD 
HETATM   16  C   UNL     1     -10.474  13.126  67.691  1.00  0.00    -0.225 A  
HETATM   17  C   UNL     1     -10.781  14.006  68.746  1.00  0.00    -0.272 A  
ENDROOT
BRANCH   5  18
HETATM   18  C   UNL     1      -8.847  15.483  69.125  1.00  0.00    -0.253 C  
HETATM   19  C   UNL     1      -7.662  15.541  69.328  1.00  0.00    -0.223 C  
BRANCH  19  20
HETATM   20  C   UNL     1      -6.249  15.628  69.528  1.00  0.00    -0.152 C  
HETATM   21  C   UNL     1      -5.363  15.885  68.334  1.00  0.00    -0.103 C  
HETATM   22  C   UNL     1      -5.567  16.965  69.356  1.00  0.00    -0.164 C  
ENDBRANCH  19  20
ENDBRANCH   5  18
TORSDOF 2
ENDMDL
MODEL       36
REMARK 921   NORMALIZED FREE ENERGY PREDICTED BY IDOCK:   -5.30 KCAL/MOL
REMARK 922        TOTAL FREE ENERGY PREDICTED BY IDOCK:   -6.37 KCAL/MOL
REMARK 923 INTER-LIGAND FREE ENERGY PREDICTED BY IDOCK:   -5.92 KCAL/MOL
REMARK 924 INTRA-LIGAND FREE ENERGY PREDICTED BY IDOCK:   -0.45 KCAL/MOL
REMARK 927      BINDING AFFINITY PREDICTED BY RF-SCORE:    0.00 PKD
ROOT
HETATM    1  F   UNL     1     -11.036  17.701  66.145  1.00  0.00    -0.207 F  
HETATM    2  C   UNL     1     -10.347  17.676  67.316  1.00  0.00    -0.354 C  
HETATM    3  F   UNL     1     -11.128  18.301  68.234  1.00  0.00    -0.205 F  
HETATM    4  F   UNL     1      -9.271  18.482  67.126  1.00  0.00    -0.264 F  
HETATM    5  C   UNL     1      -9.954  16.215  67.746  1.00  0.00    -0.237 C  
HETATM    6  O   UNL     1     -10.356  15.342  66.654  1.00  0.00    -0.267 OA 
HETATM    7  C   UNL     1      -6.375  14.899  67.756  1.00  0.00    -0.174 A  
HETATM    8  C   UNL     1      -9.704  14.203  66.349  1.00  0.00    -0.298 C  
HETATM    9 CL   UNL     1      -5.611  17.985  70.166  1.00  0.00    -0.242 Cl 
HETATM   10  C   UNL     1      -5.709  15.822  68.560  1.00  0.00    -0.101 A  
HETATM   11  N   UNL     1      -8.408  14.106  66.753  1.00  0.00    -0.412 N  
HETATM   12  O   UNL     1     -10.221  13.321  65.674  1.00  0.00    -0.283 OA 
HETATM   13  C   UNL     1      -6.425  16.857  69.154  1.00  0.00    -0.215 A  
HETATM   14  C   UNL     1      -7.744  15.043  67.525  1.00  0.00    -0.185 A  
HETATM   15  H   UNL     1      -7.885  13.279  66.464  1.00  0.00     0.000 HD 
HETATM   16  C   UNL     1      -7.797  16.991  68.929  1.00  0.00    -0.224 A  
HETATM   17  C   UNL     1      -8.470  16.098  68.073  1.00  0.00    -0.168 A  
ENDROOT
BRANCH   5  18
HETATM   18  C   UNL     1     -10.762  15.778  68.915  1.00  0.00    -0.248 C  
HETATM   19  C   UNL     1     -11.376  15.364  69.864  1.00  0.00    -0.318 C  
BRANCH  19  20
HETATM   20  C   UNL     1     -12.081  14.834  70.989  1.00  0.00    -0.391 C  
HETATM   21  C   UNL     1     -11.910  15.503  72.331  1.00  0.00    -0.570 C  
HETATM   22  C   UNL     1     -13.209  15.638  71.590  1.00  0.00    -0.554 C  
ENDBRANCH  19  20
ENDBRANCH   5  18
TORSDOF 2
ENDMDL
MODEL       37
REMARK 921   NORMALIZED FREE ENERGY PREDICTED BY IDOCK:   -5.29 KCAL/MOL
REMARK 922        TOTAL FREE ENERGY PREDICTED BY IDOCK:   -6.35 KCAL/MOL
REMARK 923 INTER-LIGAND FREE ENERGY PREDICTED BY IDOCK:   -5.92 KCAL/MOL
REMARK 924 INTRA-LIGAND FREE ENERGY PREDICTED BY IDOCK:   -0.44 KCAL/MOL
REMARK 927      BINDING AFFINITY PREDICTED BY RF-SCORE:    0.00 PKD
ROOT
HETATM    1  F   UNL     1     -11.111  12.174  69.746  1.00  0.00    -0.237 F  
HETATM    2  C   UNL     1     -11.444  12.683  68.531  1.00  0.00    -0.311 C  
HETATM    3  F   UNL     1     -12.215  13.774  68.771  1.00  0.00    -0.377 F  
HETATM    4  F   UNL     1     -12.262  11.762  67.960  1.00  0.00    -0.332 F  
HETATM    5  C   UNL     1     -10.181  13.011  67.655  1.00  0.00    -0.216 C  
HETATM    6  O   UNL     1      -9.027  12.532  68.400  1.00  0.00    -0.189 OA 
HETATM    7  C   UNL     1      -9.216  11.075  64.515  1.00  0.00    -0.185 A  
HETATM    8  C   UNL     1      -7.907  12.079  67.804  1.00  0.00    -0.145 C  
HETATM    9 CL   UNL     1     -12.869  12.026  63.222  1.00  0.00    -0.533 Cl 
HETATM   10  C   UNL     1     -10.367  11.162  63.733  1.00  0.00    -0.447 A  
HETATM   11  N   UNL     1      -8.026  11.633  66.524  1.00  0.00    -0.332 N  
HETATM   12  O   UNL     1      -6.841  11.998  68.404  1.00  0.00    -0.062 OA 
HETATM   13  C   UNL     1     -11.456  11.897  64.194  1.00  0.00    -0.370 A  
HETATM   14  C   UNL     1      -9.181  11.694  65.765  1.00  0.00    -0.173 A  
HETATM   15  H   UNL     1      -7.199  11.221  66.090  1.00  0.00     0.000 HD 
HETATM   16  C   UNL     1     -11.411  12.523  65.441  1.00  0.00    -0.383 A  
HETATM   17  C   UNL     1     -10.276  12.395  66.265  1.00  0.00    -0.258 A  
ENDROOT
BRANCH   5  18
HETATM   18  C   UNL     1      -9.991  14.481  67.541  1.00  0.00    -0.224 C  
HETATM   19  C   UNL     1      -9.766  15.660  67.440  1.00  0.00    -0.222 C  
BRANCH  19  20
HETATM   20  C   UNL     1      -9.455  17.050  67.318  1.00  0.00    -0.240 C  
HETATM   21  C   UNL     1     -10.139  18.030  68.239  1.00  0.00    -0.390 C  
HETATM   22  C   UNL     1      -8.681  17.727  68.424  1.00  0.00    -0.292 C  
ENDBRANCH  19  20
ENDBRANCH   5  18
TORSDOF 2
ENDMDL
MODEL       38
REMARK 921   NORMALIZED FREE ENERGY PREDICTED BY IDOCK:   -5.26 KCAL/MOL
REMARK 922        TOTAL FREE ENERGY PREDICTED BY IDOCK:   -6.33 KCAL/MOL
REMARK 923 INTER-LIGAND FREE ENERGY PREDICTED BY IDOCK:   -5.88 KCAL/MOL
REMARK 924 INTRA-LIGAND FREE ENERGY PREDICTED BY IDOCK:   -0.45 KCAL/MOL
REMARK 927      BINDING AFFINITY PREDICTED BY RF-SCORE:    0.00 PKD
ROOT
HETATM    1  F   UNL     1     -12.002  11.696  70.057  1.00  0.00    -0.334 F  
HETATM    2  C   UNL     1     -11.162  11.449  69.018  1.00  0.00    -0.256 C  
HETATM    3  F   UNL     1     -11.761  10.497  68.259  1.00  0.00    -0.355 F  
HETATM    4  F   UNL     1     -10.067  10.859  69.565  1.00  0.00    -0.232 F  
HETATM    5  C   UNL     1     -10.819  12.750  68.205  1.00  0.00    -0.248 C  
HETATM    6  O   UNL     1     -11.429  13.857  68.924  1.00  0.00    -0.260 OA 
HETATM    7  C   UNL     1      -7.377  14.391  68.182  1.00  0.00    -0.130 A  
HETATM    8  C   UNL     1     -10.910  15.100  68.932  1.00  0.00    -0.241 C  
HETATM    9 CL   UNL     1      -6.068  10.833  66.940  1.00  0.00    -0.064 Cl 
HETATM   10  C   UNL     1      -6.542  13.351  67.780  1.00  0.00    -0.168 A  
HETATM   11  N   UNL     1      -9.580  15.215  68.662  1.00  0.00    -0.205 N  
HETATM   12  O   UNL     1     -11.577  16.080  69.241  1.00  0.00    -0.352 OA 
HETATM   13  C   UNL     1      -7.092  12.113  67.459  1.00  0.00    -0.135 A  
HETATM   14  C   UNL     1      -8.751  14.171  68.294  1.00  0.00    -0.181 A  
HETATM   15  H   UNL     1      -9.163  16.144  68.737  1.00  0.00     0.000 HD 
HETATM   16  C   UNL     1      -8.469  11.902  67.563  1.00  0.00    -0.161 A  
HETATM   17  C   UNL     1      -9.316  12.928  68.023  1.00  0.00    -0.213 A  
ENDROOT
BRANCH   5  18
HETATM   18  C   UNL     1     -11.487  12.728  66.877  1.00  0.00    -0.396 C  
HETATM   19  C   UNL     1     -12.022  12.639  65.802  1.00  0.00    -0.503 C  
BRANCH  19  20
HETATM   20  C   UNL     1     -12.651  12.488  64.528  1.00  0.00    -0.503 C  
HETATM   21  C   UNL     1     -12.147  13.311  63.368  1.00  0.00    -0.508 C  
HETATM   22  C   UNL     1     -11.882  11.834  63.405  1.00  0.00    -0.435 C  
ENDBRANCH  19  20
ENDBRANCH   5  18
TORSDOF 2
ENDMDL
MODEL       39
REMARK 921   NORMALIZED FREE ENERGY PREDICTED BY IDOCK:   -5.25 KCAL/MOL
REMARK 922        TOTAL FREE ENERGY PREDICTED BY IDOCK:   -6.31 KCAL/MOL
REMARK 923 INTER-LIGAND FREE ENERGY PREDICTED BY IDOCK:   -5.84 KCAL/MOL
REMARK 924 INTRA-LIGAND FREE ENERGY PREDICTED BY IDOCK:   -0.46 KCAL/MOL
REMARK 927      BINDING AFFINITY PREDICTED BY RF-SCORE:    0.00 PKD
ROOT
HETATM    1  F   UNL     1     -12.404  11.850  67.812  1.00  0.00    -0.216 F  
HETATM    2  C   UNL     1     -11.526  12.843  68.112  1.00  0.00    -0.315 C  
HETATM    3  F   UNL     1     -10.838  12.430  69.206  1.00  0.00    -0.244 F  
HETATM    4  F   UNL     1     -12.285  13.893  68.519  1.00  0.00    -0.382 F  
HETATM    5  C   UNL     1     -10.587  13.196  66.901  1.00  0.00    -0.263 C  
HETATM    6  O   UNL     1     -11.058  12.408  65.772  1.00  0.00    -0.293 OA 
HETATM    7  C   UNL     1     -10.772  16.472  64.958  1.00  0.00    -0.228 A  
HETATM    8  C   UNL     1     -10.957  12.825  64.495  1.00  0.00    -0.341 C  
HETATM    9 CL   UNL     1     -10.223  18.210  68.506  1.00  0.00    -0.398 Cl 
HETATM   10  C   UNL     1     -10.631  17.432  65.957  1.00  0.00    -0.210 A  
HETATM   11  N   UNL     1     -10.846  14.166  64.290  1.00  0.00    -0.586 N  
HETATM   12  O   UNL     1     -11.037  12.048  63.551  1.00  0.00    -0.409 OA 
HETATM   13  C   UNL     1     -10.421  17.028  67.273  1.00  0.00    -0.301 A  
HETATM   14  C   UNL     1     -10.738  15.116  65.290  1.00  0.00    -0.404 A  
HETATM   15  H   UNL     1     -10.842  14.497  63.325  1.00  0.00     0.000 HD 
HETATM   16  C   UNL     1     -10.377  15.670  67.598  1.00  0.00    -0.275 A  
HETATM   17  C   UNL     1     -10.576  14.691  66.606  1.00  0.00    -0.289 A  
ENDROOT
BRANCH   5  18
HETATM   18  C   UNL     1      -9.201  12.723  67.157  1.00  0.00    -0.219 C  
HETATM   19  C   UNL     1      -8.064  12.406  67.393  1.00  0.00    -0.177 C  
BRANCH  19  20
HETATM   20  C   UNL     1      -6.706  12.070  67.687  1.00  0.00    -0.109 C  
HETATM   21  C   UNL     1      -5.672  13.169  67.690  1.00  0.00    -0.103 C  
HETATM   22  C   UNL     1      -6.101  12.546  68.986  1.00  0.00    -0.081 C  
ENDBRANCH  19  20
ENDBRANCH   5  18
TORSDOF 2
ENDMDL
MODEL       40
REMARK 921   NORMALIZED FREE ENERGY PREDICTED BY IDOCK:   -5.16 KCAL/MOL
REMARK 922        TOTAL FREE ENERGY PREDICTED BY IDOCK:   -6.21 KCAL/MOL
REMARK 923 INTER-LIGAND FREE ENERGY PREDICTED BY IDOCK:   -5.79 KCAL/MOL
REMARK 924 INTRA-LIGAND FREE ENERGY PREDICTED BY IDOCK:   -0.42 KCAL/MOL
REMARK 927      BINDING AFFINITY PREDICTED BY RF-SCORE:    0.00 PKD
ROOT
HETATM    1  F   UNL     1     -11.051  13.969  69.559  1.00  0.00    -0.259 F  
HETATM    2  C   UNL     1     -11.231  14.136  68.223  1.00  0.00    -0.272 C  
HETATM    3  F   UNL     1     -11.796  15.360  68.061  1.00  0.00    -0.346 F  
HETATM    4  F   UNL     1     -12.181  13.233  67.865  1.00  0.00    -0.363 F  
HETATM    5  C   UNL     1      -9.893  13.972  67.414  1.00  0.00    -0.240 C  
HETATM    6  O   UNL     1      -8.881  13.557  68.374  1.00  0.00    -0.182 OA 
HETATM    7  C   UNL     1      -9.171  11.049  65.075  1.00  0.00    -0.219 A  
HETATM    8  C   UNL     1      -7.840  12.768  68.044  1.00  0.00    -0.150 C  
HETATM    9 CL   UNL     1     -12.524  12.153  63.218  1.00  0.00    -0.620 Cl 
HETATM   10  C   UNL     1     -10.250  11.084  64.195  1.00  0.00    -0.419 A  
HETATM   11  N   UNL     1      -7.984  11.983  66.942  1.00  0.00    -0.287 N  
HETATM   12  O   UNL     1      -6.834  12.697  68.741  1.00  0.00    -0.087 OA 
HETATM   13  C   UNL     1     -11.203  12.092  64.317  1.00  0.00    -0.347 A  
HETATM   14  C   UNL     1      -9.074  12.002  66.091  1.00  0.00    -0.129 A  
HETATM   15  H   UNL     1      -7.231  11.329  66.727  1.00  0.00     0.000 HD 
HETATM   16  C   UNL     1     -11.096  13.049  65.328  1.00  0.00    -0.311 A  
HETATM   17  C   UNL     1     -10.041  12.990  66.259  1.00  0.00    -0.283 A  
ENDROOT
BRANCH   5  18
HETATM   18  C   UNL     1      -9.428  15.287  66.899  1.00  0.00    -0.249 C  
HETATM   19  C   UNL     1      -9.094  16.384  66.531  1.00  0.00    -0.308 C  
BRANCH  19  20
HETATM   20  C   UNL     1      -8.726  17.704  66.125  1.00  0.00    -0.141 C  
HETATM   21  C   UNL     1      -8.250  18.679  67.174  1.00  0.00    -0.258 C  
HETATM   22  C   UNL     1      -7.273  18.110  66.188  1.00  0.00    -0.316 C  
ENDBRANCH  19  20
ENDBRANCH   5  18
TORSDOF 2
ENDMDL
MODEL       41
REMARK 921   NORMALIZED FREE ENERGY PREDICTED BY IDOCK:   -5.15 KCAL/MOL
REMARK 922        TOTAL FREE ENERGY PREDICTED BY IDOCK:   -6.20 KCAL/MOL
REMARK 923 INTER-LIGAND FREE ENERGY PREDICTED BY IDOCK:   -5.75 KCAL/MOL
REMARK 924 INTRA-LIGAND FREE ENERGY PREDICTED BY IDOCK:   -0.45 KCAL/MOL
REMARK 927      BINDING AFFINITY PREDICTED BY RF-SCORE:    0.00 PKD
ROOT
HETATM    1  F   UNL     1     -12.231  14.016  66.073  1.00  0.00    -0.375 F  
HETATM    2  C   UNL     1     -11.400  14.543  67.011  1.00  0.00    -0.349 C  
HETATM    3  F   UNL     1     -12.033  15.632  67.515  1.00  0.00    -0.157 F  
HETATM    4  F   UNL     1     -10.327  15.014  66.326  1.00  0.00    -0.264 F  
HETATM    5  C   UNL     1     -11.012  13.497  68.119  1.00  0.00    -0.254 C  
HETATM    6  O   UNL     1     -11.583  12.225  67.704  1.00  0.00    -0.319 OA 
HETATM    7  C   UNL     1      -7.515  12.032  68.520  1.00  0.00    -0.117 A  
HETATM    8  C   UNL     1     -11.020  11.038  68.001  1.00  0.00    -0.258 C  
HETATM    9 CL   UNL     1      -6.331  15.829  68.826  1.00  0.00    -0.107 Cl 
HETATM   10  C   UNL     1      -6.716  13.167  68.644  1.00  0.00    -0.096 A  
HETATM   11  N   UNL     1      -9.688  11.039  68.279  1.00  0.00    -0.170 N  
HETATM   12  O   UNL     1     -11.653   9.990  67.951  1.00  0.00    -0.161 OA 
HETATM   13  C   UNL     1      -7.310  14.426  68.651  1.00  0.00    -0.123 A  
HETATM   14  C   UNL     1      -8.896  12.169  68.369  1.00  0.00    -0.143 A  
HETATM   15  H   UNL     1      -9.238  10.136  68.434  1.00  0.00     0.000 HD 
HETATM   16  C   UNL     1      -8.693  14.558  68.510  1.00  0.00    -0.177 A  
HETATM   17  C   UNL     1      -9.504  13.422  68.327  1.00  0.00    -0.209 A  
ENDROOT
BRANCH   5  18
HETATM   18  C   UNL     1     -11.680  13.826  69.406  1.00  0.00    -0.379 C  
HETATM   19  C   UNL     1     -12.162  14.070  70.482  1.00  0.00    -0.435 C  
BRANCH  19  20
HETATM   20  C   UNL     1     -12.697  14.343  71.779  1.00  0.00    -0.427 C  
HETATM   21  C   UNL     1     -13.770  15.395  71.914  1.00  0.00    -0.603 C  
HETATM   22  C   UNL     1     -14.122  13.946  72.081  1.00  0.00    -0.630 C  
ENDBRANCH  19  20
ENDBRANCH   5  18
TORSDOF 2
ENDMDL
MODEL       42
REMARK 921   NORMALIZED FREE ENERGY PREDICTED BY IDOCK:   -5.14 KCAL/MOL
REMARK 922        TOTAL FREE ENERGY PREDICTED BY IDOCK:   -6.19 KCAL/MOL
REMARK 923 INTER-LIGAND FREE ENERGY PREDICTED BY IDOCK:   -5.76 KCAL/MOL
REMARK 924 INTRA-LIGAND FREE ENERGY PREDICTED BY IDOCK:   -0.43 KCAL/MOL
REMARK 927      BINDING AFFINITY PREDICTED BY RF-SCORE:    0.00 PKD
ROOT
HETATM    1  F   UNL     1      -7.722  11.418  68.821  1.00  0.00    -0.116 F  
HETATM    2  C   UNL     1      -8.131  10.759  67.705  1.00  0.00    -0.114 C  
HETATM    3  F   UNL     1      -7.538   9.538  67.741  1.00  0.00    -0.085 F  
HETATM    4  F   UNL     1      -7.567  11.420  66.661  1.00  0.00    -0.136 F  
HETATM    5  C   UNL     1      -9.697  10.671  67.603  1.00  0.00    -0.165 C  
HETATM    6  O   UNL     1     -10.226  11.459  68.706  1.00  0.00    -0.203 OA 
HETATM    7  C   UNL     1     -11.761  12.547  65.003  1.00  0.00    -0.407 A  
HETATM    8  C   UNL     1     -11.400  12.116  68.640  1.00  0.00    -0.280 C  
HETATM    9 CL   UNL     1      -9.460  10.681  62.331  1.00  0.00    -0.263 Cl 
HETATM   10  C   UNL     1     -11.188  12.138  63.800  1.00  0.00    -0.509 A  
HETATM   11  N   UNL     1     -11.864  12.428  67.399  1.00  0.00    -0.346 N  
HETATM   12  O   UNL     1     -11.994  12.486  69.646  1.00  0.00    -0.303 OA 
HETATM   13  C   UNL     1     -10.155  11.205  63.814  1.00  0.00    -0.361 A  
HETATM   14  C   UNL     1     -11.271  12.045  66.209  1.00  0.00    -0.342 A  
HETATM   15  H   UNL     1     -12.715  12.989  67.341  1.00  0.00     0.000 HD 
HETATM   16  C   UNL     1      -9.675  10.698  65.024  1.00  0.00    -0.336 A  
HETATM   17  C   UNL     1     -10.207  11.147  66.248  1.00  0.00    -0.286 A  
ENDROOT
BRANCH   5  18
HETATM   18  C   UNL     1     -10.161   9.282  67.855  1.00  0.00    -0.263 C  
HETATM   19  C   UNL     1     -10.469   8.135  68.053  1.00  0.00    -0.242 C  
BRANCH  19  20
HETATM   20  C   UNL     1     -10.790   6.761  68.283  1.00  0.00    -0.290 C  
HETATM   21  C   UNL     1      -9.893   5.947  69.183  1.00  0.00    -0.199 C  
HETATM   22  C   UNL     1     -11.263   6.340  69.654  1.00  0.00    -0.506 C  
ENDBRANCH  19  20
ENDBRANCH   5  18
TORSDOF 2
ENDMDL
MODEL       43
REMARK 921   NORMALIZED FREE ENERGY PREDICTED BY IDOCK:   -5.05 KCAL/MOL
REMARK 922        TOTAL FREE ENERGY PREDICTED BY IDOCK:   -6.09 KCAL/MOL
REMARK 923 INTER-LIGAND FREE ENERGY PREDICTED BY IDOCK:   -5.65 KCAL/MOL
REMARK 924 INTRA-LIGAND FREE ENERGY PREDICTED BY IDOCK:   -0.44 KCAL/MOL
REMARK 927      BINDING AFFINITY PREDICTED BY RF-SCORE:    0.00 PKD
ROOT
HETATM    1  F   UNL     1     -13.219  14.165  69.507  1.00  0.00     0.143 F  
HETATM    2  C   UNL     1     -11.867  14.031  69.547  1.00  0.00    -0.325 C  
HETATM    3  F   UNL     1     -11.600  13.120  70.517  1.00  0.00    -0.282 F  
HETATM    4  F   UNL     1     -11.394  15.219  70.006  1.00  0.00    -0.226 F  
HETATM    5  C   UNL     1     -11.266  13.628  68.151  1.00  0.00    -0.275 C  
HETATM    6  O   UNL     1     -12.371  13.651  67.205  1.00  0.00    -0.336 OA 
HETATM    7  C   UNL     1      -9.117  15.946  66.018  1.00  0.00    -0.363 A  
HETATM    8  C   UNL     1     -12.213  13.958  65.903  1.00  0.00    -0.467 C  
HETATM    9 CL   UNL     1      -6.770  16.169  69.236  1.00  0.00    -0.186 Cl 
HETATM   10  C   UNL     1      -8.089  16.302  66.889  1.00  0.00    -0.270 A  
HETATM   11  N   UNL     1     -11.118  14.695  65.570  1.00  0.00    -0.331 N  
HETATM   12  O   UNL     1     -13.050  13.658  65.060  1.00  0.00    -0.742 OA 
HETATM   13  C   UNL     1      -8.050  15.751  68.167  1.00  0.00    -0.140 A  
HETATM   14  C   UNL     1     -10.117  15.071  66.448  1.00  0.00    -0.276 A  
HETATM   15  H   UNL     1     -11.028  14.994  64.599  1.00  0.00     0.000 HD 
HETATM   16  C   UNL     1      -9.047  14.868  68.588  1.00  0.00    -0.185 A  
HETATM   17  C   UNL     1     -10.122  14.546  67.738  1.00  0.00    -0.225 A  
ENDROOT
BRANCH   5  18
HETATM   18  C   UNL     1     -10.797  12.217  68.171  1.00  0.00    -0.258 C  
HETATM   19  C   UNL     1     -10.356  11.098  68.219  1.00  0.00    -0.198 C  
BRANCH  19  20
HETATM   20  C   UNL     1      -9.794   9.786  68.293  1.00  0.00    -0.167 C  
HETATM   21  C   UNL     1     -10.507   8.738  69.112  1.00  0.00    -0.230 C  
HETATM   22  C   UNL     1     -10.512   8.644  67.614  1.00  0.00    -0.311 C  
ENDBRANCH  19  20
ENDBRANCH   5  18
TORSDOF 2
ENDMDL
MODEL       44
REMARK 921   NORMALIZED FREE ENERGY PREDICTED BY IDOCK:   -5.05 KCAL/MOL
REMARK 922        TOTAL FREE ENERGY PREDICTED BY IDOCK:   -6.09 KCAL/MOL
REMARK 923 INTER-LIGAND FREE ENERGY PREDICTED BY IDOCK:   -5.65 KCAL/MOL
REMARK 924 INTRA-LIGAND FREE ENERGY PREDICTED BY IDOCK:   -0.44 KCAL/MOL
REMARK 927      BINDING AFFINITY PREDICTED BY RF-SCORE:    0.00 PKD
ROOT
HETATM    1  F   UNL     1     -10.734  10.607  65.807  1.00  0.00    -0.287 F  
HETATM    2  C   UNL     1     -10.322  10.241  67.049  1.00  0.00    -0.243 C  
HETATM    3  F   UNL     1      -9.100   9.671  66.896  1.00  0.00    -0.140 F  
HETATM    4  F   UNL     1     -11.158   9.241  67.433  1.00  0.00    -0.319 F  
HETATM    5  C   UNL     1     -10.308  11.450  68.054  1.00  0.00    -0.184 C  
HETATM    6  O   UNL     1     -10.879  12.583  67.343  1.00  0.00    -0.230 OA 
HETATM    7  C   UNL     1     -12.728  11.804  70.980  1.00  0.00    -0.372 A  
HETATM    8  C   UNL     1     -11.575  13.559  67.958  1.00  0.00    -0.337 C  
HETATM    9 CL   UNL     1     -11.351   8.232  72.105  1.00  0.00    -0.388 Cl 
HETATM   10  C   UNL     1     -12.546  10.611  71.677  1.00  0.00    -0.482 A  
HETATM   11  N   UNL     1     -12.142  13.252  69.157  1.00  0.00    -0.284 N  
HETATM   12  O   UNL     1     -11.758  14.652  67.436  1.00  0.00    -0.379 OA 
HETATM   13  C   UNL     1     -11.595   9.695  71.235  1.00  0.00    -0.393 A  
HETATM   14  C   UNL     1     -11.981  12.052  69.827  1.00  0.00    -0.300 A  
HETATM   15  H   UNL     1     -12.730  13.961  69.595  1.00  0.00     0.000 HD 
HETATM   16  C   UNL     1     -10.844   9.954  70.086  1.00  0.00    -0.356 A  
HETATM   17  C   UNL     1     -11.059  11.129  69.342  1.00  0.00    -0.314 A  
ENDROOT
BRANCH   5  18
HETATM   18  C   UNL     1      -8.912  11.850  68.373  1.00  0.00    -0.163 C  
HETATM   19  C   UNL     1      -7.784  12.218  68.574  1.00  0.00    -0.118 C  
BRANCH  19  20
HETATM   20  C   UNL     1      -6.447  12.683  68.777  1.00  0.00    -0.085 C  
HETATM   21  C   UNL     1      -6.233  13.961  69.549  1.00  0.00    -0.115 C  
HETATM   22  C   UNL     1      -5.863  12.645  70.168  1.00  0.00    -0.158 C  
ENDBRANCH  19  20
ENDBRANCH   5  18
TORSDOF 2
ENDMDL
MODEL       45
REMARK 921   NORMALIZED FREE ENERGY PREDICTED BY IDOCK:   -5.03 KCAL/MOL
REMARK 922        TOTAL FREE ENERGY PREDICTED BY IDOCK:   -6.07 KCAL/MOL
REMARK 923 INTER-LIGAND FREE ENERGY PREDICTED BY IDOCK:   -5.61 KCAL/MOL
REMARK 924 INTRA-LIGAND FREE ENERGY PREDICTED BY IDOCK:   -0.46 KCAL/MOL
REMARK 927      BINDING AFFINITY PREDICTED BY RF-SCORE:    0.00 PKD
ROOT
HETATM    1  F   UNL     1     -12.762  14.600  66.499  1.00  0.00    -0.283 F  
HETATM    2  C   UNL     1     -11.602  14.007  66.112  1.00  0.00    -0.367 C  
HETATM    3  F   UNL     1     -10.828  14.986  65.581  1.00  0.00    -0.296 F  
HETATM    4  F   UNL     1     -11.936  13.189  65.080  1.00  0.00    -0.343 F  
HETATM    5  C   UNL     1     -10.897  13.247  67.295  1.00  0.00    -0.264 C  
HETATM    6  O   UNL     1     -11.805  13.320  68.430  1.00  0.00    -0.336 OA 
HETATM    7  C   UNL     1     -10.609   9.451  67.505  1.00  0.00    -0.333 A  
HETATM    8  C   UNL     1     -11.880  12.358  69.370  1.00  0.00    -0.304 C  
HETATM    9 CL   UNL     1      -8.830   9.732  63.946  1.00  0.00    -0.237 Cl 
HETATM   10  C   UNL     1      -9.991   9.121  66.300  1.00  0.00    -0.352 A  
HETATM   11  N   UNL     1     -11.455  11.114  69.016  1.00  0.00    -0.267 N  
HETATM   12  O   UNL     1     -12.377  12.565  70.470  1.00  0.00    -0.332 OA 
HETATM   13  C   UNL     1      -9.612  10.134  65.423  1.00  0.00    -0.264 A  
HETATM   14  C   UNL     1     -10.873  10.789  67.804  1.00  0.00    -0.269 A  
HETATM   15  H   UNL     1     -11.576  10.364  69.696  1.00  0.00     0.000 HD 
HETATM   16  C   UNL     1      -9.869  11.471  65.732  1.00  0.00    -0.266 A  
HETATM   17  C   UNL     1     -10.544  11.813  66.920  1.00  0.00    -0.270 A  
ENDROOT
BRANCH   5  18
HETATM   18  C   UNL     1      -9.672  13.971  67.725  1.00  0.00    -0.228 C  
HETATM   19  C   UNL     1      -8.660  14.498  68.109  1.00  0.00    -0.169 C  
BRANCH  19  20
HETATM   20  C   UNL     1      -7.448  15.085  68.587  1.00  0.00    -0.122 C  
HETATM   21  C   UNL     1      -6.138  14.412  68.260  1.00  0.00    -0.119 C  
HETATM   22  C   UNL     1      -6.495  15.708  67.594  1.00  0.00    -0.191 C  
ENDBRANCH  19  20
ENDBRANCH   5  18
TORSDOF 2
ENDMDL
MODEL       46
REMARK 921   NORMALIZED FREE ENERGY PREDICTED BY IDOCK:   -5.02 KCAL/MOL
REMARK 922        TOTAL FREE ENERGY PREDICTED BY IDOCK:   -6.06 KCAL/MOL
REMARK 923 INTER-LIGAND FREE ENERGY PREDICTED BY IDOCK:   -5.61 KCAL/MOL
REMARK 924 INTRA-LIGAND FREE ENERGY PREDICTED BY IDOCK:   -0.45 KCAL/MOL
REMARK 927      BINDING AFFINITY PREDICTED BY RF-SCORE:    0.00 PKD
ROOT
HETATM    1  F   UNL     1     -11.174   6.641  68.396  1.00  0.00    -0.288 F  
HETATM    2  C   UNL     1     -10.329   7.492  69.037  1.00  0.00    -0.212 C  
HETATM    3  F   UNL     1      -9.901   8.381  68.105  1.00  0.00    -0.159 F  
HETATM    4  F   UNL     1      -9.245   6.747  69.373  1.00  0.00    -0.141 F  
HETATM    5  C   UNL     1     -11.007   8.185  70.275  1.00  0.00    -0.240 C  
HETATM    6  O   UNL     1     -12.322   7.581  70.417  1.00  0.00     0.045 OA 
HETATM    7  C   UNL     1     -10.055   7.462  73.895  1.00  0.00    -0.245 A  
HETATM    8  C   UNL     1     -12.937   7.436  71.607  1.00  0.00    -0.366 C  
HETATM    9 CL   UNL     1      -6.369   8.495  72.773  1.00  0.00    -0.098 Cl 
HETATM   10  C   UNL     1      -8.683   7.710  73.909  1.00  0.00    -0.302 A  
HETATM   11  N   UNL     1     -12.145   7.424  72.714  1.00  0.00    -0.541 N  
HETATM   12  O   UNL     1     -14.144   7.247  71.694  1.00  0.00    -0.412 OA 
HETATM   13  C   UNL     1      -8.057   8.166  72.753  1.00  0.00    -0.165 A  
HETATM   14  C   UNL     1     -10.778   7.640  72.715  1.00  0.00    -0.345 A  
HETATM   15  H   UNL     1     -12.593   7.243  73.612  1.00  0.00     0.000 HD 
HETATM   16  C   UNL     1      -8.787   8.352  71.578  1.00  0.00    -0.239 A  
HETATM   17  C   UNL     1     -10.162   8.051  71.536  1.00  0.00    -0.243 A  
ENDROOT
BRANCH   5  18
HETATM   18  C   UNL     1     -11.264   9.622  69.993  1.00  0.00    -0.271 C  
HETATM   19  C   UNL     1     -11.518  10.765  69.713  1.00  0.00    -0.386 C  
BRANCH  19  20
HETATM   20  C   UNL     1     -11.847  12.107  69.347  1.00  0.00    -0.370 C  
HETATM   21  C   UNL     1     -10.761  12.992  68.785  1.00  0.00    -0.250 C  
HETATM   22  C   UNL     1     -11.852  12.487  67.886  1.00  0.00    -0.383 C  
ENDBRANCH  19  20
ENDBRANCH   5  18
TORSDOF 2
ENDMDL
MODEL       47
REMARK 921   NORMALIZED FREE ENERGY PREDICTED BY IDOCK:   -4.98 KCAL/MOL
REMARK 922        TOTAL FREE ENERGY PREDICTED BY IDOCK:   -6.02 KCAL/MOL
REMARK 923 INTER-LIGAND FREE ENERGY PREDICTED BY IDOCK:   -5.57 KCAL/MOL
REMARK 924 INTRA-LIGAND FREE ENERGY PREDICTED BY IDOCK:   -0.44 KCAL/MOL
REMARK 927      BINDING AFFINITY PREDICTED BY RF-SCORE:    0.00 PKD
ROOT
HETATM    1  F   UNL     1     -10.325   9.853  65.975  1.00  0.00    -0.317 F  
HETATM    2  C   UNL     1     -10.011   9.590  67.271  1.00  0.00    -0.189 C  
HETATM    3  F   UNL     1      -8.797   8.983  67.256  1.00  0.00    -0.116 F  
HETATM    4  F   UNL     1     -10.899   8.646  67.679  1.00  0.00    -0.301 F  
HETATM    5  C   UNL     1     -10.034  10.883  68.165  1.00  0.00    -0.174 C  
HETATM    6  O   UNL     1     -10.522  11.960  67.319  1.00  0.00    -0.215 OA 
HETATM    7  C   UNL     1     -12.641  11.546  70.868  1.00  0.00    -0.438 A  
HETATM    8  C   UNL     1     -11.232  13.002  67.795  1.00  0.00    -0.279 C  
HETATM    9 CL   UNL     1     -11.446   8.060  72.395  1.00  0.00    -0.419 Cl 
HETATM   10  C   UNL     1     -12.542  10.416  71.677  1.00  0.00    -0.521 A  
HETATM   11  N   UNL     1     -11.889  12.814  68.972  1.00  0.00    -0.305 N  
HETATM   12  O   UNL     1     -11.348  14.048  67.168  1.00  0.00    -0.305 OA 
HETATM   13  C   UNL     1     -11.588   9.445  71.385  1.00  0.00    -0.381 A  
HETATM   14  C   UNL     1     -11.810  11.676  69.754  1.00  0.00    -0.357 A  
HETATM   15  H   UNL     1     -12.487  13.572  69.303  1.00  0.00     0.000 HD 
HETATM   16  C   UNL     1     -10.751   9.584  70.276  1.00  0.00    -0.315 A  
HETATM   17  C   UNL     1     -10.881  10.693  69.418  1.00  0.00    -0.289 A  
ENDROOT
BRANCH   5  18
HETATM   18  C   UNL     1      -8.653  11.279  68.547  1.00  0.00    -0.156 C  
HETATM   19  C   UNL     1      -7.512  11.538  68.829  1.00  0.00    -0.119 C  
BRANCH  19  20
HETATM   20  C   UNL     1      -6.144  11.805  69.148  1.00  0.00    -0.076 C  
HETATM   21  C   UNL     1      -5.834  12.813  70.227  1.00  0.00    -0.157 C  
HETATM   22  C   UNL     1      -5.602  11.352  70.483  1.00  0.00    -0.145 C  
ENDBRANCH  19  20
ENDBRANCH   5  18
TORSDOF 2
ENDMDL
MODEL       48
REMARK 921   NORMALIZED FREE ENERGY PREDICTED BY IDOCK:   -4.96 KCAL/MOL
REMARK 922        TOTAL FREE ENERGY PREDICTED BY IDOCK:   -5.99 KCAL/MOL
REMARK 923 INTER-LIGAND FREE ENERGY PREDICTED BY IDOCK:   -5.54 KCAL/MOL
REMARK 924 INTRA-LIGAND FREE ENERGY PREDICTED BY IDOCK:   -0.45 KCAL/MOL
REMARK 927      BINDING AFFINITY PREDICTED BY RF-SCORE:    0.00 PKD
ROOT
HETATM    1  F   UNL     1      -6.972  12.564  67.172  1.00  0.00    -0.143 F  
HETATM    2  C   UNL     1      -8.243  13.014  67.341  1.00  0.00    -0.183 C  
HETATM    3  F   UNL     1      -8.411  14.030  66.456  1.00  0.00    -0.141 F  
HETATM    4  F   UNL     1      -8.271  13.581  68.574  1.00  0.00    -0.145 F  
HETATM    5  C   UNL     1      -9.310  11.872  67.165  1.00  0.00    -0.180 C  
HETATM    6  O   UNL     1      -8.563  10.634  66.997  1.00  0.00    -0.127 OA 
HETATM    7  C   UNL     1     -11.402  10.466  70.026  1.00  0.00    -0.384 A  
HETATM    8  C   UNL     1      -9.027   9.438  67.408  1.00  0.00    -0.124 C  
HETATM    9 CL   UNL     1     -12.565  14.242  70.576  1.00  0.00    -0.408 Cl 
HETATM   10  C   UNL     1     -12.013  11.603  70.550  1.00  0.00    -0.413 A  
HETATM   11  N   UNL     1      -9.971   9.446  68.389  1.00  0.00    -0.164 N  
HETATM   12  O   UNL     1      -8.573   8.385  66.979  1.00  0.00    -0.119 OA 
HETATM   13  C   UNL     1     -11.794  12.839  69.947  1.00  0.00    -0.301 A  
HETATM   14  C   UNL     1     -10.550  10.582  68.926  1.00  0.00    -0.216 A  
HETATM   15  H   UNL     1     -10.275   8.544  68.757  1.00  0.00     0.000 HD 
HETATM   16  C   UNL     1     -10.949  12.948  68.840  1.00  0.00    -0.271 A  
HETATM   17  C   UNL     1     -10.281  11.815  68.338  1.00  0.00    -0.208 A  
ENDROOT
BRANCH   5  18
HETATM   18  C   UNL     1     -10.063  12.050  65.896  1.00  0.00    -0.264 C  
HETATM   19  C   UNL     1     -10.628  12.148  64.837  1.00  0.00    -0.332 C  
BRANCH  19  20
HETATM   20  C   UNL     1     -11.267  12.237  63.562  1.00  0.00    -0.535 C  
HETATM   21  C   UNL     1     -12.756  12.008  63.480  1.00  0.00    -0.567 C  
HETATM   22  C   UNL     1     -12.203  13.390  63.291  1.00  0.00    -0.314 C  
ENDBRANCH  19  20
ENDBRANCH   5  18
TORSDOF 2
ENDMDL
MODEL       49
REMARK 921   NORMALIZED FREE ENERGY PREDICTED BY IDOCK:   -4.92 KCAL/MOL
REMARK 922        TOTAL FREE ENERGY PREDICTED BY IDOCK:   -5.94 KCAL/MOL
REMARK 923 INTER-LIGAND FREE ENERGY PREDICTED BY IDOCK:   -5.51 KCAL/MOL
REMARK 924 INTRA-LIGAND FREE ENERGY PREDICTED BY IDOCK:   -0.44 KCAL/MOL
REMARK 927      BINDING AFFINITY PREDICTED BY RF-SCORE:    0.00 PKD
ROOT
HETATM    1  F   UNL     1      -6.990  11.833  66.784  1.00  0.00    -0.134 F  
HETATM    2  C   UNL     1      -8.176  11.749  67.442  1.00  0.00    -0.160 C  
HETATM    3  F   UNL     1      -8.650  13.017  67.541  1.00  0.00    -0.152 F  
HETATM    4  F   UNL     1      -7.867  11.362  68.706  1.00  0.00    -0.121 F  
HETATM    5  C   UNL     1      -9.185  10.776  66.730  1.00  0.00    -0.157 C  
HETATM    6  O   UNL     1      -8.458  10.161  65.630  1.00  0.00    -0.142 OA 
HETATM    7  C   UNL     1     -10.262   7.413  68.169  1.00  0.00    -0.223 A  
HETATM    8  C   UNL     1      -8.716   8.915  65.186  1.00  0.00    -0.178 C  
HETATM    9 CL   UNL     1     -11.407   9.530  71.351  1.00  0.00    -0.447 Cl 
HETATM   10  C   UNL     1     -10.750   7.758  69.428  1.00  0.00    -0.177 A  
HETATM   11  N   UNL     1      -9.327   8.065  66.056  1.00  0.00    -0.378 N  
HETATM   12  O   UNL     1      -8.355   8.533  64.080  1.00  0.00    -0.157 OA 
HETATM   13  C   UNL     1     -10.784   9.097  69.808  1.00  0.00    -0.228 A  
HETATM   14  C   UNL     1      -9.780   8.408  67.317  1.00  0.00    -0.184 A  
HETATM   15  H   UNL     1      -9.461   7.099  65.754  1.00  0.00     0.000 HD 
HETATM   16  C   UNL     1     -10.311  10.090  68.947  1.00  0.00    -0.217 A  
HETATM   17  C   UNL     1      -9.762   9.748  67.696  1.00  0.00    -0.186 A  
ENDROOT
BRANCH   5  18
HETATM   18  C   UNL     1     -10.288  11.541  66.091  1.00  0.00    -0.287 C  
HETATM   19  C   UNL     1     -11.189  12.107  65.527  1.00  0.00    -0.381 C  
BRANCH  19  20
HETATM   20  C   UNL     1     -12.260  12.744  64.827  1.00  0.00    -0.517 C  
HETATM   21  C   UNL     1     -12.040  14.129  64.271  1.00  0.00    -0.471 C  
HETATM   22  C   UNL     1     -12.136  12.958  63.338  1.00  0.00    -0.610 C  
ENDBRANCH  19  20
ENDBRANCH   5  18
TORSDOF 2
ENDMDL
MODEL       50
REMARK 921   NORMALIZED FREE ENERGY PREDICTED BY IDOCK:   -4.91 KCAL/MOL
REMARK 922        TOTAL FREE ENERGY PREDICTED BY IDOCK:   -5.93 KCAL/MOL
REMARK 923 INTER-LIGAND FREE ENERGY PREDICTED BY IDOCK:   -5.49 KCAL/MOL
REMARK 924 INTRA-LIGAND FREE ENERGY PREDICTED BY IDOCK:   -0.44 KCAL/MOL
REMARK 927      BINDING AFFINITY PREDICTED BY RF-SCORE:    0.00 PKD
ROOT
HETATM    1  F   UNL     1     -12.378  13.091  66.384  1.00  0.00    -0.445 F  
HETATM    2  C   UNL     1     -11.558  13.408  67.420  1.00  0.00    -0.354 C  
HETATM    3  F   UNL     1     -12.363  13.790  68.444  1.00  0.00    -0.392 F  
HETATM    4  F   UNL     1     -10.890  14.524  67.031  1.00  0.00    -0.279 F  
HETATM    5  C   UNL     1     -10.601  12.222  67.808  1.00  0.00    -0.219 C  
HETATM    6  O   UNL     1     -10.820  11.176  66.821  1.00  0.00    -0.264 OA 
HETATM    7  C   UNL     1      -6.832  12.264  67.234  1.00  0.00    -0.140 A  
HETATM    8  C   UNL     1      -9.854  10.321  66.434  1.00  0.00    -0.217 C  
HETATM    9 CL   UNL     1      -6.883  15.608  69.409  1.00  0.00    -0.174 Cl 
HETATM   10  C   UNL     1      -6.432  13.425  67.892  1.00  0.00    -0.151 A  
HETATM   11  N   UNL     1      -8.565  10.723  66.612  1.00  0.00    -0.139 N  
HETATM   12  O   UNL     1     -10.112   9.261  65.878  1.00  0.00    -0.293 OA 
HETATM   13  C   UNL     1      -7.376  14.186  68.576  1.00  0.00    -0.120 A  
HETATM   14  C   UNL     1      -8.178  11.894  67.238  1.00  0.00    -0.170 A  
HETATM   15  H   UNL     1      -7.829  10.114  66.256  1.00  0.00     0.000 HD 
HETATM   16  C   UNL     1      -8.720  13.806  68.587  1.00  0.00    -0.051 A  
HETATM   17  C   UNL     1      -9.145  12.666  67.878  1.00  0.00    -0.200 A  
ENDROOT
BRANCH   5  18
HETATM   18  C   UNL     1     -11.008  11.625  69.108  1.00  0.00    -0.270 C  
HETATM   19  C   UNL     1     -11.362  11.085  70.124  1.00  0.00    -0.335 C  
BRANCH  19  20
HETATM   20  C   UNL     1     -11.799  10.409  71.305  1.00  0.00    -0.381 C  
HETATM   21  C   UNL     1     -13.047  10.895  71.999  1.00  0.00    -0.462 C  
HETATM   22  C   UNL     1     -13.068   9.593  71.254  1.00  0.00    -0.437 C  
ENDBRANCH  19  20
ENDBRANCH   5  18
TORSDOF 2
ENDMDL
MODEL       51
REMARK 921   NORMALIZED FREE ENERGY PREDICTED BY IDOCK:   -4.89 KCAL/MOL
REMARK 922        TOTAL FREE ENERGY PREDICTED BY IDOCK:   -5.91 KCAL/MOL
REMARK 923 INTER-LIGAND FREE ENERGY PREDICTED BY IDOCK:   -5.46 KCAL/MOL
REMARK 924 INTRA-LIGAND FREE ENERGY PREDICTED BY IDOCK:   -0.45 KCAL/MOL
REMARK 927      BINDING AFFINITY PREDICTED BY RF-SCORE:    0.00 PKD
ROOT
HETATM    1  F   UNL     1      -8.967  15.836  65.760  1.00  0.00    -0.356 F  
HETATM    2  C   UNL     1      -9.101  14.904  66.739  1.00  0.00    -0.270 C  
HETATM    3  F   UNL     1      -8.060  14.044  66.595  1.00  0.00    -0.081 F  
HETATM    4  F   UNL     1     -10.218  14.199  66.425  1.00  0.00    -0.265 F  
HETATM    5  C   UNL     1      -9.163  15.548  68.172  1.00  0.00    -0.189 C  
HETATM    6  O   UNL     1      -9.186  16.990  67.975  1.00  0.00    -0.231 OA 
HETATM    7  C   UNL     1     -12.296  15.589  70.345  1.00  0.00    -0.451 A  
HETATM    8  C   UNL     1      -9.814  17.834  68.816  1.00  0.00    -0.343 C  
HETATM    9 CL   UNL     1     -12.226  11.623  69.919  1.00  0.00    -0.333 Cl 
HETATM   10  C   UNL     1     -12.637  14.239  70.420  1.00  0.00    -0.405 A  
HETATM   11  N   UNL     1     -10.811  17.314  69.582  1.00  0.00    -0.276 N  
HETATM   12  O   UNL     1      -9.557  19.032  68.843  1.00  0.00    -0.376 OA 
HETATM   13  C   UNL     1     -11.822  13.291  69.809  1.00  0.00    -0.325 A  
HETATM   14  C   UNL     1     -11.164  15.978  69.627  1.00  0.00    -0.336 A  
HETATM   15  H   UNL     1     -11.340  17.961  70.168  1.00  0.00     0.000 HD 
HETATM   16  C   UNL     1     -10.684  13.684  69.101  1.00  0.00    -0.137 A  
HETATM   17  C   UNL     1     -10.362  15.048  68.969  1.00  0.00    -0.243 A  
ENDROOT
BRANCH   5  18
HETATM   18  C   UNL     1      -7.910  15.276  68.924  1.00  0.00    -0.165 C  
HETATM   19  C   UNL     1      -6.893  14.989  69.501  1.00  0.00    -0.174 C  
BRANCH  19  20
HETATM   20  C   UNL     1      -5.687  14.609  70.168  1.00  0.00    -0.129 C  
HETATM   21  C   UNL     1      -5.778  14.047  71.565  1.00  0.00    -0.226 C  
HETATM   22  C   UNL     1      -5.422  13.144  70.420  1.00  0.00    -0.145 C  
ENDBRANCH  19  20
ENDBRANCH   5  18
TORSDOF 2
ENDMDL
MODEL       52
REMARK 921   NORMALIZED FREE ENERGY PREDICTED BY IDOCK:   -4.89 KCAL/MOL
REMARK 922        TOTAL FREE ENERGY PREDICTED BY IDOCK:   -5.91 KCAL/MOL
REMARK 923 INTER-LIGAND FREE ENERGY PREDICTED BY IDOCK:   -5.47 KCAL/MOL
REMARK 924 INTRA-LIGAND FREE ENERGY PREDICTED BY IDOCK:   -0.44 KCAL/MOL
REMARK 927      BINDING AFFINITY PREDICTED BY RF-SCORE:    0.00 PKD
ROOT
HETATM    1  F   UNL     1      -6.846  10.724  66.358  1.00  0.00    -0.102 F  
HETATM    2  C   UNL     1      -8.192  10.656  66.183  1.00  0.00    -0.156 C  
HETATM    3  F   UNL     1      -8.562   9.399  66.537  1.00  0.00    -0.126 F  
HETATM    4  F   UNL     1      -8.393  10.745  64.843  1.00  0.00    -0.172 F  
HETATM    5  C   UNL     1      -8.956  11.766  66.995  1.00  0.00    -0.186 C  
HETATM    6  O   UNL     1      -7.936  12.615  67.591  1.00  0.00    -0.144 OA 
HETATM    7  C   UNL     1     -10.758  14.712  65.379  1.00  0.00    -0.382 A  
HETATM    8  C   UNL     1      -8.122  13.929  67.824  1.00  0.00    -0.172 C  
HETATM    9 CL   UNL     1     -12.789  11.926  63.372  1.00  0.00    -0.588 Cl 
HETATM   10  C   UNL     1     -11.636  14.089  64.494  1.00  0.00    -0.403 A  
HETATM   11  N   UNL     1      -9.074  14.559  67.083  1.00  0.00    -0.214 N  
HETATM   12  O   UNL     1      -7.419  14.553  68.610  1.00  0.00    -0.114 OA 
HETATM   13  C   UNL     1     -11.691  12.699  64.446  1.00  0.00    -0.369 A  
HETATM   14  C   UNL     1      -9.920  13.937  66.183  1.00  0.00    -0.310 A  
HETATM   15  H   UNL     1      -9.171  15.568  67.202  1.00  0.00     0.000 HD 
HETATM   16  C   UNL     1     -10.857  11.928  65.260  1.00  0.00    -0.347 A  
HETATM   17  C   UNL     1      -9.927  12.546  66.117  1.00  0.00    -0.267 A  
ENDROOT
BRANCH   5  18
HETATM   18  C   UNL     1      -9.686  11.166  68.142  1.00  0.00    -0.186 C  
HETATM   19  C   UNL     1     -10.214  10.656  69.096  1.00  0.00    -0.238 C  
BRANCH  19  20
HETATM   20  C   UNL     1     -10.801  10.035  70.242  1.00  0.00    -0.370 C  
HETATM   21  C   UNL     1     -10.938   8.533  70.263  1.00  0.00    -0.245 C  
HETATM   22  C   UNL     1      -9.929   9.201  71.150  1.00  0.00    -0.377 C  
ENDBRANCH  19  20
ENDBRANCH   5  18
TORSDOF 2
ENDMDL
MODEL       53
REMARK 921   NORMALIZED FREE ENERGY PREDICTED BY IDOCK:   -4.89 KCAL/MOL
REMARK 922        TOTAL FREE ENERGY PREDICTED BY IDOCK:   -5.91 KCAL/MOL
REMARK 923 INTER-LIGAND FREE ENERGY PREDICTED BY IDOCK:   -5.47 KCAL/MOL
REMARK 924 INTRA-LIGAND FREE ENERGY PREDICTED BY IDOCK:   -0.44 KCAL/MOL
REMARK 927      BINDING AFFINITY PREDICTED BY RF-SCORE:    0.00 PKD
ROOT
HETATM    1  F   UNL     1      -7.900  13.720  68.346  1.00  0.00    -0.116 F  
HETATM    2  C   UNL     1      -8.385  12.576  67.797  1.00  0.00    -0.170 C  
HETATM    3  F   UNL     1      -8.177  11.594  68.711  1.00  0.00    -0.145 F  
HETATM    4  F   UNL     1      -7.566  12.295  66.751  1.00  0.00    -0.127 F  
HETATM    5  C   UNL     1      -9.895  12.708  67.379  1.00  0.00    -0.205 C  
HETATM    6  O   UNL     1     -10.264  14.097  67.605  1.00  0.00    -0.237 OA 
HETATM    7  C   UNL     1     -11.095  12.762  63.760  1.00  0.00    -0.475 A  
HETATM    8  C   UNL     1     -11.187  14.739  66.862  1.00  0.00    -0.347 C  
HETATM    9 CL   UNL     1      -9.216   9.257  63.445  1.00  0.00     0.039 Cl 
HETATM   10  C   UNL     1     -10.565  11.582  63.241  1.00  0.00    -0.405 A  
HETATM   11  N   UNL     1     -11.432  14.245  65.618  1.00  0.00    -0.323 N  
HETATM   12  O   UNL     1     -11.730  15.766  67.251  1.00  0.00     0.026 OA 
HETATM   13  C   UNL     1      -9.852  10.725  64.075  1.00  0.00    -0.332 A  
HETATM   14  C   UNL     1     -10.876  13.089  65.099  1.00  0.00    -0.300 A  
HETATM   15  H   UNL     1     -12.075  14.767  65.022  1.00  0.00     0.000 HD 
HETATM   16  C   UNL     1      -9.645  11.052  65.417  1.00  0.00    -0.267 A  
HETATM   17  C   UNL     1     -10.126  12.268  65.938  1.00  0.00    -0.272 A  
ENDROOT
BRANCH   5  18
HETATM   18  C   UNL     1     -10.762  11.918  68.291  1.00  0.00    -0.253 C  
HETATM   19  C   UNL     1     -11.451  11.327  69.082  1.00  0.00    -0.364 C  
BRANCH  19  20
HETATM   20  C   UNL     1     -12.258  10.656  70.052  1.00  0.00    -0.373 C  
HETATM   21  C   UNL     1     -11.584  10.033  71.250  1.00  0.00    -0.430 C  
HETATM   22  C   UNL     1     -12.417  11.269  71.423  1.00  0.00    -0.392 C  
ENDBRANCH  19  20
ENDBRANCH   5  18
TORSDOF 2
ENDMDL
MODEL       54
REMARK 921   NORMALIZED FREE ENERGY PREDICTED BY IDOCK:   -4.88 KCAL/MOL
REMARK 922        TOTAL FREE ENERGY PREDICTED BY IDOCK:   -5.90 KCAL/MOL
REMARK 923 INTER-LIGAND FREE ENERGY PREDICTED BY IDOCK:   -5.46 KCAL/MOL
REMARK 924 INTRA-LIGAND FREE ENERGY PREDICTED BY IDOCK:   -0.44 KCAL/MOL
REMARK 927      BINDING AFFINITY PREDICTED BY RF-SCORE:    0.00 PKD
ROOT
HETATM    1  F   UNL     1     -10.678   7.992  66.656  1.00  0.00    -0.393 F  
HETATM    2  C   UNL     1     -10.217   7.979  67.934  1.00  0.00    -0.212 C  
HETATM    3  F   UNL     1      -8.951   7.492  67.881  1.00  0.00    -0.131 F  
HETATM    4  F   UNL     1     -10.955   7.040  68.581  1.00  0.00    -0.220 F  
HETATM    5  C   UNL     1     -10.295   9.396  68.611  1.00  0.00    -0.203 C  
HETATM    6  O   UNL     1     -10.975  10.268  67.665  1.00  0.00    -0.287 OA 
HETATM    7  C   UNL     1     -12.692  10.263  71.447  1.00  0.00    -0.547 A  
HETATM    8  C   UNL     1     -11.745  11.305  68.047  1.00  0.00    -0.233 C  
HETATM    9 CL   UNL     1     -10.987   7.207  73.362  1.00  0.00    -0.343 Cl 
HETATM   10  C   UNL     1     -12.394   9.299  72.408  1.00  0.00    -0.260 A  
HETATM   11  N   UNL     1     -12.264  11.258  69.304  1.00  0.00    -0.291 N  
HETATM   12  O   UNL     1     -12.032  12.216  67.280  1.00  0.00    -0.573 OA 
HETATM   13  C   UNL     1     -11.373   8.384  72.169  1.00  0.00    -0.366 A  
HETATM   14  C   UNL     1     -11.988  10.279  70.242  1.00  0.00    -0.264 A  
HETATM   15  H   UNL     1     -12.906  12.003  69.576  1.00  0.00     0.000 HD 
HETATM   16  C   UNL     1     -10.665   8.411  70.966  1.00  0.00    -0.267 A  
HETATM   17  C   UNL     1     -10.994   9.343  69.964  1.00  0.00    -0.267 A  
ENDROOT
BRANCH   5  18
HETATM   18  C   UNL     1      -8.935   9.976  68.770  1.00  0.00    -0.145 C  
HETATM   19  C   UNL     1      -7.849  10.490  68.845  1.00  0.00    -0.124 C  
BRANCH  19  20
HETATM   20  C   UNL     1      -6.571  11.128  68.899  1.00  0.00    -0.065 C  
HETATM   21  C   UNL     1      -6.507  12.596  69.239  1.00  0.00    -0.106 C  
HETATM   22  C   UNL     1      -6.035  11.579  70.237  1.00  0.00    -0.160 C  
ENDBRANCH  19  20
ENDBRANCH   5  18
TORSDOF 2
ENDMDL
MODEL       55
REMARK 921   NORMALIZED FREE ENERGY PREDICTED BY IDOCK:   -4.86 KCAL/MOL
REMARK 922        TOTAL FREE ENERGY PREDICTED BY IDOCK:   -5.88 KCAL/MOL
REMARK 923 INTER-LIGAND FREE ENERGY PREDICTED BY IDOCK:   -5.41 KCAL/MOL
REMARK 924 INTRA-LIGAND FREE ENERGY PREDICTED BY IDOCK:   -0.47 KCAL/MOL
REMARK 927      BINDING AFFINITY PREDICTED BY RF-SCORE:    0.00 PKD
ROOT
HETATM    1  F   UNL     1     -11.823  14.224  70.377  1.00  0.00    -0.311 F  
HETATM    2  C   UNL     1     -10.992  15.037  69.673  1.00  0.00    -0.279 C  
HETATM    3  F   UNL     1     -10.018  15.428  70.533  1.00  0.00    -0.258 F  
HETATM    4  F   UNL     1     -11.718  16.150  69.395  1.00  0.00    -0.320 F  
HETATM    5  C   UNL     1     -10.422  14.337  68.386  1.00  0.00    -0.249 C  
HETATM    6  O   UNL     1     -11.086  13.046  68.290  1.00  0.00    -0.238 OA 
HETATM    7  C   UNL     1     -11.385  15.328  64.831  1.00  0.00    -0.387 A  
HETATM    8  C   UNL     1     -11.346  12.442  67.115  1.00  0.00    -0.329 C  
HETATM    9 CL   UNL     1     -10.126  18.968  65.872  1.00  0.00    -0.358 Cl 
HETATM   10  C   UNL     1     -11.086  16.689  64.799  1.00  0.00    -0.120 A  
HETATM   11  N   UNL     1     -11.412  13.237  66.012  1.00  0.00    -0.319 N  
HETATM   12  O   UNL     1     -11.588  11.243  67.042  1.00  0.00    -0.496 OA 
HETATM   13  C   UNL     1     -10.518  17.294  65.916  1.00  0.00    -0.262 A  
HETATM   14  C   UNL     1     -11.145  14.594  65.995  1.00  0.00    -0.332 A  
HETATM   15  H   UNL     1     -11.679  12.799  65.130  1.00  0.00     0.000 HD 
HETATM   16  C   UNL     1     -10.270  16.553  67.074  1.00  0.00    -0.288 A  
HETATM   17  C   UNL     1     -10.621  15.191  67.139  1.00  0.00    -0.295 A  
ENDROOT
BRANCH   5  18
HETATM   18  C   UNL     1      -8.979  14.023  68.556  1.00  0.00    -0.160 C  
HETATM   19  C   UNL     1      -7.795  13.824  68.648  1.00  0.00    -0.108 C  
BRANCH  19  20
HETATM   20  C   UNL     1      -6.383  13.620  68.728  1.00  0.00    -0.093 C  
HETATM   21  C   UNL     1      -5.465  14.788  68.463  1.00  0.00    -0.102 C  
HETATM   22  C   UNL     1      -5.614  14.260  69.859  1.00  0.00    -0.104 C  
ENDBRANCH  19  20
ENDBRANCH   5  18
TORSDOF 2
ENDMDL
MODEL       56
REMARK 921   NORMALIZED FREE ENERGY PREDICTED BY IDOCK:   -4.86 KCAL/MOL
REMARK 922        TOTAL FREE ENERGY PREDICTED BY IDOCK:   -5.87 KCAL/MOL
REMARK 923 INTER-LIGAND FREE ENERGY PREDICTED BY IDOCK:   -5.41 KCAL/MOL
REMARK 924 INTRA-LIGAND FREE ENERGY PREDICTED BY IDOCK:   -0.46 KCAL/MOL
REMARK 927      BINDING AFFINITY PREDICTED BY RF-SCORE:    0.00 PKD
ROOT
HETATM    1  F   UNL     1     -10.344   8.806  68.448  1.00  0.00    -0.205 F  
HETATM    2  C   UNL     1     -10.433  10.129  68.150  1.00  0.00    -0.206 C  
HETATM    3  F   UNL     1     -10.032  10.800  69.260  1.00  0.00    -0.212 F  
HETATM    4  F   UNL     1     -11.760  10.385  68.014  1.00  0.00    -0.347 F  
HETATM    5  C   UNL     1      -9.599  10.510  66.873  1.00  0.00    -0.175 C  
HETATM    6  O   UNL     1      -9.084   9.263  66.330  1.00  0.00    -0.151 OA 
HETATM    7  C   UNL     1     -11.159  11.553  63.554  1.00  0.00    -0.434 A  
HETATM    8  C   UNL     1      -8.867   9.072  65.014  1.00  0.00    -0.170 C  
HETATM    9 CL   UNL     1     -12.980  14.386  65.693  1.00  0.00    -0.292 Cl 
HETATM   10  C   UNL     1     -11.976  12.622  63.919  1.00  0.00    -0.558 A  
HETATM   11  N   UNL     1      -9.560   9.865  64.152  1.00  0.00    -0.393 N  
HETATM   12  O   UNL     1      -8.138   8.178  64.601  1.00  0.00    -0.145 OA 
HETATM   13  C   UNL     1     -11.992  13.053  65.243  1.00  0.00    -0.407 A  
HETATM   14  C   UNL     1     -10.394  10.904  64.524  1.00  0.00    -0.348 A  
HETATM   15  H   UNL     1      -9.456   9.679  63.154  1.00  0.00     0.000 HD 
HETATM   16  C   UNL     1     -11.216  12.407  66.207  1.00  0.00    -0.361 A  
HETATM   17  C   UNL     1     -10.431  11.290  65.862  1.00  0.00    -0.314 A  
ENDROOT
BRANCH   5  18
HETATM   18  C   UNL     1      -8.397  11.299  67.250  1.00  0.00    -0.145 C  
HETATM   19  C   UNL     1      -7.424  11.968  67.489  1.00  0.00    -0.140 C  
BRANCH  19  20
HETATM   20  C   UNL     1      -6.271  12.777  67.731  1.00  0.00    -0.138 C  
HETATM   21  C   UNL     1      -6.456  14.261  67.930  1.00  0.00    -0.175 C  
HETATM   22  C   UNL     1      -6.084  13.394  69.097  1.00  0.00    -0.093 C  
ENDBRANCH  19  20
ENDBRANCH   5  18
TORSDOF 2
ENDMDL
MODEL       57
REMARK 921   NORMALIZED FREE ENERGY PREDICTED BY IDOCK:   -4.83 KCAL/MOL
REMARK 922        TOTAL FREE ENERGY PREDICTED BY IDOCK:   -5.84 KCAL/MOL
REMARK 923 INTER-LIGAND FREE ENERGY PREDICTED BY IDOCK:   -5.40 KCAL/MOL
REMARK 924 INTRA-LIGAND FREE ENERGY PREDICTED BY IDOCK:   -0.44 KCAL/MOL
REMARK 927      BINDING AFFINITY PREDICTED BY RF-SCORE:    0.00 PKD
ROOT
HETATM    1  F   UNL     1     -11.668   5.917  72.214  1.00  0.00    -0.328 F  
HETATM    2  C   UNL     1     -11.578   6.592  71.039  1.00  0.00    -0.346 C  
HETATM    3  F   UNL     1     -12.849   6.897  70.673  1.00  0.00    -0.380 F  
HETATM    4  F   UNL     1     -11.131   5.688  70.129  1.00  0.00    -0.382 F  
HETATM    5  C   UNL     1     -10.656   7.861  71.149  1.00  0.00    -0.213 C  
HETATM    6  O   UNL     1     -10.075   7.834  72.482  1.00  0.00    -0.202 OA 
HETATM    7  C   UNL     1      -7.256   8.166  69.450  1.00  0.00    -0.067 A  
HETATM    8  C   UNL     1      -8.855   8.333  72.760  1.00  0.00    -0.239 C  
HETATM    9 CL   UNL     1      -9.255   7.413  66.081  1.00  0.00    -0.183 Cl 
HETATM   10  C   UNL     1      -7.556   7.917  68.112  1.00  0.00    -0.116 A  
HETATM   11  N   UNL     1      -7.980   8.437  71.723  1.00  0.00    -0.124 N  
HETATM   12  O   UNL     1      -8.514   8.612  73.903  1.00  0.00    -0.310 OA 
HETATM   13  C   UNL     1      -8.878   7.698  67.734  1.00  0.00    -0.125 A  
HETATM   14  C   UNL     1      -8.277   8.157  70.402  1.00  0.00    -0.114 A  
HETATM   15  H   UNL     1      -7.031   8.746  71.937  1.00  0.00     0.000 HD 
HETATM   16  C   UNL     1      -9.897   7.700  68.689  1.00  0.00    -0.175 A  
HETATM   17  C   UNL     1      -9.599   7.894  70.051  1.00  0.00    -0.168 A  
ENDROOT
BRANCH   5  18
HETATM   18  C   UNL     1     -11.469   9.105  71.100  1.00  0.00    -0.388 C  
HETATM   19  C   UNL     1     -12.160  10.086  71.002  1.00  0.00    -0.469 C  
BRANCH  19  20
HETATM   20  C   UNL     1     -12.998  11.234  70.848  1.00  0.00    -0.237 C  
HETATM   21  C   UNL     1     -13.160  12.175  72.016  1.00  0.00    -0.462 C  
HETATM   22  C   UNL     1     -12.364  12.604  70.818  1.00  0.00    -0.372 C  
ENDBRANCH  19  20
ENDBRANCH   5  18
TORSDOF 2
ENDMDL
MODEL       58
REMARK 921   NORMALIZED FREE ENERGY PREDICTED BY IDOCK:   -4.79 KCAL/MOL
REMARK 922        TOTAL FREE ENERGY PREDICTED BY IDOCK:   -5.80 KCAL/MOL
REMARK 923 INTER-LIGAND FREE ENERGY PREDICTED BY IDOCK:   -5.33 KCAL/MOL
REMARK 924 INTRA-LIGAND FREE ENERGY PREDICTED BY IDOCK:   -0.47 KCAL/MOL
REMARK 927      BINDING AFFINITY PREDICTED BY RF-SCORE:    0.00 PKD
ROOT
HETATM    1  F   UNL     1      -9.314  18.443  65.716  1.00  0.00    -0.156 F  
HETATM    2  C   UNL     1     -10.260  17.599  66.204  1.00  0.00    -0.343 C  
HETATM    3  F   UNL     1     -11.196  17.466  65.229  1.00  0.00    -0.236 F  
HETATM    4  F   UNL     1     -10.865  18.272  67.217  1.00  0.00    -0.410 F  
HETATM    5  C   UNL     1      -9.655  16.221  66.658  1.00  0.00    -0.246 C  
HETATM    6  O   UNL     1      -8.211  16.341  66.522  1.00  0.00    -0.253 OA 
HETATM    7  C   UNL     1      -9.428  15.097  70.294  1.00  0.00     0.496 A  
HETATM    8  C   UNL     1      -7.344  15.687  67.319  1.00  0.00    -0.220 C  
HETATM    9 CL   UNL     1     -13.373  15.685  70.363  1.00  0.00    -0.031 Cl 
HETATM   10  C   UNL     1     -10.747  15.197  70.731  1.00  0.00    -0.113 A  
HETATM   11  N   UNL     1      -7.804  15.285  68.535  1.00  0.00    -0.128 N  
HETATM   12  O   UNL     1      -6.172  15.522  67.003  1.00  0.00    -0.279 OA 
HETATM   13  C   UNL     1     -11.740  15.582  69.834  1.00  0.00    -0.352 A  
HETATM   14  C   UNL     1      -9.110  15.418  68.973  1.00  0.00    -0.233 A  
HETATM   15  H   UNL     1      -7.135  14.854  69.173  1.00  0.00     0.000 HD 
HETATM   16  C   UNL     1     -11.418  15.892  68.511  1.00  0.00    -0.377 A  
HETATM   17  C   UNL     1     -10.080  15.850  68.073  1.00  0.00    -0.230 A  
ENDROOT
BRANCH   5  18
HETATM   18  C   UNL     1     -10.048  15.140  65.715  1.00  0.00    -0.373 C  
HETATM   19  C   UNL     1     -10.394  14.230  65.008  1.00  0.00    -0.448 C  
BRANCH  19  20
HETATM   20  C   UNL     1     -10.820  13.127  64.204  1.00  0.00    -0.407 C  
HETATM   21  C   UNL     1     -11.963  12.272  64.694  1.00  0.00    -0.437 C  
HETATM   22  C   UNL     1     -12.168  13.193  63.527  1.00  0.00    -0.552 C  
ENDBRANCH  19  20
ENDBRANCH   5  18
TORSDOF 2
ENDMDL
MODEL       59
REMARK 921   NORMALIZED FREE ENERGY PREDICTED BY IDOCK:   -4.77 KCAL/MOL
REMARK 922        TOTAL FREE ENERGY PREDICTED BY IDOCK:   -5.78 KCAL/MOL
REMARK 923 INTER-LIGAND FREE ENERGY PREDICTED BY IDOCK:   -5.35 KCAL/MOL
REMARK 924 INTRA-LIGAND FREE ENERGY PREDICTED BY IDOCK:   -0.43 KCAL/MOL
REMARK 927      BINDING AFFINITY PREDICTED BY RF-SCORE:    0.00 PKD
ROOT
HETATM    1  F   UNL     1     -11.782  13.879  70.534  1.00  0.00    -0.344 F  
HETATM    2  C   UNL     1     -11.224  14.425  69.422  1.00  0.00    -0.281 C  
HETATM    3  F   UNL     1     -10.307  15.327  69.855  1.00  0.00    -0.241 F  
HETATM    4  F   UNL     1     -12.213  15.146  68.832  1.00  0.00    -0.313 F  
HETATM    5  C   UNL     1     -10.605  13.338  68.469  1.00  0.00    -0.256 C  
HETATM    6  O   UNL     1     -10.950  12.045  69.041  1.00  0.00    -0.225 OA 
HETATM    7  C   UNL     1     -12.044  12.443  65.054  1.00  0.00    -0.468 A  
HETATM    8  C   UNL     1     -11.148  10.943  68.293  1.00  0.00    -0.266 C  
HETATM    9 CL   UNL     1     -11.609  16.323  64.235  1.00  0.00    -0.241 Cl 
HETATM   10  C   UNL     1     -12.080  13.674  64.402  1.00  0.00    -0.470 A  
HETATM   11  N   UNL     1     -11.485  11.134  66.988  1.00  0.00    -0.145 N  
HETATM   12  O   UNL     1     -11.104   9.816  68.773  1.00  0.00    -0.189 OA 
HETATM   13  C   UNL     1     -11.588  14.806  65.045  1.00  0.00    -0.378 A  
HETATM   14  C   UNL     1     -11.549  12.363  66.357  1.00  0.00    -0.384 A  
HETATM   15  H   UNL     1     -11.708  10.308  66.433  1.00  0.00     0.000 HD 
HETATM   16  C   UNL     1     -11.084  14.719  66.345  1.00  0.00    -0.340 A  
HETATM   17  C   UNL     1     -11.095  13.492  67.035  1.00  0.00    -0.310 A  
ENDROOT
BRANCH   5  18
HETATM   18  C   UNL     1      -9.120  13.397  68.503  1.00  0.00    -0.077 C  
HETATM   19  C   UNL     1      -7.923  13.510  68.563  1.00  0.00    -0.119 C  
BRANCH  19  20
HETATM   20  C   UNL     1      -6.507  13.683  68.654  1.00  0.00    -0.094 C  
HETATM   21  C   UNL     1      -5.667  12.536  69.159  1.00  0.00    -0.075 C  
HETATM   22  C   UNL     1      -5.614  12.916  67.708  1.00  0.00    -0.130 C  
ENDBRANCH  19  20
ENDBRANCH   5  18
TORSDOF 2
ENDMDL
MODEL       60
REMARK 921   NORMALIZED FREE ENERGY PREDICTED BY IDOCK:   -4.74 KCAL/MOL
REMARK 922        TOTAL FREE ENERGY PREDICTED BY IDOCK:   -5.75 KCAL/MOL
REMARK 923 INTER-LIGAND FREE ENERGY PREDICTED BY IDOCK:   -5.29 KCAL/MOL
REMARK 924 INTRA-LIGAND FREE ENERGY PREDICTED BY IDOCK:   -0.45 KCAL/MOL
REMARK 927      BINDING AFFINITY PREDICTED BY RF-SCORE:    0.00 PKD
ROOT
HETATM    1  F   UNL     1     -10.883  15.541  68.644  1.00  0.00    -0.233 F  
HETATM    2  C   UNL     1     -11.098  14.221  68.406  1.00  0.00    -0.256 C  
HETATM    3  F   UNL     1     -12.238  14.143  67.674  1.00  0.00    -0.404 F  
HETATM    4  F   UNL     1     -11.388  13.673  69.614  1.00  0.00    -0.287 F  
HETATM    5  C   UNL     1      -9.873  13.535  67.698  1.00  0.00    -0.228 C  
HETATM    6  O   UNL     1      -8.819  14.536  67.637  1.00  0.00    -0.173 OA 
HETATM    7  C   UNL     1      -7.616  10.964  69.384  1.00  0.00    -0.097 A  
HETATM    8  C   UNL     1      -7.509  14.224  67.679  1.00  0.00    -0.179 C  
HETATM    9 CL   UNL     1     -10.986   8.923  70.008  1.00  0.00    -0.237 Cl 
HETATM   10  C   UNL     1      -8.520   9.992  69.808  1.00  0.00    -0.189 A  
HETATM   11  N   UNL     1      -7.176  13.032  68.245  1.00  0.00    -0.102 N  
HETATM   12  O   UNL     1      -6.645  15.004  67.297  1.00  0.00    -0.292 OA 
HETATM   13  C   UNL     1      -9.872  10.132  69.507  1.00  0.00    -0.232 A  
HETATM   14  C   UNL     1      -8.080  12.086  68.693  1.00  0.00    -0.069 A  
HETATM   15  H   UNL     1      -6.184  12.820  68.347  1.00  0.00     0.000 HD 
HETATM   16  C   UNL     1     -10.329  11.250  68.806  1.00  0.00    -0.223 A  
HETATM   17  C   UNL     1      -9.434  12.267  68.422  1.00  0.00    -0.175 A  
ENDROOT
BRANCH   5  18
HETATM   18  C   UNL     1     -10.196  13.218  66.282  1.00  0.00    -0.296 C  
HETATM   19  C   UNL     1     -10.526  12.983  65.148  1.00  0.00    -0.335 C  
BRANCH  19  20
HETATM   20  C   UNL     1     -10.960  12.715  63.813  1.00  0.00    -0.481 C  
HETATM   21  C   UNL     1     -10.892  11.297  63.300  1.00  0.00    -0.222 C  
HETATM   22  C   UNL     1     -12.225  11.918  63.601  1.00  0.00    -0.586 C  
ENDBRANCH  19  20
ENDBRANCH   5  18
TORSDOF 2
ENDMDL
MODEL       61
REMARK 921   NORMALIZED FREE ENERGY PREDICTED BY IDOCK:   -4.72 KCAL/MOL
REMARK 922        TOTAL FREE ENERGY PREDICTED BY IDOCK:   -5.72 KCAL/MOL
REMARK 923 INTER-LIGAND FREE ENERGY PREDICTED BY IDOCK:   -5.28 KCAL/MOL
REMARK 924 INTRA-LIGAND FREE ENERGY PREDICTED BY IDOCK:   -0.44 KCAL/MOL
REMARK 927      BINDING AFFINITY PREDICTED BY RF-SCORE:    0.00 PKD
ROOT
HETATM    1  F   UNL     1      -6.724   9.454  67.316  1.00  0.00    -0.070 F  
HETATM    2  C   UNL     1      -7.805   9.515  66.494  1.00  0.00    -0.101 C  
HETATM    3  F   UNL     1      -7.663   8.505  65.598  1.00  0.00    -0.086 F  
HETATM    4  F   UNL     1      -7.663  10.666  65.788  1.00  0.00    -0.142 F  
HETATM    5  C   UNL     1      -9.162   9.442  67.285  1.00  0.00    -0.130 C  
HETATM    6  O   UNL     1      -8.816   9.459  68.698  1.00  0.00    -0.130 OA 
HETATM    7  C   UNL     1     -11.579  12.371  67.627  1.00  0.00    -0.421 A  
HETATM    8  C   UNL     1      -9.614   9.997  69.640  1.00  0.00    -0.226 C  
HETATM    9 CL   UNL     1     -11.569  12.399  63.638  1.00  0.00    -0.536 Cl 
HETATM   10  C   UNL     1     -11.825  12.724  66.302  1.00  0.00    -0.485 A  
HETATM   11  N   UNL     1     -10.514  10.932  69.227  1.00  0.00    -0.285 N  
HETATM   12  O   UNL     1      -9.493   9.721  70.827  1.00  0.00    -0.144 OA 
HETATM   13  C   UNL     1     -11.249  11.981  65.275  1.00  0.00    -0.322 A  
HETATM   14  C   UNL     1     -10.730  11.299  67.911  1.00  0.00    -0.207 A  
HETATM   15  H   UNL     1     -11.072  11.397  69.943  1.00  0.00     0.000 HD 
HETATM   16  C   UNL     1     -10.409  10.904  65.565  1.00  0.00    -0.316 A  
HETATM   17  C   UNL     1     -10.107  10.573  66.899  1.00  0.00    -0.265 A  
ENDROOT
BRANCH   5  18
HETATM   18  C   UNL     1      -9.828   8.131  67.060  1.00  0.00    -0.299 C  
HETATM   19  C   UNL     1     -10.313   7.039  66.915  1.00  0.00    -0.338 C  
BRANCH  19  20
HETATM   20  C   UNL     1     -10.855   5.725  66.765  1.00  0.00    -0.327 C  
HETATM   21  C   UNL     1     -10.248   4.804  65.736  1.00  0.00    -0.251 C  
HETATM   22  C   UNL     1     -10.026   4.539  67.197  1.00  0.00    -0.201 C  
ENDBRANCH  19  20
ENDBRANCH   5  18
TORSDOF 2
ENDMDL
MODEL       62
REMARK 921   NORMALIZED FREE ENERGY PREDICTED BY IDOCK:   -4.67 KCAL/MOL
REMARK 922        TOTAL FREE ENERGY PREDICTED BY IDOCK:   -5.66 KCAL/MOL
REMARK 923 INTER-LIGAND FREE ENERGY PREDICTED BY IDOCK:   -5.22 KCAL/MOL
REMARK 924 INTRA-LIGAND FREE ENERGY PREDICTED BY IDOCK:   -0.45 KCAL/MOL
REMARK 927      BINDING AFFINITY PREDICTED BY RF-SCORE:    0.00 PKD
ROOT
HETATM    1  F   UNL     1      -7.134  10.053  68.647  1.00  0.00    -0.071 F  
HETATM    2  C   UNL     1      -8.405  10.167  69.115  1.00  0.00    -0.154 C  
HETATM    3  F   UNL     1      -8.673  11.496  69.175  1.00  0.00    -0.073 F  
HETATM    4  F   UNL     1      -8.362   9.734  70.402  1.00  0.00    -0.183 F  
HETATM    5  C   UNL     1      -9.439   9.376  68.234  1.00  0.00    -0.137 C  
HETATM    6  O   UNL     1      -8.663   8.649  67.241  1.00  0.00    -0.127 OA 
HETATM    7  C   UNL     1     -11.264   6.240  69.406  1.00  0.00    -0.489 A  
HETATM    8  C   UNL     1      -9.052   7.464  66.732  1.00  0.00    -0.151 C  
HETATM    9 CL   UNL     1     -12.519   8.517  72.432  1.00  0.00    -0.439 Cl 
HETATM   10  C   UNL     1     -11.875   6.661  70.586  1.00  0.00    -0.443 A  
HETATM   11  N   UNL     1      -9.921   6.727  67.476  1.00  0.00    -0.133 N  
HETATM   12  O   UNL     1      -8.593   7.027  65.683  1.00  0.00    -0.151 OA 
HETATM   13  C   UNL     1     -11.746   7.987  70.990  1.00  0.00    -0.277 A  
HETATM   14  C   UNL     1     -10.499   7.141  68.663  1.00  0.00    -0.197 A  
HETATM   15  H   UNL     1     -10.164   5.798  67.133  1.00  0.00     0.000 HD 
HETATM   16  C   UNL     1     -10.989   8.887  70.237  1.00  0.00    -0.266 A  
HETATM   17  C   UNL     1     -10.319   8.459  69.075  1.00  0.00    -0.231 A  
ENDROOT
BRANCH   5  18
HETATM   18  C   UNL     1     -10.290  10.315  67.456  1.00  0.00    -0.276 C  
HETATM   19  C   UNL     1     -10.918  11.105  66.799  1.00  0.00    -0.309 C  
BRANCH  19  20
HETATM   20  C   UNL     1     -11.625  12.060  66.006  1.00  0.00    -0.371 C  
HETATM   21  C   UNL     1     -11.889  13.429  66.583  1.00  0.00    -0.443 C  
HETATM   22  C   UNL     1     -10.884  13.266  65.480  1.00  0.00    -0.297 C  
ENDBRANCH  19  20
ENDBRANCH   5  18
TORSDOF 2
ENDMDL
MODEL       63
REMARK 921   NORMALIZED FREE ENERGY PREDICTED BY IDOCK:   -4.65 KCAL/MOL
REMARK 922        TOTAL FREE ENERGY PREDICTED BY IDOCK:   -5.65 KCAL/MOL
REMARK 923 INTER-LIGAND FREE ENERGY PREDICTED BY IDOCK:   -5.19 KCAL/MOL
REMARK 924 INTRA-LIGAND FREE ENERGY PREDICTED BY IDOCK:   -0.45 KCAL/MOL
REMARK 927      BINDING AFFINITY PREDICTED BY RF-SCORE:    0.00 PKD
ROOT
HETATM    1  F   UNL     1     -11.140   7.061  66.602  1.00  0.00    -0.404 F  
HETATM    2  C   UNL     1     -10.545   6.935  67.817  1.00  0.00    -0.244 C  
HETATM    3  F   UNL     1      -9.397   6.240  67.613  1.00  0.00    -0.121 F  
HETATM    4  F   UNL     1     -11.356   6.120  68.539  1.00  0.00    -0.389 F  
HETATM    5  C   UNL     1     -10.299   8.326  68.508  1.00  0.00    -0.199 C  
HETATM    6  O   UNL     1     -10.921   9.326  67.653  1.00  0.00    -0.204 OA 
HETATM    7  C   UNL     1     -12.170   9.514  71.610  1.00  0.00    -0.477 A  
HETATM    8  C   UNL     1     -11.451  10.469  68.130  1.00  0.00    -0.179 C  
HETATM    9 CL   UNL     1     -10.814   6.160  73.292  1.00  0.00    -0.277 Cl 
HETATM   10  C   UNL     1     -11.937   8.488  72.524  1.00  0.00    -0.401 A  
HETATM   11  N   UNL     1     -11.824  10.478  69.439  1.00  0.00    -0.478 N  
HETATM   12  O   UNL     1     -11.662  11.436  67.408  1.00  0.00    -0.574 OA 
HETATM   13  C   UNL     1     -11.124   7.418  72.160  1.00  0.00    -0.252 A  
HETATM   14  C   UNL     1     -11.616   9.442  70.331  1.00  0.00    -0.192 A  
HETATM   15  H   UNL     1     -12.292  11.314  69.789  1.00  0.00     0.000 HD 
HETATM   16  C   UNL     1     -10.563   7.355  70.883  1.00  0.00    -0.234 A  
HETATM   17  C   UNL     1     -10.838   8.358  69.933  1.00  0.00    -0.207 A  
ENDROOT
BRANCH   5  18
HETATM   18  C   UNL     1      -8.850   8.660  68.511  1.00  0.00    -0.142 C  
HETATM   19  C   UNL     1      -7.664   8.863  68.535  1.00  0.00    -0.098 C  
BRANCH  19  20
HETATM   20  C   UNL     1      -6.249   9.061  68.578  1.00  0.00    -0.049 C  
HETATM   21  C   UNL     1      -5.349   7.983  68.028  1.00  0.00    -0.033 C  
HETATM   22  C   UNL     1      -5.501   9.278  67.285  1.00  0.00    -0.041 C  
ENDBRANCH  19  20
ENDBRANCH   5  18
TORSDOF 2
ENDMDL
MODEL       64
REMARK 921   NORMALIZED FREE ENERGY PREDICTED BY IDOCK:   -4.64 KCAL/MOL
REMARK 922        TOTAL FREE ENERGY PREDICTED BY IDOCK:   -5.63 KCAL/MOL
REMARK 923 INTER-LIGAND FREE ENERGY PREDICTED BY IDOCK:   -5.20 KCAL/MOL
REMARK 924 INTRA-LIGAND FREE ENERGY PREDICTED BY IDOCK:   -0.43 KCAL/MOL
REMARK 927      BINDING AFFINITY PREDICTED BY RF-SCORE:    0.00 PKD
ROOT
HETATM    1  F   UNL     1      -8.854   6.381  69.132  1.00  0.00    -0.124 F  
HETATM    2  C   UNL     1      -9.636   6.717  70.191  1.00  0.00    -0.161 C  
HETATM    3  F   UNL     1      -9.393   5.794  71.156  1.00  0.00    -0.152 F  
HETATM    4  F   UNL     1     -10.914   6.509  69.784  1.00  0.00    -0.262 F  
HETATM    5  C   UNL     1      -9.379   8.190  70.679  1.00  0.00    -0.154 C  
HETATM    6  O   UNL     1      -8.447   8.781  69.731  1.00  0.00    -0.121 OA 
HETATM    7  C   UNL     1     -11.898  11.025  70.287  1.00  0.00    -0.456 A  
HETATM    8  C   UNL     1      -8.442  10.094  69.431  1.00  0.00    -0.171 C  
HETATM    9 CL   UNL     1     -14.380   8.639  72.301  1.00  0.00    -0.525 Cl 
HETATM   10  C   UNL     1     -13.036  10.515  70.909  1.00  0.00    -0.455 A  
HETATM   11  N   UNL     1      -9.595  10.783  69.653  1.00  0.00    -0.414 N  
HETATM   12  O   UNL     1      -7.473  10.637  68.912  1.00  0.00    -0.090 OA 
HETATM   13  C   UNL     1     -12.985   9.262  71.512  1.00  0.00    -0.359 A  
HETATM   14  C   UNL     1     -10.731  10.260  70.243  1.00  0.00    -0.250 A  
HETATM   15  H   UNL     1      -9.623  11.760  69.362  1.00  0.00     0.000 HD 
HETATM   16  C   UNL     1     -11.812   8.504  71.474  1.00  0.00    -0.353 A  
HETATM   17  C   UNL     1     -10.674   8.984  70.799  1.00  0.00    -0.301 A  
ENDROOT
BRANCH   5  18
HETATM   18  C   UNL     1      -8.665   8.192  71.984  1.00  0.00    -0.221 C  
HETATM   19  C   UNL     1      -8.077   8.122  73.032  1.00  0.00    -0.230 C  
BRANCH  19  20
HETATM   20  C   UNL     1      -7.375   7.995  74.270  1.00  0.00    -0.213 C  
HETATM   21  C   UNL     1      -6.422   6.839  74.448  1.00  0.00    -0.080 C  
HETATM   22  C   UNL     1      -5.883   8.231  74.293  1.00  0.00    -0.108 C  
ENDBRANCH  19  20
ENDBRANCH   5  18
TORSDOF 2
ENDMDL
MODEL       65
REMARK 921   NORMALIZED FREE ENERGY PREDICTED BY IDOCK:   -4.64 KCAL/MOL
REMARK 922        TOTAL FREE ENERGY PREDICTED BY IDOCK:   -5.63 KCAL/MOL
REMARK 923 INTER-LIGAND FREE ENERGY PREDICTED BY IDOCK:   -5.19 KCAL/MOL
REMARK 924 INTRA-LIGAND FREE ENERGY PREDICTED BY IDOCK:   -0.44 KCAL/MOL
REMARK 927      BINDING AFFINITY PREDICTED BY RF-SCORE:    0.00 PKD
ROOT
HETATM    1  F   UNL     1      -9.493   8.294  73.290  1.00  0.00    -0.318 F  
HETATM    2  C   UNL     1      -9.053   7.218  72.586  1.00  0.00    -0.139 C  
HETATM    3  F   UNL     1      -8.307   6.476  73.444  1.00  0.00    -0.117 F  
HETATM    4  F   UNL     1      -8.186   7.712  71.665  1.00  0.00    -0.099 F  
HETATM    5  C   UNL     1     -10.233   6.401  71.944  1.00  0.00    -0.195 C  
HETATM    6  O   UNL     1     -11.449   7.154  72.213  1.00  0.00    -0.258 OA 
HETATM    7  C   UNL     1     -10.912   6.246  68.196  1.00  0.00    -0.412 A  
HETATM    8  C   UNL     1     -12.511   7.151  71.385  1.00  0.00    -0.388 C  
HETATM    9 CL   UNL     1      -7.160   4.920  67.919  1.00  0.00    -0.061 Cl 
HETATM   10  C   UNL     1      -9.697   5.800  67.680  1.00  0.00    -0.127 A  
HETATM   11  N   UNL     1     -12.278   6.826  70.083  1.00  0.00    -0.605 N  
HETATM   12  O   UNL     1     -13.625   7.496  71.758  1.00  0.00    -0.353 OA 
HETATM   13  C   UNL     1      -8.654   5.493  68.549  1.00  0.00    -0.102 A  
HETATM   14  C   UNL     1     -11.060   6.414  69.574  1.00  0.00    -0.396 A  
HETATM   15  H   UNL     1     -13.062   6.891  69.434  1.00  0.00     0.000 HD 
HETATM   16  C   UNL     1      -8.810   5.653  69.928  1.00  0.00    -0.135 A  
HETATM   17  C   UNL     1     -10.014   6.157  70.456  1.00  0.00    -0.223 A  
ENDROOT
BRANCH   5  18
HETATM   18  C   UNL     1     -10.413   5.103  72.646  1.00  0.00    -0.262 C  
HETATM   19  C   UNL     1     -10.550   4.086  73.276  1.00  0.00    -0.270 C  
BRANCH  19  20
HETATM   20  C   UNL     1     -10.704   2.903  74.062  1.00  0.00    -0.275 C  
HETATM   21  C   UNL     1     -11.619   1.813  73.560  1.00  0.00    -0.311 C  
HETATM   22  C   UNL     1     -10.133   1.603  73.548  1.00  0.00    -0.139 C  
ENDBRANCH  19  20
ENDBRANCH   5  18
TORSDOF 2
ENDMDL
MODEL       66
REMARK 921   NORMALIZED FREE ENERGY PREDICTED BY IDOCK:   -4.63 KCAL/MOL
REMARK 922        TOTAL FREE ENERGY PREDICTED BY IDOCK:   -5.62 KCAL/MOL
REMARK 923 INTER-LIGAND FREE ENERGY PREDICTED BY IDOCK:   -5.17 KCAL/MOL
REMARK 924 INTRA-LIGAND FREE ENERGY PREDICTED BY IDOCK:   -0.45 KCAL/MOL
REMARK 927      BINDING AFFINITY PREDICTED BY RF-SCORE:    0.00 PKD
ROOT
HETATM    1  F   UNL     1     -12.337  12.529  67.523  1.00  0.00    -0.310 F  
HETATM    2  C   UNL     1     -11.112  11.944  67.475  1.00  0.00    -0.273 C  
HETATM    3  F   UNL     1     -11.317  10.651  67.118  1.00  0.00    -0.345 F  
HETATM    4  F   UNL     1     -10.669  11.914  68.758  1.00  0.00    -0.209 F  
HETATM    5  C   UNL     1     -10.130  12.695  66.503  1.00  0.00    -0.248 C  
HETATM    6  O   UNL     1     -10.831  13.886  66.049  1.00  0.00    -0.287 OA 
HETATM    7  C   UNL     1      -7.091  14.678  67.674  1.00  0.00    -0.203 A  
HETATM    8  C   UNL     1     -10.198  15.033  65.734  1.00  0.00    -0.338 C  
HETATM    9 CL   UNL     1      -5.976  11.274  69.431  1.00  0.00    -0.056 Cl 
HETATM   10  C   UNL     1      -6.383  13.743  68.427  1.00  0.00    -0.099 A  
HETATM   11  N   UNL     1      -8.967  15.229  66.280  1.00  0.00    -0.404 N  
HETATM   12  O   UNL     1     -10.730  15.899  65.050  1.00  0.00    -0.451 OA 
HETATM   13  C   UNL     1      -6.858  12.438  68.522  1.00  0.00    -0.082 A  
HETATM   14  C   UNL     1      -8.285  14.307  67.053  1.00  0.00    -0.089 A  
HETATM   15  H   UNL     1      -8.512  16.125  66.106  1.00  0.00     0.000 HD 
HETATM   16  C   UNL     1      -8.048  12.068  67.890  1.00  0.00    -0.150 A  
HETATM   17  C   UNL     1      -8.801  13.019  67.175  1.00  0.00    -0.218 A  
ENDROOT
BRANCH   5  18
HETATM   18  C   UNL     1      -9.890  11.890  65.276  1.00  0.00    -0.255 C  
HETATM   19  C   UNL     1      -9.721  11.294  64.244  1.00  0.00    -0.295 C  
BRANCH  19  20
HETATM   20  C   UNL     1      -9.538  10.621  62.996  1.00  0.00    -0.379 C  
HETATM   21  C   UNL     1      -8.179  10.664  62.343  1.00  0.00    -0.249 C  
HETATM   22  C   UNL     1      -8.672   9.384  62.952  1.00  0.00    -0.228 C  
ENDBRANCH  19  20
ENDBRANCH   5  18
TORSDOF 2
ENDMDL
MODEL       67
REMARK 921   NORMALIZED FREE ENERGY PREDICTED BY IDOCK:   -4.63 KCAL/MOL
REMARK 922        TOTAL FREE ENERGY PREDICTED BY IDOCK:   -5.62 KCAL/MOL
REMARK 923 INTER-LIGAND FREE ENERGY PREDICTED BY IDOCK:   -5.16 KCAL/MOL
REMARK 924 INTRA-LIGAND FREE ENERGY PREDICTED BY IDOCK:   -0.46 KCAL/MOL
REMARK 927      BINDING AFFINITY PREDICTED BY RF-SCORE:    0.00 PKD
ROOT
HETATM    1  F   UNL     1     -12.230   7.197  70.930  1.00  0.00    -0.350 F  
HETATM    2  C   UNL     1     -11.740   8.461  71.022  1.00  0.00    -0.267 C  
HETATM    3  F   UNL     1     -11.257   8.595  72.283  1.00  0.00    -0.377 F  
HETATM    4  F   UNL     1     -12.821   9.280  70.943  1.00  0.00    -0.304 F  
HETATM    5  C   UNL     1     -10.659   8.764  69.921  1.00  0.00    -0.224 C  
HETATM    6  O   UNL     1     -10.620   7.598  69.051  1.00  0.00    -0.216 OA 
HETATM    7  C   UNL     1     -11.207  11.170  67.014  1.00  0.00    -0.291 A  
HETATM    8  C   UNL     1     -10.322   7.672  67.740  1.00  0.00    -0.219 C  
HETATM    9 CL   UNL     1     -12.009  13.864  69.845  1.00  0.00    -0.382 Cl 
HETATM   10  C   UNL     1     -11.567  12.353  67.657  1.00  0.00    -0.421 A  
HETATM   11  N   UNL     1     -10.515   8.874  67.130  1.00  0.00    -0.283 N  
HETATM   12  O   UNL     1      -9.965   6.691  67.099  1.00  0.00    -0.138 OA 
HETATM   13  C   UNL     1     -11.587  12.400  69.048  1.00  0.00    -0.311 A  
HETATM   14  C   UNL     1     -10.904  10.036  67.770  1.00  0.00    -0.282 A  
HETATM   15  H   UNL     1     -10.361   8.921  66.122  1.00  0.00     0.000 HD 
HETATM   16  C   UNL     1     -11.274  11.266  69.800  1.00  0.00    -0.294 A  
HETATM   17  C   UNL     1     -10.964  10.050  69.162  1.00  0.00    -0.256 A  
ENDROOT
BRANCH   5  18
HETATM   18  C   UNL     1      -9.304   8.846  70.527  1.00  0.00    -0.240 C  
HETATM   19  C   UNL     1      -8.202   8.981  70.992  1.00  0.00    -0.220 C  
BRANCH  19  20
HETATM   20  C   UNL     1      -6.891   9.181  71.525  1.00  0.00    -0.005 C  
HETATM   21  C   UNL     1      -5.700   8.767  70.697  1.00  0.00    -0.028 C  
HETATM   22  C   UNL     1      -5.997  10.224  70.897  1.00  0.00    -0.054 C  
ENDBRANCH  19  20
ENDBRANCH   5  18
TORSDOF 2
ENDMDL
MODEL       68
REMARK 921   NORMALIZED FREE ENERGY PREDICTED BY IDOCK:   -4.56 KCAL/MOL
REMARK 922        TOTAL FREE ENERGY PREDICTED BY IDOCK:   -5.55 KCAL/MOL
REMARK 923 INTER-LIGAND FREE ENERGY PREDICTED BY IDOCK:   -5.10 KCAL/MOL
REMARK 924 INTRA-LIGAND FREE ENERGY PREDICTED BY IDOCK:   -0.44 KCAL/MOL
REMARK 927      BINDING AFFINITY PREDICTED BY RF-SCORE:    0.00 PKD
ROOT
HETATM    1  F   UNL     1      -6.829  10.543  68.020  1.00  0.00    -0.069 F  
HETATM    2  C   UNL     1      -8.018  10.309  68.636  1.00  0.00    -0.111 C  
HETATM    3  F   UNL     1      -8.306  11.426  69.351  1.00  0.00    -0.017 F  
HETATM    4  F   UNL     1      -7.772   9.333  69.547  1.00  0.00    -0.070 F  
HETATM    5  C   UNL     1      -9.153   9.928  67.618  1.00  0.00    -0.131 C  
HETATM    6  O   UNL     1      -8.518   9.822  66.313  1.00  0.00    -0.122 OA 
HETATM    7  C   UNL     1     -10.707   6.454  67.374  1.00  0.00    -0.411 A  
HETATM    8  C   UNL     1      -8.951   8.981  65.354  1.00  0.00    -0.200 C  
HETATM    9 CL   UNL     1     -11.548   6.934  71.244  1.00  0.00    -0.330 Cl 
HETATM   10  C   UNL     1     -11.145   6.220  68.676  1.00  0.00    -0.409 A  
HETATM   11  N   UNL     1      -9.680   7.905  65.759  1.00  0.00    -0.341 N  
HETATM   12  O   UNL     1      -8.643   9.127  64.177  1.00  0.00    -0.191 OA 
HETATM   13  C   UNL     1     -10.988   7.211  69.641  1.00  0.00    -0.212 A  
HETATM   14  C   UNL     1     -10.084   7.664  67.060  1.00  0.00    -0.268 A  
HETATM   15  H   UNL     1      -9.950   7.225  65.049  1.00  0.00     0.000 HD 
HETATM   16  C   UNL     1     -10.374   8.423  69.320  1.00  0.00    -0.220 A  
HETATM   17  C   UNL     1      -9.876   8.649  68.022  1.00  0.00    -0.201 A  
ENDROOT
BRANCH   5  18
HETATM   18  C   UNL     1     -10.133  11.039  67.487  1.00  0.00    -0.208 C  
HETATM   19  C   UNL     1     -10.974  11.891  67.354  1.00  0.00    -0.315 C  
BRANCH  19  20
HETATM   20  C   UNL     1     -11.999  12.871  67.178  1.00  0.00    -0.374 C  
HETATM   21  C   UNL     1     -11.611  14.249  66.703  1.00  0.00    -0.397 C  
HETATM   22  C   UNL     1     -12.347  13.323  65.780  1.00  0.00    -0.505 C  
ENDBRANCH  19  20
ENDBRANCH   5  18
TORSDOF 2
ENDMDL
MODEL       69
REMARK 921   NORMALIZED FREE ENERGY PREDICTED BY IDOCK:   -4.55 KCAL/MOL
REMARK 922        TOTAL FREE ENERGY PREDICTED BY IDOCK:   -5.53 KCAL/MOL
REMARK 923 INTER-LIGAND FREE ENERGY PREDICTED BY IDOCK:   -5.06 KCAL/MOL
REMARK 924 INTRA-LIGAND FREE ENERGY PREDICTED BY IDOCK:   -0.46 KCAL/MOL
REMARK 927      BINDING AFFINITY PREDICTED BY RF-SCORE:    0.00 PKD
ROOT
HETATM    1  F   UNL     1      -7.399  16.288  69.446  1.00  0.00    -0.211 F  
HETATM    2  C   UNL     1      -7.322  16.431  68.097  1.00  0.00    -0.148 C  
HETATM    3  F   UNL     1      -7.495  15.193  67.569  1.00  0.00    -0.142 F  
HETATM    4  F   UNL     1      -6.035  16.775  67.837  1.00  0.00    -0.109 F  
HETATM    5  C   UNL     1      -8.361  17.477  67.548  1.00  0.00    -0.215 C  
HETATM    6  O   UNL     1      -9.005  18.067  68.712  1.00  0.00    -0.289 OA 
HETATM    7  C   UNL     1      -7.393  20.871  66.105  1.00  0.00     0.112 A  
HETATM    8  C   UNL     1      -9.462  19.334  68.731  1.00  0.00    -0.402 C  
HETATM    9 CL   UNL     1      -5.125  18.767  63.584  1.00  0.00    -0.211 Cl 
HETATM   10  C   UNL     1      -6.490  20.532  65.099  1.00  0.00    -0.309 A  
HETATM   11  N   UNL     1      -8.911  20.203  67.841  1.00  0.00    -0.277 N  
HETATM   12  O   UNL     1     -10.282  19.714  69.559  1.00  0.00    -0.270 OA 
HETATM   13  C   UNL     1      -6.222  19.190  64.840  1.00  0.00    -0.260 A  
HETATM   14  C   UNL     1      -7.991  19.864  66.865  1.00  0.00    -0.306 A  
HETATM   15  H   UNL     1      -9.199  21.181  67.897  1.00  0.00     0.000 HD 
HETATM   16  C   UNL     1      -6.831  18.187  65.597  1.00  0.00    -0.241 A  
HETATM   17  C   UNL     1      -7.701  18.519  66.654  1.00  0.00    -0.265 A  
ENDROOT
BRANCH   5  18
HETATM   18  C   UNL     1      -9.450  16.791  66.803  1.00  0.00    -0.261 C  
HETATM   19  C   UNL     1     -10.287  16.232  66.143  1.00  0.00    -0.352 C  
BRANCH  19  20
HETATM   20  C   UNL     1     -11.252  15.567  65.324  1.00  0.00    -0.278 C  
HETATM   21  C   UNL     1     -10.823  14.352  64.539  1.00  0.00    -0.271 C  
HETATM   22  C   UNL     1     -11.728  14.192  65.725  1.00  0.00    -0.360 C  
ENDBRANCH  19  20
ENDBRANCH   5  18
TORSDOF 2
ENDMDL
MODEL       70
REMARK 921   NORMALIZED FREE ENERGY PREDICTED BY IDOCK:   -4.45 KCAL/MOL
REMARK 922        TOTAL FREE ENERGY PREDICTED BY IDOCK:   -5.42 KCAL/MOL
REMARK 923 INTER-LIGAND FREE ENERGY PREDICTED BY IDOCK:   -4.96 KCAL/MOL
REMARK 924 INTRA-LIGAND FREE ENERGY PREDICTED BY IDOCK:   -0.46 KCAL/MOL
REMARK 927      BINDING AFFINITY PREDICTED BY RF-SCORE:    0.00 PKD
ROOT
HETATM    1  F   UNL     1     -10.864   5.100  69.170  1.00  0.00    -0.265 F  
HETATM    2  C   UNL     1     -10.931   6.106  70.080  1.00  0.00    -0.358 C  
HETATM    3  F   UNL     1     -10.645   5.552  71.286  1.00  0.00    -0.274 F  
HETATM    4  F   UNL     1     -12.240   6.466  70.133  1.00  0.00    -0.444 F  
HETATM    5  C   UNL     1      -9.978   7.303  69.719  1.00  0.00    -0.183 C  
HETATM    6  O   UNL     1      -9.405   6.994  68.418  1.00  0.00    -0.132 OA 
HETATM    7  C   UNL     1     -11.211  10.731  68.594  1.00  0.00    -0.333 A  
HETATM    8  C   UNL     1      -9.058   7.944  67.527  1.00  0.00    -0.133 C  
HETATM    9 CL   UNL     1     -13.251  10.742  72.023  1.00  0.00    -0.561 Cl 
HETATM   10  C   UNL     1     -12.067  11.106  69.628  1.00  0.00    -0.406 A  
HETATM   11  N   UNL     1      -9.668   9.155  67.646  1.00  0.00    -0.153 N  
HETATM   12  O   UNL     1      -8.287   7.714  66.603  1.00  0.00    -0.119 OA 
HETATM   13  C   UNL     1     -12.215  10.272  70.733  1.00  0.00    -0.350 A  
HETATM   14  C   UNL     1     -10.541   9.508  68.659  1.00  0.00    -0.210 A  
HETATM   15  H   UNL     1      -9.466   9.856  66.933  1.00  0.00     0.000 HD 
HETATM   16  C   UNL     1     -11.533   9.055  70.798  1.00  0.00    -0.331 A  
HETATM   17  C   UNL     1     -10.711   8.639  69.734  1.00  0.00    -0.215 A  
ENDROOT
BRANCH   5  18
HETATM   18  C   UNL     1      -8.824   7.353  70.654  1.00  0.00    -0.150 C  
HETATM   19  C   UNL     1      -7.856   7.439  71.366  1.00  0.00    -0.095 C  
BRANCH  19  20
HETATM   20  C   UNL     1      -6.689   7.569  72.180  1.00  0.00    -0.055 C  
HETATM   21  C   UNL     1      -6.030   8.922  72.294  1.00  0.00    -0.066 C  
HETATM   22  C   UNL     1      -6.777   8.356  73.466  1.00  0.00    -0.127 C  
ENDBRANCH  19  20
ENDBRANCH   5  18
TORSDOF 2
ENDMDL
MODEL       71
REMARK 921   NORMALIZED FREE ENERGY PREDICTED BY IDOCK:   -4.44 KCAL/MOL
REMARK 922        TOTAL FREE ENERGY PREDICTED BY IDOCK:   -5.41 KCAL/MOL
REMARK 923 INTER-LIGAND FREE ENERGY PREDICTED BY IDOCK:   -4.96 KCAL/MOL
REMARK 924 INTRA-LIGAND FREE ENERGY PREDICTED BY IDOCK:   -0.45 KCAL/MOL
REMARK 927      BINDING AFFINITY PREDICTED BY RF-SCORE:    0.00 PKD
ROOT
HETATM    1  F   UNL     1      -8.022  19.511  65.518  1.00  0.00    -0.262 F  
HETATM    2  C   UNL     1      -7.568  18.473  66.267  1.00  0.00    -0.255 C  
HETATM    3  F   UNL     1      -6.214  18.506  66.188  1.00  0.00    -0.178 F  
HETATM    4  F   UNL     1      -7.957  17.349  65.611  1.00  0.00    -0.214 F  
HETATM    5  C   UNL     1      -8.092  18.533  67.749  1.00  0.00    -0.251 C  
HETATM    6  O   UNL     1      -9.027  19.646  67.810  1.00  0.00    -0.308 OA 
HETATM    7  C   UNL     1     -10.611  16.069  69.208  1.00  0.00    -0.265 A  
HETATM    8  C   UNL     1     -10.086  19.668  68.642  1.00  0.00    -0.447 C  
HETATM    9 CL   UNL     1      -7.991  13.269  68.108  1.00  0.00    -0.140 Cl 
HETATM   10  C   UNL     1     -10.008  14.835  68.971  1.00  0.00    -0.218 A  
HETATM   11  N   UNL     1     -10.549  18.466  69.084  1.00  0.00    -0.269 N  
HETATM   12  O   UNL     1     -10.660  20.710  68.933  1.00  0.00     0.055 OA 
HETATM   13  C   UNL     1      -8.749  14.789  68.380  1.00  0.00    -0.169 A  
HETATM   14  C   UNL     1      -9.962  17.243  68.818  1.00  0.00    -0.325 A  
HETATM   15  H   UNL     1     -11.394  18.469  69.655  1.00  0.00     0.000 HD 
HETATM   16  C   UNL     1      -8.100  15.966  68.001  1.00  0.00    -0.144 A  
HETATM   17  C   UNL     1      -8.723  17.215  68.183  1.00  0.00    -0.232 A  
ENDROOT
BRANCH   5  18
HETATM   18  C   UNL     1      -6.991  18.893  68.680  1.00  0.00    -0.313 C  
HETATM   19  C   UNL     1      -6.133  19.148  69.485  1.00  0.00    -0.294 C  
BRANCH  19  20
HETATM   20  C   UNL     1      -5.138  19.428  70.472  1.00  0.00    -0.220 C  
HETATM   21  C   UNL     1      -5.243  20.709  71.264  1.00  0.00    -0.219 C  
HETATM   22  C   UNL     1      -5.526  19.395  71.932  1.00  0.00    -0.291 C  
ENDBRANCH  19  20
ENDBRANCH   5  18
TORSDOF 2
ENDMDL
MODEL       72
REMARK 921   NORMALIZED FREE ENERGY PREDICTED BY IDOCK:   -4.43 KCAL/MOL
REMARK 922        TOTAL FREE ENERGY PREDICTED BY IDOCK:   -5.39 KCAL/MOL
REMARK 923 INTER-LIGAND FREE ENERGY PREDICTED BY IDOCK:   -4.94 KCAL/MOL
REMARK 924 INTRA-LIGAND FREE ENERGY PREDICTED BY IDOCK:   -0.45 KCAL/MOL
REMARK 927      BINDING AFFINITY PREDICTED BY RF-SCORE:    0.00 PKD
ROOT
HETATM    1  F   UNL     1     -12.680  10.872  69.658  1.00  0.00    -0.342 F  
HETATM    2  C   UNL     1     -11.361  10.576  69.526  1.00  0.00    -0.278 C  
HETATM    3  F   UNL     1     -11.211   9.293  69.941  1.00  0.00    -0.238 F  
HETATM    4  F   UNL     1     -10.719  11.346  70.442  1.00  0.00     0.097 F  
HETATM    5  C   UNL     1     -10.842  10.805  68.059  1.00  0.00    -0.255 C  
HETATM    6  O   UNL     1     -11.946  11.399  67.320  1.00  0.00    -0.580 OA 
HETATM    7  C   UNL     1      -8.418  13.580  67.076  1.00  0.00    -0.137 A  
HETATM    8  C   UNL     1     -11.764  12.259  66.299  1.00  0.00    -0.366 C  
HETATM    9 CL   UNL     1      -6.018  11.992  69.838  1.00  0.00    -0.135 Cl 
HETATM   10  C   UNL     1      -7.338  13.363  67.928  1.00  0.00    -0.140 A  
HETATM   11  N   UNL     1     -10.581  12.931  66.260  1.00  0.00    -0.263 N  
HETATM   12  O   UNL     1     -12.647  12.489  65.481  1.00  0.00    -0.642 OA 
HETATM   13  C   UNL     1      -7.359  12.278  68.800  1.00  0.00    -0.083 A  
HETATM   14  C   UNL     1      -9.525  12.730  67.130  1.00  0.00    -0.223 A  
HETATM   15  H   UNL     1     -10.464  13.636  65.532  1.00  0.00     0.000 HD 
HETATM   16  C   UNL     1      -8.464  11.425  68.843  1.00  0.00    -0.028 A  
HETATM   17  C   UNL     1      -9.586  11.668  68.028  1.00  0.00    -0.184 A  
ENDROOT
BRANCH   5  18
HETATM   18  C   UNL     1     -10.576   9.505  67.389  1.00  0.00    -0.337 C  
HETATM   19  C   UNL     1     -10.397   8.420  66.900  1.00  0.00    -0.378 C  
BRANCH  19  20
HETATM   20  C   UNL     1     -10.205   7.113  66.354  1.00  0.00    -0.003 C  
HETATM   21  C   UNL     1      -9.478   6.081  67.181  1.00  0.00    -0.125 C  
HETATM   22  C   UNL     1     -10.956   5.950  66.959  1.00  0.00    -0.301 C  
ENDBRANCH  19  20
ENDBRANCH   5  18
TORSDOF 2
ENDMDL
MODEL       73
REMARK 921   NORMALIZED FREE ENERGY PREDICTED BY IDOCK:   -4.40 KCAL/MOL
REMARK 922        TOTAL FREE ENERGY PREDICTED BY IDOCK:   -5.37 KCAL/MOL
REMARK 923 INTER-LIGAND FREE ENERGY PREDICTED BY IDOCK:   -4.92 KCAL/MOL
REMARK 924 INTRA-LIGAND FREE ENERGY PREDICTED BY IDOCK:   -0.45 KCAL/MOL
REMARK 927      BINDING AFFINITY PREDICTED BY RF-SCORE:    0.00 PKD
ROOT
HETATM    1  F   UNL     1     -11.767   6.151  68.838  1.00  0.00    -0.390 F  
HETATM    2  C   UNL     1     -10.566   6.163  69.471  1.00  0.00    -0.287 C  
HETATM    3  F   UNL     1      -9.628   6.371  68.512  1.00  0.00    -0.125 F  
HETATM    4  F   UNL     1     -10.373   4.895  69.917  1.00  0.00    -0.311 F  
HETATM    5  C   UNL     1     -10.508   7.234  70.621  1.00  0.00    -0.214 C  
HETATM    6  O   UNL     1     -11.844   7.800  70.724  1.00  0.00    -0.271 OA 
HETATM    7  C   UNL     1     -10.368   6.360  74.330  1.00  0.00    -0.311 A  
HETATM    8  C   UNL     1     -12.360   8.254  71.883  1.00  0.00    -0.338 C  
HETATM    9 CL   UNL     1      -7.114   4.265  73.362  1.00  0.00    -0.063 Cl 
HETATM   10  C   UNL     1      -9.255   5.525  74.409  1.00  0.00    -0.124 A  
HETATM   11  N   UNL     1     -11.823   7.762  73.033  1.00  0.00    -0.601 N  
HETATM   12  O   UNL     1     -13.318   9.017  71.911  1.00  0.00    -0.360 OA 
HETATM   13  C   UNL     1      -8.502   5.276  73.265  1.00  0.00    -0.117 A  
HETATM   14  C   UNL     1     -10.737   6.908  73.100  1.00  0.00    -0.308 A  
HETATM   15  H   UNL     1     -12.255   8.044  73.913  1.00  0.00     0.000 HD 
HETATM   16  C   UNL     1      -8.869   5.835  72.039  1.00  0.00    -0.138 A  
HETATM   17  C   UNL     1     -10.024   6.634  71.935  1.00  0.00    -0.189 A  
ENDROOT
BRANCH   5  18
HETATM   18  C   UNL     1      -9.630   8.370  70.235  1.00  0.00    -0.170 C  
HETATM   19  C   UNL     1      -8.868   9.242  69.906  1.00  0.00    -0.196 C  
BRANCH  19  20
HETATM   20  C   UNL     1      -7.931  10.246  69.507  1.00  0.00    -0.171 C  
HETATM   21  C   UNL     1      -7.325  10.165  68.128  1.00  0.00    -0.082 C  
HETATM   22  C   UNL     1      -8.330  11.236  68.438  1.00  0.00    -0.152 C  
ENDBRANCH  19  20
ENDBRANCH   5  18
TORSDOF 2
ENDMDL
MODEL       74
REMARK 921   NORMALIZED FREE ENERGY PREDICTED BY IDOCK:   -4.40 KCAL/MOL
REMARK 922        TOTAL FREE ENERGY PREDICTED BY IDOCK:   -5.37 KCAL/MOL
REMARK 923 INTER-LIGAND FREE ENERGY PREDICTED BY IDOCK:   -4.91 KCAL/MOL
REMARK 924 INTRA-LIGAND FREE ENERGY PREDICTED BY IDOCK:   -0.45 KCAL/MOL
REMARK 927      BINDING AFFINITY PREDICTED BY RF-SCORE:    0.00 PKD
ROOT
HETATM    1  F   UNL     1      -7.436  10.313  69.202  1.00  0.00    -0.072 F  
HETATM    2  C   UNL     1      -8.239   9.350  69.726  1.00  0.00    -0.143 C  
HETATM    3  F   UNL     1      -8.486   9.714  71.010  1.00  0.00    -0.197 F  
HETATM    4  F   UNL     1      -7.473   8.231  69.793  1.00  0.00    -0.069 F  
HETATM    5  C   UNL     1      -9.553   9.147  68.887  1.00  0.00    -0.152 C  
HETATM    6  O   UNL     1      -9.425   9.994  67.711  1.00  0.00    -0.140 OA 
HETATM    7  C   UNL     1     -10.288   6.029  66.819  1.00  0.00    -0.296 A  
HETATM    8  C   UNL     1      -9.980   9.684  66.523  1.00  0.00    -0.246 C  
HETATM    9 CL   UNL     1      -9.756   4.051  70.243  1.00  0.00    -0.271 Cl 
HETATM   10  C   UNL     1     -10.163   5.002  67.753  1.00  0.00    -0.156 A  
HETATM   11  N   UNL     1     -10.259   8.372  66.294  1.00  0.00    -0.424 N  
HETATM   12  O   UNL     1     -10.159  10.528  65.652  1.00  0.00    -0.250 OA 
HETATM   13  C   UNL     1      -9.888   5.313  69.082  1.00  0.00    -0.187 A  
HETATM   14  C   UNL     1     -10.102   7.354  67.218  1.00  0.00    -0.228 A  
HETATM   15  H   UNL     1     -10.612   8.119  65.371  1.00  0.00     0.000 HD 
HETATM   16  C   UNL     1      -9.713   6.641  69.478  1.00  0.00    -0.156 A  
HETATM   17  C   UNL     1      -9.781   7.683  68.532  1.00  0.00    -0.162 A  
ENDROOT
BRANCH   5  18
HETATM   18  C   UNL     1     -10.731   9.675  69.624  1.00  0.00    -0.260 C  
HETATM   19  C   UNL     1     -11.723  10.100  70.159  1.00  0.00    -0.330 C  
BRANCH  19  20
HETATM   20  C   UNL     1     -12.921  10.604  70.754  1.00  0.00    -0.396 C  
HETATM   21  C   UNL     1     -13.409   9.982  72.039  1.00  0.00    -0.513 C  
HETATM   22  C   UNL     1     -12.827  11.366  72.055  1.00  0.00    -0.265 C  
ENDBRANCH  19  20
ENDBRANCH   5  18
TORSDOF 2
ENDMDL
MODEL       75
REMARK 921   NORMALIZED FREE ENERGY PREDICTED BY IDOCK:   -4.38 KCAL/MOL
REMARK 922        TOTAL FREE ENERGY PREDICTED BY IDOCK:   -5.34 KCAL/MOL
REMARK 923 INTER-LIGAND FREE ENERGY PREDICTED BY IDOCK:   -4.88 KCAL/MOL
REMARK 924 INTRA-LIGAND FREE ENERGY PREDICTED BY IDOCK:   -0.46 KCAL/MOL
REMARK 927      BINDING AFFINITY PREDICTED BY RF-SCORE:    0.00 PKD
ROOT
HETATM    1  F   UNL     1     -11.955  13.012  65.170  1.00  0.00    -0.351 F  
HETATM    2  C   UNL     1     -11.821  13.753  66.302  1.00  0.00    -0.398 C  
HETATM    3  F   UNL     1     -13.014  13.687  66.946  1.00  0.00    -0.085 F  
HETATM    4  F   UNL     1     -11.689  15.038  65.884  1.00  0.00    -0.335 F  
HETATM    5  C   UNL     1     -10.620  13.269  67.194  1.00  0.00    -0.258 C  
HETATM    6  O   UNL     1      -9.937  12.231  66.438  1.00  0.00    -0.219 OA 
HETATM    7  C   UNL     1      -7.423  15.280  67.717  1.00  0.00    -0.178 A  
HETATM    8  C   UNL     1      -8.613  12.004  66.537  1.00  0.00    -0.100 C  
HETATM    9 CL   UNL     1      -9.857  18.167  69.005  1.00  0.00    -0.307 Cl 
HETATM   10  C   UNL     1      -7.900  16.500  68.192  1.00  0.00    -0.168 A  
HETATM   11  N   UNL     1      -7.842  13.033  66.981  1.00  0.00    -0.393 N  
HETATM   12  O   UNL     1      -8.108  10.948  66.175  1.00  0.00    -0.161 OA 
HETATM   13  C   UNL     1      -9.266  16.670  68.398  1.00  0.00    -0.225 A  
HETATM   14  C   UNL     1      -8.322  14.254  67.420  1.00  0.00    -0.198 A  
HETATM   15  H   UNL     1      -6.831  12.894  66.990  1.00  0.00     0.000 HD 
HETATM   16  C   UNL     1     -10.160  15.636  68.109  1.00  0.00    -0.222 A  
HETATM   17  C   UNL     1      -9.696  14.419  67.576  1.00  0.00    -0.215 A  
ENDROOT
BRANCH   5  18
HETATM   18  C   UNL     1     -11.119  12.596  68.422  1.00  0.00    -0.297 C  
HETATM   19  C   UNL     1     -11.482  12.097  69.456  1.00  0.00    -0.334 C  
BRANCH  19  20
HETATM   20  C   UNL     1     -11.888  11.533  70.705  1.00  0.00    -0.279 C  
HETATM   21  C   UNL     1     -13.361  11.362  70.979  1.00  0.00     0.257 C  
HETATM   22  C   UNL     1     -12.507  10.156  70.720  1.00  0.00    -0.417 C  
ENDBRANCH  19  20
ENDBRANCH   5  18
TORSDOF 2
ENDMDL
MODEL       76
REMARK 921   NORMALIZED FREE ENERGY PREDICTED BY IDOCK:   -4.33 KCAL/MOL
REMARK 922        TOTAL FREE ENERGY PREDICTED BY IDOCK:   -5.29 KCAL/MOL
REMARK 923 INTER-LIGAND FREE ENERGY PREDICTED BY IDOCK:   -4.83 KCAL/MOL
REMARK 924 INTRA-LIGAND FREE ENERGY PREDICTED BY IDOCK:   -0.46 KCAL/MOL
REMARK 927      BINDING AFFINITY PREDICTED BY RF-SCORE:    0.00 PKD
ROOT
HETATM    1  F   UNL     1     -12.036   7.802  72.542  1.00  0.00    -0.327 F  
HETATM    2  C   UNL     1     -12.025   7.813  71.184  1.00  0.00    -0.291 C  
HETATM    3  F   UNL     1     -13.141   8.481  70.796  1.00  0.00    -0.064 F  
HETATM    4  F   UNL     1     -12.208   6.522  70.805  1.00  0.00    -0.421 F  
HETATM    5  C   UNL     1     -10.706   8.443  70.603  1.00  0.00    -0.220 C  
HETATM    6  O   UNL     1      -9.839   8.705  71.741  1.00  0.00    -0.238 OA 
HETATM    7  C   UNL     1      -8.033   6.443  68.761  1.00  0.00    -0.110 A  
HETATM    8  C   UNL     1      -8.495   8.660  71.663  1.00  0.00    -0.167 C  
HETATM    9 CL   UNL     1     -11.002   5.373  66.321  1.00  0.00    -0.195 Cl 
HETATM   10  C   UNL     1      -8.754   5.833  67.737  1.00  0.00    -0.107 A  
HETATM   11  N   UNL     1      -7.959   7.919  70.654  1.00  0.00    -0.095 N  
HETATM   12  O   UNL     1      -7.778   9.194  72.500  1.00  0.00    -0.205 OA 
HETATM   13  C   UNL     1     -10.112   6.105  67.598  1.00  0.00    -0.155 A  
HETATM   14  C   UNL     1      -8.686   7.291  69.658  1.00  0.00    -0.141 A  
HETATM   15  H   UNL     1      -6.944   7.820  70.630  1.00  0.00     0.000 HD 
HETATM   16  C   UNL     1     -10.759   6.962  68.492  1.00  0.00    -0.252 A  
HETATM   17  C   UNL     1     -10.053   7.539  69.565  1.00  0.00    -0.189 A  
ENDROOT
BRANCH   5  18
HETATM   18  C   UNL     1     -10.982   9.776  70.005  1.00  0.00    -0.319 C  
HETATM   19  C   UNL     1     -11.214  10.823  69.457  1.00  0.00    -0.342 C  
BRANCH  19  20
HETATM   20  C   UNL     1     -11.492  12.044  68.768  1.00  0.00    -0.355 C  
HETATM   21  C   UNL     1     -10.348  12.797  68.136  1.00  0.00    -0.243 C  
HETATM   22  C   UNL     1     -11.343  12.086  67.266  1.00  0.00    -0.394 C  
ENDBRANCH  19  20
ENDBRANCH   5  18
TORSDOF 2
ENDMDL
MODEL       77
REMARK 921   NORMALIZED FREE ENERGY PREDICTED BY IDOCK:   -4.31 KCAL/MOL
REMARK 922        TOTAL FREE ENERGY PREDICTED BY IDOCK:   -5.26 KCAL/MOL
REMARK 923 INTER-LIGAND FREE ENERGY PREDICTED BY IDOCK:   -4.80 KCAL/MOL
REMARK 924 INTRA-LIGAND FREE ENERGY PREDICTED BY IDOCK:   -0.46 KCAL/MOL
REMARK 927      BINDING AFFINITY PREDICTED BY RF-SCORE:    0.00 PKD
ROOT
HETATM    1  F   UNL     1      -8.263   8.710  63.752  1.00  0.00    -0.145 F  
HETATM    2  C   UNL     1      -8.199   9.947  64.313  1.00  0.00    -0.161 C  
HETATM    3  F   UNL     1      -8.419  10.835  63.310  1.00  0.00    -0.167 F  
HETATM    4  F   UNL     1      -6.903  10.113  64.685  1.00  0.00    -0.117 F  
HETATM    5  C   UNL     1      -9.208  10.115  65.507  1.00  0.00    -0.191 C  
HETATM    6  O   UNL     1      -9.818   8.811  65.716  1.00  0.00    -0.180 OA 
HETATM    7  C   UNL     1      -8.145  10.434  69.154  1.00  0.00    -0.151 A  
HETATM    8  C   UNL     1     -10.233   8.382  66.924  1.00  0.00    -0.313 C  
HETATM    9 CL   UNL     1      -5.980  13.539  67.894  1.00  0.00    -0.134 Cl 
HETATM   10  C   UNL     1      -7.266  11.515  69.126  1.00  0.00    -0.084 A  
HETATM   11  N   UNL     1      -9.664   8.965  68.015  1.00  0.00    -0.152 N  
HETATM   12  O   UNL     1     -11.029   7.459  67.046  1.00  0.00    -0.332 OA 
HETATM   13  C   UNL     1      -7.046  12.190  67.928  1.00  0.00    -0.101 A  
HETATM   14  C   UNL     1      -8.767  10.017  67.976  1.00  0.00    -0.125 A  
HETATM   15  H   UNL     1      -9.918   8.596  68.932  1.00  0.00     0.000 HD 
HETATM   16  C   UNL     1      -7.679  11.775  66.755  1.00  0.00    -0.086 A  
HETATM   17  C   UNL     1      -8.524  10.649  66.759  1.00  0.00    -0.134 A  
ENDROOT
BRANCH   5  18
HETATM   18  C   UNL     1     -10.328  11.014  65.122  1.00  0.00    -0.346 C  
HETATM   19  C   UNL     1     -11.260  11.736  64.879  1.00  0.00    -0.328 C  
BRANCH  19  20
HETATM   20  C   UNL     1     -12.382  12.587  64.632  1.00  0.00    -0.547 C  
HETATM   21  C   UNL     1     -12.634  13.743  65.567  1.00  0.00    -0.551 C  
HETATM   22  C   UNL     1     -12.137  14.006  64.176  1.00  0.00    -0.456 C  
ENDBRANCH  19  20
ENDBRANCH   5  18
TORSDOF 2
ENDMDL
MODEL       78
REMARK 921   NORMALIZED FREE ENERGY PREDICTED BY IDOCK:   -4.30 KCAL/MOL
REMARK 922        TOTAL FREE ENERGY PREDICTED BY IDOCK:   -5.25 KCAL/MOL
REMARK 923 INTER-LIGAND FREE ENERGY PREDICTED BY IDOCK:   -4.79 KCAL/MOL
REMARK 924 INTRA-LIGAND FREE ENERGY PREDICTED BY IDOCK:   -0.46 KCAL/MOL
REMARK 927      BINDING AFFINITY PREDICTED BY RF-SCORE:    0.00 PKD
ROOT
HETATM    1  F   UNL     1      -8.107  10.206  69.668  1.00  0.00    -0.124 F  
HETATM    2  C   UNL     1      -8.077  11.174  68.714  1.00  0.00    -0.140 C  
HETATM    3  F   UNL     1      -7.397  10.654  67.661  1.00  0.00    -0.086 F  
HETATM    4  F   UNL     1      -7.293  12.161  69.218  1.00  0.00    -0.084 F  
HETATM    5  C   UNL     1      -9.517  11.671  68.323  1.00  0.00    -0.191 C  
HETATM    6  O   UNL     1     -10.442  11.004  69.226  1.00  0.00    -0.219 OA 
HETATM    7  C   UNL     1     -10.866  15.136  69.167  1.00  0.00    -0.251 A  
HETATM    8  C   UNL     1     -11.602  11.560  69.628  1.00  0.00    -0.333 C  
HETATM    9 CL   UNL     1      -7.666  16.484  67.203  1.00  0.00    -0.193 Cl 
HETATM   10  C   UNL     1      -9.909  15.984  68.612  1.00  0.00    -0.218 A  
HETATM   11  N   UNL     1     -11.690  12.917  69.567  1.00  0.00    -0.329 N  
HETATM   12  O   UNL     1     -12.513  10.890  70.099  1.00  0.00    -0.314 OA 
HETATM   13  C   UNL     1      -8.837  15.441  67.909  1.00  0.00    -0.168 A  
HETATM   14  C   UNL     1     -10.721  13.753  69.043  1.00  0.00    -0.182 A  
HETATM   15  H   UNL     1     -12.537  13.351  69.937  1.00  0.00     0.000 HD 
HETATM   16  C   UNL     1      -8.702  14.057  67.780  1.00  0.00    -0.185 A  
HETATM   17  C   UNL     1      -9.631  13.189  68.385  1.00  0.00    -0.186 A  
ENDROOT
BRANCH   5  18
HETATM   18  C   UNL     1      -9.884  11.194  66.964  1.00  0.00    -0.212 C  
HETATM   19  C   UNL     1     -10.130  10.851  65.836  1.00  0.00    -0.307 C  
BRANCH  19  20
HETATM   20  C   UNL     1     -10.390  10.472  64.483  1.00  0.00    -0.275 C  
HETATM   21  C   UNL     1     -10.521  11.553  63.439  1.00  0.00    -0.466 C  
HETATM   22  C   UNL     1      -9.309  10.668  63.447  1.00  0.00    -0.324 C  
ENDBRANCH  19  20
ENDBRANCH   5  18
TORSDOF 2
ENDMDL
MODEL       79
REMARK 921   NORMALIZED FREE ENERGY PREDICTED BY IDOCK:   -4.27 KCAL/MOL
REMARK 922        TOTAL FREE ENERGY PREDICTED BY IDOCK:   -5.22 KCAL/MOL
REMARK 923 INTER-LIGAND FREE ENERGY PREDICTED BY IDOCK:   -4.76 KCAL/MOL
REMARK 924 INTRA-LIGAND FREE ENERGY PREDICTED BY IDOCK:   -0.46 KCAL/MOL
REMARK 927      BINDING AFFINITY PREDICTED BY RF-SCORE:    0.00 PKD
ROOT
HETATM    1  F   UNL     1     -11.746   6.208  68.894  1.00  0.00    -0.390 F  
HETATM    2  C   UNL     1     -10.690   7.021  68.627  1.00  0.00    -0.189 C  
HETATM    3  F   UNL     1     -10.840   7.436  67.344  1.00  0.00    -0.322 F  
HETATM    4  F   UNL     1      -9.596   6.215  68.637  1.00  0.00    -0.126 F  
HETATM    5  C   UNL     1     -10.583   8.215  69.644  1.00  0.00    -0.223 C  
HETATM    6  O   UNL     1     -11.607   7.989  70.653  1.00  0.00    -0.272 OA 
HETATM    7  C   UNL     1      -7.808   8.549  72.239  1.00  0.00    -0.122 A  
HETATM    8  C   UNL     1     -11.472   8.384  71.934  1.00  0.00    -0.318 C  
HETATM    9 CL   UNL     1      -5.333   8.332  69.118  1.00  0.00    -0.030 Cl 
HETATM   10  C   UNL     1      -6.652   8.486  71.464  1.00  0.00    -0.070 A  
HETATM   11  N   UNL     1     -10.204   8.571  72.393  1.00  0.00    -0.317 N  
HETATM   12  O   UNL     1     -12.436   8.499  72.681  1.00  0.00    -0.370 OA 
HETATM   13  C   UNL     1      -6.758   8.386  70.080  1.00  0.00    -0.042 A  
HETATM   14  C   UNL     1      -9.059   8.475  71.623  1.00  0.00    -0.229 A  
HETATM   15  H   UNL     1     -10.090   8.799  73.381  1.00  0.00     0.000 HD 
HETATM   16  C   UNL     1      -8.012   8.324  69.468  1.00  0.00    -0.112 A  
HETATM   17  C   UNL     1      -9.186   8.328  70.244  1.00  0.00    -0.155 A  
ENDROOT
BRANCH   5  18
HETATM   18  C   UNL     1     -10.954   9.496  68.988  1.00  0.00    -0.127 C  
HETATM   19  C   UNL     1     -11.231  10.568  68.516  1.00  0.00    -0.332 C  
BRANCH  19  20
HETATM   20  C   UNL     1     -11.546  11.861  67.994  1.00  0.00    -0.401 C  
HETATM   21  C   UNL     1     -11.840  12.982  68.960  1.00  0.00    -0.362 C  
HETATM   22  C   UNL     1     -10.558  12.987  68.180  1.00  0.00    -0.257 C  
ENDBRANCH  19  20
ENDBRANCH   5  18
TORSDOF 2
ENDMDL
MODEL       80
REMARK 921   NORMALIZED FREE ENERGY PREDICTED BY IDOCK:   -4.27 KCAL/MOL
REMARK 922        TOTAL FREE ENERGY PREDICTED BY IDOCK:   -5.22 KCAL/MOL
REMARK 923 INTER-LIGAND FREE ENERGY PREDICTED BY IDOCK:   -4.77 KCAL/MOL
REMARK 924 INTRA-LIGAND FREE ENERGY PREDICTED BY IDOCK:   -0.45 KCAL/MOL
REMARK 927      BINDING AFFINITY PREDICTED BY RF-SCORE:    0.00 PKD
ROOT
HETATM    1  F   UNL     1     -11.948   9.480  71.867  1.00  0.00    -0.413 F  
HETATM    2  C   UNL     1     -11.921   8.136  71.663  1.00  0.00    -0.300 C  
HETATM    3  F   UNL     1     -12.968   7.850  70.847  1.00  0.00    -0.210 F  
HETATM    4  F   UNL     1     -12.217   7.577  72.865  1.00  0.00    -0.139 F  
HETATM    5  C   UNL     1     -10.544   7.649  71.080  1.00  0.00    -0.221 C  
HETATM    6  O   UNL     1      -9.670   8.812  71.063  1.00  0.00    -0.191 OA 
HETATM    7  C   UNL     1      -8.042   5.537  73.034  1.00  0.00    -0.111 A  
HETATM    8  C   UNL     1      -8.335   8.726  71.220  1.00  0.00    -0.176 C  
HETATM    9 CL   UNL     1     -11.068   2.973  73.469  1.00  0.00    -0.320 Cl 
HETATM   10  C   UNL     1      -8.804   4.437  73.423  1.00  0.00    -0.101 A  
HETATM   11  N   UNL     1      -7.857   7.620  71.855  1.00  0.00    -0.085 N  
HETATM   12  O   UNL     1      -7.582   9.630  70.878  1.00  0.00    -0.309 OA 
HETATM   13  C   UNL     1     -10.131   4.340  73.011  1.00  0.00    -0.152 A  
HETATM   14  C   UNL     1      -8.626   6.547  72.266  1.00  0.00    -0.123 A  
HETATM   15  H   UNL     1      -6.855   7.581  72.043  1.00  0.00     0.000 HD 
HETATM   16  C   UNL     1     -10.707   5.348  72.235  1.00  0.00    -0.287 A  
HETATM   17  C   UNL     1      -9.964   6.492  71.884  1.00  0.00    -0.192 A  
ENDROOT
BRANCH   5  18
HETATM   18  C   UNL     1     -10.691   7.248  69.656  1.00  0.00    -0.249 C  
HETATM   19  C   UNL     1     -10.744   6.950  68.491  1.00  0.00    -0.252 C  
BRANCH  19  20
HETATM   20  C   UNL     1     -10.765   6.612  67.102  1.00  0.00    -0.440 C  
HETATM   21  C   UNL     1      -9.454   6.385  66.391  1.00  0.00    -0.169 C  
HETATM   22  C   UNL     1     -10.356   5.221  66.681  1.00  0.00    -0.330 C  
ENDBRANCH  19  20
ENDBRANCH   5  18
TORSDOF 2
ENDMDL
MODEL       81
REMARK 921   NORMALIZED FREE ENERGY PREDICTED BY IDOCK:   -4.26 KCAL/MOL
REMARK 922        TOTAL FREE ENERGY PREDICTED BY IDOCK:   -5.21 KCAL/MOL
REMARK 923 INTER-LIGAND FREE ENERGY PREDICTED BY IDOCK:   -4.77 KCAL/MOL
REMARK 924 INTRA-LIGAND FREE ENERGY PREDICTED BY IDOCK:   -0.43 KCAL/MOL
REMARK 927      BINDING AFFINITY PREDICTED BY RF-SCORE:    0.00 PKD
ROOT
HETATM    1  F   UNL     1      -8.978   7.059  66.373  1.00  0.00    -0.132 F  
HETATM    2  C   UNL     1      -9.935   7.970  66.692  1.00  0.00    -0.256 C  
HETATM    3  F   UNL     1     -11.090   7.274  66.846  1.00  0.00    -0.439 F  
HETATM    4  F   UNL     1     -10.100   8.732  65.580  1.00  0.00    -0.253 F  
HETATM    5  C   UNL     1      -9.557   8.812  67.965  1.00  0.00    -0.142 C  
HETATM    6  O   UNL     1      -8.205   8.421  68.331  1.00  0.00    -0.121 OA 
HETATM    7  C   UNL     1      -8.680  12.522  67.870  1.00  0.00    -0.180 A  
HETATM    8  C   UNL     1      -7.333   9.262  68.921  1.00  0.00    -0.074 C  
HETATM    9 CL   UNL     1     -12.249  12.969  66.143  1.00  0.00    -0.471 Cl 
HETATM   10  C   UNL     1      -9.791  13.086  67.246  1.00  0.00    -0.227 A  
HETATM   11  N   UNL     1      -7.551  10.595  68.752  1.00  0.00    -0.101 N  
HETATM   12  O   UNL     1      -6.345   8.856  69.520  1.00  0.00    -0.042 OA 
HETATM   13  C   UNL     1     -10.866  12.274  66.893  1.00  0.00    -0.251 A  
HETATM   14  C   UNL     1      -8.641  11.146  68.103  1.00  0.00    -0.140 A  
HETATM   15  H   UNL     1      -6.857  11.238  69.134  1.00  0.00     0.000 HD 
HETATM   16  C   UNL     1     -10.826  10.900  67.137  1.00  0.00    -0.337 A  
HETATM   17  C   UNL     1      -9.686  10.310  67.715  1.00  0.00    -0.178 A  
ENDROOT
BRANCH   5  18
HETATM   18  C   UNL     1     -10.405   8.421  69.122  1.00  0.00    -0.229 C  
HETATM   19  C   UNL     1     -11.127   8.059  70.015  1.00  0.00    -0.154 C  
BRANCH  19  20
HETATM   20  C   UNL     1     -12.006   7.603  71.045  1.00  0.00    -0.296 C  
HETATM   21  C   UNL     1     -11.408   7.026  72.305  1.00  0.00    -0.305 C  
HETATM   22  C   UNL     1     -12.072   8.371  72.344  1.00  0.00    -0.443 C  
ENDBRANCH  19  20
ENDBRANCH   5  18
TORSDOF 2
ENDMDL
MODEL       82
REMARK 921   NORMALIZED FREE ENERGY PREDICTED BY IDOCK:   -4.21 KCAL/MOL
REMARK 922        TOTAL FREE ENERGY PREDICTED BY IDOCK:   -5.15 KCAL/MOL
REMARK 923 INTER-LIGAND FREE ENERGY PREDICTED BY IDOCK:   -4.71 KCAL/MOL
REMARK 924 INTRA-LIGAND FREE ENERGY PREDICTED BY IDOCK:   -0.44 KCAL/MOL
REMARK 927      BINDING AFFINITY PREDICTED BY RF-SCORE:    0.00 PKD
ROOT
HETATM    1  F   UNL     1     -10.321   5.369  67.629  1.00  0.00    -0.190 F  
HETATM    2  C   UNL     1     -10.694   6.645  67.907  1.00  0.00    -0.274 C  
HETATM    3  F   UNL     1     -11.744   6.561  68.763  1.00  0.00    -0.294 F  
HETATM    4  F   UNL     1     -11.194   7.142  66.746  1.00  0.00    -0.446 F  
HETATM    5  C   UNL     1      -9.508   7.502  68.482  1.00  0.00    -0.146 C  
HETATM    6  O   UNL     1      -8.322   6.662  68.412  1.00  0.00    -0.120 OA 
HETATM    7  C   UNL     1      -7.846  10.365  66.589  1.00  0.00    -0.120 A  
HETATM    8  C   UNL     1      -7.083   7.159  68.228  1.00  0.00    -0.082 C  
HETATM    9 CL   UNL     1     -11.522  11.900  66.373  1.00  0.00    -0.402 Cl 
HETATM   10  C   UNL     1      -8.921  11.197  66.282  1.00  0.00    -0.202 A  
HETATM   11  N   UNL     1      -6.990   8.385  67.644  1.00  0.00    -0.074 N  
HETATM   12  O   UNL     1      -6.079   6.512  68.500  1.00  0.00    -0.023 OA 
HETATM   13  C   UNL     1     -10.196  10.865  66.731  1.00  0.00    -0.231 A  
HETATM   14  C   UNL     1      -8.064   9.191  67.313  1.00  0.00    -0.106 A  
HETATM   15  H   UNL     1      -6.055   8.737  67.435  1.00  0.00     0.000 HD 
HETATM   16  C   UNL     1     -10.407   9.694  67.463  1.00  0.00    -0.297 A  
HETATM   17  C   UNL     1      -9.339   8.817  67.731  1.00  0.00    -0.157 A  
ENDROOT
BRANCH   5  18
HETATM   18  C   UNL     1      -9.712   7.773  69.930  1.00  0.00    -0.176 C  
HETATM   19  C   UNL     1      -9.940   8.023  71.085  1.00  0.00    -0.206 C  
BRANCH  19  20
HETATM   20  C   UNL     1     -10.248   8.340  72.444  1.00  0.00    -0.397 C  
HETATM   21  C   UNL     1     -10.745   7.240  73.350  1.00  0.00    -0.415 C  
HETATM   22  C   UNL     1      -9.364   7.797  73.542  1.00  0.00    -0.351 C  
ENDBRANCH  19  20
ENDBRANCH   5  18
TORSDOF 2
ENDMDL
MODEL       83
REMARK 921   NORMALIZED FREE ENERGY PREDICTED BY IDOCK:   -4.19 KCAL/MOL
REMARK 922        TOTAL FREE ENERGY PREDICTED BY IDOCK:   -5.13 KCAL/MOL
REMARK 923 INTER-LIGAND FREE ENERGY PREDICTED BY IDOCK:   -4.67 KCAL/MOL
REMARK 924 INTRA-LIGAND FREE ENERGY PREDICTED BY IDOCK:   -0.46 KCAL/MOL
REMARK 927      BINDING AFFINITY PREDICTED BY RF-SCORE:    0.00 PKD
ROOT
HETATM    1  F   UNL     1      -9.062   5.403  68.140  1.00  0.00    -0.109 F  
HETATM    2  C   UNL     1      -9.938   5.377  69.179  1.00  0.00    -0.197 C  
HETATM    3  F   UNL     1     -10.123   4.070  69.493  1.00  0.00    -0.264 F  
HETATM    4  F   UNL     1     -11.120   5.813  68.672  1.00  0.00    -0.337 F  
HETATM    5  C   UNL     1      -9.440   6.232  70.401  1.00  0.00    -0.161 C  
HETATM    6  O   UNL     1      -8.222   6.899  69.967  1.00  0.00    -0.129 OA 
HETATM    7  C   UNL     1     -11.074   9.491  71.517  1.00  0.00    -0.406 A  
HETATM    8  C   UNL     1      -7.842   8.105  70.432  1.00  0.00    -0.090 C  
HETATM    9 CL   UNL     1     -14.409   7.320  71.802  1.00  0.00    -0.573 Cl 
HETATM   10  C   UNL     1     -12.403   9.118  71.714  1.00  0.00    -0.444 A  
HETATM   11  N   UNL     1      -8.817   8.903  70.947  1.00  0.00    -0.200 N  
HETATM   12  O   UNL     1      -6.688   8.504  70.332  1.00  0.00    -0.035 OA 
HETATM   13  C   UNL     1     -12.776   7.789  71.537  1.00  0.00    -0.332 A  
HETATM   14  C   UNL     1     -10.141   8.536  71.110  1.00  0.00    -0.205 A  
HETATM   15  H   UNL     1      -8.551   9.845  71.235  1.00  0.00     0.000 HD 
HETATM   16  C   UNL     1     -11.836   6.835  71.140  1.00  0.00    -0.410 A  
HETATM   17  C   UNL     1     -10.504   7.211  70.882  1.00  0.00    -0.225 A  
ENDROOT
BRANCH   5  18
HETATM   18  C   UNL     1      -9.024   5.349  71.522  1.00  0.00    -0.147 C  
HETATM   19  C   UNL     1      -8.713   4.578  72.393  1.00  0.00    -0.124 C  
BRANCH  19  20
HETATM   20  C   UNL     1      -8.361   3.628  73.402  1.00  0.00    -0.083 C  
HETATM   21  C   UNL     1      -9.349   3.346  74.507  1.00  0.00    -0.117 C  
HETATM   22  C   UNL     1      -9.094   2.309  73.453  1.00  0.00    -0.081 C  
ENDBRANCH  19  20
ENDBRANCH   5  18
TORSDOF 2
ENDMDL
MODEL       84
REMARK 921   NORMALIZED FREE ENERGY PREDICTED BY IDOCK:   -4.16 KCAL/MOL
REMARK 922        TOTAL FREE ENERGY PREDICTED BY IDOCK:   -5.09 KCAL/MOL
REMARK 923 INTER-LIGAND FREE ENERGY PREDICTED BY IDOCK:   -4.63 KCAL/MOL
REMARK 924 INTRA-LIGAND FREE ENERGY PREDICTED BY IDOCK:   -0.46 KCAL/MOL
REMARK 927      BINDING AFFINITY PREDICTED BY RF-SCORE:    0.00 PKD
ROOT
HETATM    1  F   UNL     1      -9.727   6.556  66.384  1.00  0.00    -0.195 F  
HETATM    2  C   UNL     1      -9.708   7.839  66.830  1.00  0.00    -0.227 C  
HETATM    3  F   UNL     1      -9.194   7.802  68.086  1.00  0.00    -0.138 F  
HETATM    4  F   UNL     1     -11.010   8.199  66.967  1.00  0.00    -0.374 F  
HETATM    5  C   UNL     1      -8.904   8.792  65.871  1.00  0.00    -0.186 C  
HETATM    6  O   UNL     1      -8.534   7.993  64.713  1.00  0.00    -0.123 OA 
HETATM    7  C   UNL     1     -10.519  11.510  63.740  1.00  0.00    -0.459 A  
HETATM    8  C   UNL     1      -8.398   8.514  63.478  1.00  0.00    -0.082 C  
HETATM    9 CL   UNL     1     -11.966  12.881  67.195  1.00  0.00    -0.416 Cl 
HETATM   10  C   UNL     1     -11.216  12.267  64.680  1.00  0.00    -0.363 A  
HETATM   11  N   UNL     1      -9.056   9.678  63.223  1.00  0.00    -0.370 N  
HETATM   12  O   UNL     1      -7.776   7.935  62.596  1.00  0.00    -0.117 OA 
HETATM   13  C   UNL     1     -11.128  11.935  66.029  1.00  0.00    -0.322 A  
HETATM   14  C   UNL     1      -9.771  10.407  64.155  1.00  0.00    -0.324 A  
HETATM   15  H   UNL     1      -9.018  10.041  62.270  1.00  0.00     0.000 HD 
HETATM   16  C   UNL     1     -10.369  10.837  66.441  1.00  0.00    -0.306 A  
HETATM   17  C   UNL     1      -9.708  10.031  65.495  1.00  0.00    -0.355 A  
ENDROOT
BRANCH   5  18
HETATM   18  C   UNL     1      -7.618   9.198  66.495  1.00  0.00    -0.093 C  
HETATM   19  C   UNL     1      -6.608   9.522  67.065  1.00  0.00    -0.068 C  
BRANCH  19  20
HETATM   20  C   UNL     1      -5.431   9.905  67.781  1.00  0.00    -0.039 C  
HETATM   21  C   UNL     1      -5.421  11.229  68.504  1.00  0.00    -0.042 C  
HETATM   22  C   UNL     1      -5.475   9.951  69.290  1.00  0.00    -0.035 C  
ENDBRANCH  19  20
ENDBRANCH   5  18
TORSDOF 2
ENDMDL
MODEL       85
REMARK 921   NORMALIZED FREE ENERGY PREDICTED BY IDOCK:   -4.14 KCAL/MOL
REMARK 922        TOTAL FREE ENERGY PREDICTED BY IDOCK:   -5.08 KCAL/MOL
REMARK 923 INTER-LIGAND FREE ENERGY PREDICTED BY IDOCK:   -4.63 KCAL/MOL
REMARK 924 INTRA-LIGAND FREE ENERGY PREDICTED BY IDOCK:   -0.45 KCAL/MOL
REMARK 927      BINDING AFFINITY PREDICTED BY RF-SCORE:    0.00 PKD
ROOT
HETATM    1  F   UNL     1      -7.436   9.252  71.491  1.00  0.00    -0.111 F  
HETATM    2  C   UNL     1      -7.847   9.382  70.203  1.00  0.00    -0.142 C  
HETATM    3  F   UNL     1      -6.996   8.639  69.451  1.00  0.00    -0.049 F  
HETATM    4  F   UNL     1      -7.610  10.677  69.871  1.00  0.00    -0.153 F  
HETATM    5  C   UNL     1      -9.351   8.964  70.011  1.00  0.00    -0.174 C  
HETATM    6  O   UNL     1      -9.873   8.683  71.340  1.00  0.00    -0.208 OA 
HETATM    7  C   UNL     1     -12.150  11.425  69.206  1.00  0.00    -0.356 A  
HETATM    8  C   UNL     1     -11.161   8.884  71.678  1.00  0.00    -0.345 C  
HETATM    9 CL   UNL     1      -9.914  12.408  66.052  1.00  0.00    -0.263 Cl 
HETATM   10  C   UNL     1     -11.687  12.054  68.053  1.00  0.00    -0.398 A  
HETATM   11  N   UNL     1     -11.864   9.779  70.931  1.00  0.00    -0.313 N  
HETATM   12  O   UNL     1     -11.665   8.348  72.658  1.00  0.00    -0.386 OA 
HETATM   13  C   UNL     1     -10.479  11.650  67.489  1.00  0.00    -0.200 A  
HETATM   14  C   UNL     1     -11.384  10.423  69.805  1.00  0.00    -0.289 A  
HETATM   15  H   UNL     1     -12.818   9.991  71.224  1.00  0.00     0.000 HD 
HETATM   16  C   UNL     1      -9.721  10.640  68.086  1.00  0.00    -0.167 A  
HETATM   17  C   UNL     1     -10.152  10.037  69.283  1.00  0.00    -0.226 A  
ENDROOT
BRANCH   5  18
HETATM   18  C   UNL     1      -9.447   7.677  69.272  1.00  0.00    -0.158 C  
HETATM   19  C   UNL     1      -9.452   6.635  68.670  1.00  0.00    -0.128 C  
BRANCH  19  20
HETATM   20  C   UNL     1      -9.414   5.400  67.952  1.00  0.00    -0.137 C  
HETATM   21  C   UNL     1     -10.367   5.201  66.800  1.00  0.00    -0.306 C  
HETATM   22  C   UNL     1      -8.904   5.396  66.530  1.00  0.00    -0.118 C  
ENDBRANCH  19  20
ENDBRANCH   5  18
TORSDOF 2
ENDMDL
MODEL       86
REMARK 921   NORMALIZED FREE ENERGY PREDICTED BY IDOCK:   -4.13 KCAL/MOL
REMARK 922        TOTAL FREE ENERGY PREDICTED BY IDOCK:   -5.07 KCAL/MOL
REMARK 923 INTER-LIGAND FREE ENERGY PREDICTED BY IDOCK:   -4.62 KCAL/MOL
REMARK 924 INTRA-LIGAND FREE ENERGY PREDICTED BY IDOCK:   -0.45 KCAL/MOL
REMARK 927      BINDING AFFINITY PREDICTED BY RF-SCORE:    0.00 PKD
ROOT
HETATM    1  F   UNL     1     -10.797  10.134  71.073  1.00  0.00    -0.378 F  
HETATM    2  C   UNL     1     -11.142   9.525  69.908  1.00  0.00    -0.216 C  
HETATM    3  F   UNL     1     -12.442   9.842  69.679  1.00  0.00     0.017 F  
HETATM    4  F   UNL     1     -11.120   8.193  70.170  1.00  0.00    -0.251 F  
HETATM    5  C   UNL     1     -10.198   9.934  68.718  1.00  0.00    -0.189 C  
HETATM    6  O   UNL     1      -9.148  10.761  69.292  1.00  0.00    -0.143 OA 
HETATM    7  C   UNL     1      -7.713   7.557  67.071  1.00  0.00    -0.111 A  
HETATM    8  C   UNL     1      -7.896  10.803  68.796  1.00  0.00    -0.129 C  
HETATM    9 CL   UNL     1     -10.890   5.236  66.416  1.00  0.00    -0.302 Cl 
HETATM   10  C   UNL     1      -8.518   6.487  66.686  1.00  0.00    -0.116 A  
HETATM   11  N   UNL     1      -7.487   9.734  68.059  1.00  0.00    -0.082 N  
HETATM   12  O   UNL     1      -7.127  11.721  69.054  1.00  0.00    -0.107 OA 
HETATM   13  C   UNL     1      -9.890   6.545  66.910  1.00  0.00    -0.164 A  
HETATM   14  C   UNL     1      -8.285   8.660  67.708  1.00  0.00    -0.118 A  
HETATM   15  H   UNL     1      -6.518   9.724  67.741  1.00  0.00     0.000 HD 
HETATM   16  C   UNL     1     -10.459   7.655  67.539  1.00  0.00    -0.336 A  
HETATM   17  C   UNL     1      -9.649   8.717  67.984  1.00  0.00    -0.168 A  
ENDROOT
BRANCH   5  18
HETATM   18  C   UNL     1     -10.915  10.817  67.762  1.00  0.00    -0.354 C  
HETATM   19  C   UNL     1     -11.434  11.571  66.980  1.00  0.00    -0.290 C  
BRANCH  19  20
HETATM   20  C   UNL     1     -12.012  12.490  66.049  1.00  0.00    -0.456 C  
HETATM   21  C   UNL     1     -11.101  13.425  65.293  1.00  0.00    -0.305 C  
HETATM   22  C   UNL     1     -11.765  12.289  64.573  1.00  0.00    -0.421 C  
ENDBRANCH  19  20
ENDBRANCH   5  18
TORSDOF 2
ENDMDL
MODEL       87
REMARK 921   NORMALIZED FREE ENERGY PREDICTED BY IDOCK:   -4.11 KCAL/MOL
REMARK 922        TOTAL FREE ENERGY PREDICTED BY IDOCK:   -5.05 KCAL/MOL
REMARK 923 INTER-LIGAND FREE ENERGY PREDICTED BY IDOCK:   -4.61 KCAL/MOL
REMARK 924 INTRA-LIGAND FREE ENERGY PREDICTED BY IDOCK:   -0.43 KCAL/MOL
REMARK 927      BINDING AFFINITY PREDICTED BY RF-SCORE:    0.00 PKD
ROOT
HETATM    1  F   UNL     1     -10.876  11.675  69.576  1.00  0.00    -0.253 F  
HETATM    2  C   UNL     1     -10.899  12.310  68.375  1.00  0.00    -0.230 C  
HETATM    3  F   UNL     1     -11.233  13.601  68.631  1.00  0.00    -0.247 F  
HETATM    4  F   UNL     1     -11.948  11.777  67.698  1.00  0.00    -0.365 F  
HETATM    5  C   UNL     1      -9.536  12.176  67.603  1.00  0.00    -0.187 C  
HETATM    6  O   UNL     1      -8.703  11.280  68.390  1.00  0.00    -0.147 OA 
HETATM    7  C   UNL     1      -9.095  10.125  64.419  1.00  0.00    -0.284 A  
HETATM    8  C   UNL     1      -7.782  10.465  67.840  1.00  0.00    -0.089 C  
HETATM    9 CL   UNL     1     -12.026  12.402  62.956  1.00  0.00    -0.282 Cl 
HETATM   10  C   UNL     1     -10.065  10.657  63.572  1.00  0.00    -0.288 A  
HETATM   11  N   UNL     1      -7.951  10.136  66.530  1.00  0.00    -0.116 N  
HETATM   12  O   UNL     1      -6.873   9.975  68.500  1.00  0.00    -0.054 OA 
HETATM   13  C   UNL     1     -10.843  11.727  64.006  1.00  0.00    -0.385 A  
HETATM   14  C   UNL     1      -8.937  10.646  65.705  1.00  0.00    -0.185 A  
HETATM   15  H   UNL     1      -7.301   9.462  66.126  1.00  0.00     0.000 HD 
HETATM   16  C   UNL     1     -10.674  12.251  65.290  1.00  0.00    -0.329 A  
HETATM   17  C   UNL     1      -9.737  11.685  66.175  1.00  0.00    -0.253 A  
ENDROOT
BRANCH   5  18
HETATM   18  C   UNL     1      -8.811  13.475  67.590  1.00  0.00    -0.202 C  
HETATM   19  C   UNL     1      -8.281  14.556  67.614  1.00  0.00    -0.187 C  
BRANCH  19  20
HETATM   20  C   UNL     1      -7.689  15.856  67.661  1.00  0.00    -0.169 C  
HETATM   21  C   UNL     1      -7.974  16.739  68.850  1.00  0.00    -0.237 C  
HETATM   22  C   UNL     1      -6.612  16.132  68.682  1.00  0.00    -0.126 C  
ENDBRANCH  19  20
ENDBRANCH   5  18
TORSDOF 2
ENDMDL
MODEL       88
REMARK 921   NORMALIZED FREE ENERGY PREDICTED BY IDOCK:   -4.10 KCAL/MOL
REMARK 922        TOTAL FREE ENERGY PREDICTED BY IDOCK:   -5.03 KCAL/MOL
REMARK 923 INTER-LIGAND FREE ENERGY PREDICTED BY IDOCK:   -4.59 KCAL/MOL
REMARK 924 INTRA-LIGAND FREE ENERGY PREDICTED BY IDOCK:   -0.44 KCAL/MOL
REMARK 927      BINDING AFFINITY PREDICTED BY RF-SCORE:    0.00 PKD
ROOT
HETATM    1  F   UNL     1     -11.293   6.875  66.877  1.00  0.00    -0.475 F  
HETATM    2  C   UNL     1     -10.448   7.842  67.321  1.00  0.00    -0.320 C  
HETATM    3  F   UNL     1     -11.132   9.013  67.249  1.00  0.00    -0.286 F  
HETATM    4  F   UNL     1      -9.463   7.924  66.390  1.00  0.00    -0.215 F  
HETATM    5  C   UNL     1      -9.904   7.543  68.766  1.00  0.00    -0.166 C  
HETATM    6  O   UNL     1     -10.397   6.222  69.126  1.00  0.00    -0.181 OA 
HETATM    7  C   UNL     1      -6.281   6.624  69.521  1.00  0.00    -0.037 A  
HETATM    8  C   UNL     1      -9.722   5.384  69.936  1.00  0.00    -0.184 C  
HETATM    9 CL   UNL     1      -5.390  10.062  67.705  1.00  0.00    -0.035 Cl 
HETATM   10  C   UNL     1      -5.571   7.684  68.962  1.00  0.00    -0.022 A  
HETATM   11  N   UNL     1      -8.378   5.577  70.042  1.00  0.00    -0.114 N  
HETATM   12  O   UNL     1     -10.270   4.443  70.497  1.00  0.00    -0.178 OA 
HETATM   13  C   UNL     1      -6.263   8.741  68.376  1.00  0.00    -0.054 A  
HETATM   14  C   UNL     1      -7.676   6.614  69.457  1.00  0.00    -0.104 A  
HETATM   15  H   UNL     1      -7.849   4.903  70.596  1.00  0.00     0.000 HD 
HETATM   16  C   UNL     1      -7.658   8.731  68.323  1.00  0.00    -0.096 A  
HETATM   17  C   UNL     1      -8.385   7.639  68.834  1.00  0.00    -0.129 A  
ENDROOT
BRANCH   5  18
HETATM   18  C   UNL     1     -10.511   8.471  69.756  1.00  0.00    -0.220 C  
HETATM   19  C   UNL     1     -11.044   9.168  70.581  1.00  0.00    -0.320 C  
BRANCH  19  20
HETATM   20  C   UNL     1     -11.702   9.960  71.572  1.00  0.00    -0.414 C  
HETATM   21  C   UNL     1     -12.889  10.796  71.161  1.00  0.00    -0.513 C  
HETATM   22  C   UNL     1     -13.096   9.576  72.009  1.00  0.00    -0.528 C  
ENDBRANCH  19  20
ENDBRANCH   5  18
TORSDOF 2
ENDMDL
MODEL       89
REMARK 921   NORMALIZED FREE ENERGY PREDICTED BY IDOCK:   -4.08 KCAL/MOL
REMARK 922        TOTAL FREE ENERGY PREDICTED BY IDOCK:   -5.00 KCAL/MOL
REMARK 923 INTER-LIGAND FREE ENERGY PREDICTED BY IDOCK:   -4.56 KCAL/MOL
REMARK 924 INTRA-LIGAND FREE ENERGY PREDICTED BY IDOCK:   -0.44 KCAL/MOL
REMARK 927      BINDING AFFINITY PREDICTED BY RF-SCORE:    0.00 PKD
ROOT
HETATM    1  F   UNL     1     -11.219   8.095  67.510  1.00  0.00    -0.141 F  
HETATM    2  C   UNL     1     -10.352   9.075  67.875  1.00  0.00    -0.235 C  
HETATM    3  F   UNL     1     -10.611  10.136  67.069  1.00  0.00    -0.271 F  
HETATM    4  F   UNL     1      -9.120   8.626  67.522  1.00  0.00    -0.131 F  
HETATM    5  C   UNL     1     -10.463   9.431  69.403  1.00  0.00    -0.220 C  
HETATM    6  O   UNL     1     -11.398   8.478  69.981  1.00  0.00    -0.158 OA 
HETATM    7  C   UNL     1      -7.753   8.639  71.966  1.00  0.00    -0.096 A  
HETATM    8  C   UNL     1     -11.316   8.053  71.256  1.00  0.00    -0.264 C  
HETATM    9 CL   UNL     1      -5.355  10.747  69.575  1.00  0.00    -0.038 Cl 
HETATM   10  C   UNL     1      -6.625   9.249  71.422  1.00  0.00    -0.027 A  
HETATM   11  N   UNL     1     -10.101   8.148  71.862  1.00  0.00    -0.201 N  
HETATM   12  O   UNL     1     -12.267   7.533  71.828  1.00  0.00    -0.292 OA 
HETATM   13  C   UNL     1      -6.740   9.972  70.238  1.00  0.00    -0.137 A  
HETATM   14  C   UNL     1      -8.978   8.728  71.302  1.00  0.00    -0.231 A  
HETATM   15  H   UNL     1     -10.013   7.763  72.803  1.00  0.00     0.000 HD 
HETATM   16  C   UNL     1      -7.970  10.068  69.582  1.00  0.00    -0.176 A  
HETATM   17  C   UNL     1      -9.104   9.407  70.093  1.00  0.00    -0.262 A  
ENDROOT
BRANCH   5  18
HETATM   18  C   UNL     1     -11.097  10.763  69.586  1.00  0.00    -0.339 C  
HETATM   19  C   UNL     1     -11.674  11.811  69.720  1.00  0.00    -0.408 C  
BRANCH  19  20
HETATM   20  C   UNL     1     -12.398  13.034  69.869  1.00  0.00    -0.177 C  
HETATM   21  C   UNL     1     -12.660  13.557  71.259  1.00  0.00    -0.427 C  
HETATM   22  C   UNL     1     -11.671  14.258  70.374  1.00  0.00    -0.329 C  
ENDBRANCH  19  20
ENDBRANCH   5  18
TORSDOF 2
ENDMDL
MODEL       90
REMARK 921   NORMALIZED FREE ENERGY PREDICTED BY IDOCK:   -4.07 KCAL/MOL
REMARK 922        TOTAL FREE ENERGY PREDICTED BY IDOCK:   -5.00 KCAL/MOL
REMARK 923 INTER-LIGAND FREE ENERGY PREDICTED BY IDOCK:   -4.56 KCAL/MOL
REMARK 924 INTRA-LIGAND FREE ENERGY PREDICTED BY IDOCK:   -0.44 KCAL/MOL
REMARK 927      BINDING AFFINITY PREDICTED BY RF-SCORE:    0.00 PKD
ROOT
HETATM    1  F   UNL     1      -7.287   8.799  71.529  1.00  0.00    -0.085 F  
HETATM    2  C   UNL     1      -8.071   7.862  72.125  1.00  0.00    -0.124 C  
HETATM    3  F   UNL     1      -8.456   8.386  73.316  1.00  0.00    -0.249 F  
HETATM    4  F   UNL     1      -7.245   6.825  72.418  1.00  0.00    -0.081 F  
HETATM    5  C   UNL     1      -9.289   7.441  71.223  1.00  0.00    -0.153 C  
HETATM    6  O   UNL     1      -9.110   8.119  69.948  1.00  0.00    -0.149 OA 
HETATM    7  C   UNL     1      -9.634   4.013  69.590  1.00  0.00    -0.270 A  
HETATM    8  C   UNL     1      -9.535   7.602  68.779  1.00  0.00    -0.152 C  
HETATM    9 CL   UNL     1      -9.287   2.591  73.301  1.00  0.00    -0.100 Cl 
HETATM   10  C   UNL     1      -9.528   3.143  70.673  1.00  0.00    -0.233 A  
HETATM   11  N   UNL     1      -9.708   6.252  68.726  1.00  0.00    -0.127 N  
HETATM   12  O   UNL     1      -9.688   8.296  67.781  1.00  0.00    -0.148 OA 
HETATM   13  C   UNL     1      -9.395   3.661  71.959  1.00  0.00    -0.122 A  
HETATM   14  C   UNL     1      -9.569   5.392  69.800  1.00  0.00    -0.168 A  
HETATM   15  H   UNL     1      -9.959   5.844  67.826  1.00  0.00     0.000 HD 
HETATM   16  C   UNL     1      -9.341   5.041  72.165  1.00  0.00    -0.163 A  
HETATM   17  C   UNL     1      -9.390   5.928  71.073  1.00  0.00    -0.178 A  
ENDROOT
BRANCH   5  18
HETATM   18  C   UNL     1     -10.560   7.978  71.777  1.00  0.00    -0.296 C  
HETATM   19  C   UNL     1     -11.619   8.403  72.160  1.00  0.00    -0.442 C  
BRANCH  19  20
HETATM   20  C   UNL     1     -12.893   8.903  72.573  1.00  0.00    -0.401 C  
HETATM   21  C   UNL     1     -13.482  10.081  71.838  1.00  0.00    -0.449 C  
HETATM   22  C   UNL     1     -14.082   8.717  71.662  1.00  0.00    -0.468 C  
ENDBRANCH  19  20
ENDBRANCH   5  18
TORSDOF 2
ENDMDL
MODEL       91
REMARK 921   NORMALIZED FREE ENERGY PREDICTED BY IDOCK:   -4.02 KCAL/MOL
REMARK 922        TOTAL FREE ENERGY PREDICTED BY IDOCK:   -4.94 KCAL/MOL
REMARK 923 INTER-LIGAND FREE ENERGY PREDICTED BY IDOCK:   -4.49 KCAL/MOL
REMARK 924 INTRA-LIGAND FREE ENERGY PREDICTED BY IDOCK:   -0.45 KCAL/MOL
REMARK 927      BINDING AFFINITY PREDICTED BY RF-SCORE:    0.00 PKD
ROOT
HETATM    1  F   UNL     1      -7.085  14.864  67.424  1.00  0.00    -0.181 F  
HETATM    2  C   UNL     1      -8.144  15.199  68.207  1.00  0.00    -0.138 C  
HETATM    3  F   UNL     1      -7.909  16.460  68.652  1.00  0.00    -0.167 F  
HETATM    4  F   UNL     1      -8.064  14.394  69.297  1.00  0.00    -0.127 F  
HETATM    5  C   UNL     1      -9.514  15.069  67.446  1.00  0.00    -0.201 C  
HETATM    6  O   UNL     1      -9.209  14.493  66.145  1.00  0.00    -0.244 OA 
HETATM    7  C   UNL     1     -12.137  12.417  68.238  1.00  0.00    -0.105 A  
HETATM    8  C   UNL     1     -10.068  13.699  65.477  1.00  0.00    -0.275 C  
HETATM    9 CL   UNL     1     -12.021  13.900  71.940  1.00  0.00     0.144 Cl 
HETATM   10  C   UNL     1     -12.371  12.611  69.598  1.00  0.00    -0.045 A  
HETATM   11  N   UNL     1     -11.019  13.060  66.212  1.00  0.00    -0.281 N  
HETATM   12  O   UNL     1      -9.960  13.496  64.273  1.00  0.00    -0.270 OA 
HETATM   13  C   UNL     1     -11.717  13.642  70.267  1.00  0.00    -0.189 A  
HETATM   14  C   UNL     1     -11.224  13.235  67.569  1.00  0.00    -0.281 A  
HETATM   15  H   UNL     1     -11.627  12.402  65.725  1.00  0.00     0.000 HD 
HETATM   16  C   UNL     1     -10.813  14.464  69.591  1.00  0.00    -0.144 A  
HETATM   17  C   UNL     1     -10.525  14.242  68.230  1.00  0.00    -0.247 A  
ENDROOT
BRANCH   5  18
HETATM   18  C   UNL     1     -10.081  16.413  67.156  1.00  0.00    -0.271 C  
HETATM   19  C   UNL     1     -10.480  17.529  66.949  1.00  0.00    -0.285 C  
BRANCH  19  20
HETATM   20  C   UNL     1     -10.917  18.872  66.722  1.00  0.00    -0.149 C  
HETATM   21  C   UNL     1     -10.596  19.923  67.755  1.00  0.00    -0.460 C  
HETATM   22  C   UNL     1      -9.887  19.937  66.433  1.00  0.00    -0.572 C  
ENDBRANCH  19  20
ENDBRANCH   5  18
TORSDOF 2
ENDMDL
MODEL       92
REMARK 921   NORMALIZED FREE ENERGY PREDICTED BY IDOCK:   -4.02 KCAL/MOL
REMARK 922        TOTAL FREE ENERGY PREDICTED BY IDOCK:   -4.94 KCAL/MOL
REMARK 923 INTER-LIGAND FREE ENERGY PREDICTED BY IDOCK:   -4.47 KCAL/MOL
REMARK 924 INTRA-LIGAND FREE ENERGY PREDICTED BY IDOCK:   -0.47 KCAL/MOL
REMARK 927      BINDING AFFINITY PREDICTED BY RF-SCORE:    0.00 PKD
ROOT
HETATM    1  F   UNL     1      -7.534  11.536  69.463  1.00  0.00    -0.079 F  
HETATM    2  C   UNL     1      -7.515  10.182  69.577  1.00  0.00    -0.133 C  
HETATM    3  F   UNL     1      -6.753   9.899  70.665  1.00  0.00    -0.094 F  
HETATM    4  F   UNL     1      -6.817   9.733  68.502  1.00  0.00    -0.055 F  
HETATM    5  C   UNL     1      -8.960   9.571  69.671  1.00  0.00    -0.188 C  
HETATM    6  O   UNL     1      -9.888  10.674  69.473  1.00  0.00    -0.187 OA 
HETATM    7  C   UNL     1     -10.555   7.464  66.922  1.00  0.00    -0.375 A  
HETATM    8  C   UNL     1     -11.097  10.520  68.900  1.00  0.00    -0.261 C  
HETATM    9 CL   UNL     1      -7.348   5.126  67.328  1.00  0.00    -0.081 Cl 
HETATM   10  C   UNL     1      -9.624   6.444  66.736  1.00  0.00    -0.189 A  
HETATM   11  N   UNL     1     -11.263   9.438  68.090  1.00  0.00    -0.497 N  
HETATM   12  O   UNL     1     -11.988  11.349  69.035  1.00  0.00    -0.329 OA 
HETATM   13  C   UNL     1      -8.488   6.397  67.539  1.00  0.00    -0.116 A  
HETATM   14  C   UNL     1     -10.321   8.447  67.886  1.00  0.00    -0.221 A  
HETATM   15  H   UNL     1     -12.152   9.353  67.595  1.00  0.00     0.000 HD 
HETATM   16  C   UNL     1      -8.264   7.376  68.508  1.00  0.00    -0.125 A  
HETATM   17  C   UNL     1      -9.168   8.444  68.667  1.00  0.00    -0.143 A  
ENDROOT
BRANCH   5  18
HETATM   18  C   UNL     1      -9.230   9.074  71.047  1.00  0.00    -0.331 C  
HETATM   19  C   UNL     1      -9.429   8.607  72.138  1.00  0.00    -0.373 C  
BRANCH  19  20
HETATM   20  C   UNL     1      -9.653   8.011  73.418  1.00  0.00    -0.277 C  
HETATM   21  C   UNL     1      -9.791   6.511  73.505  1.00  0.00    -0.211 C  
HETATM   22  C   UNL     1      -8.557   7.178  74.039  1.00  0.00    -0.205 C  
ENDBRANCH  19  20
ENDBRANCH   5  18
TORSDOF 2
ENDMDL
MODEL       93
REMARK 921   NORMALIZED FREE ENERGY PREDICTED BY IDOCK:   -4.00 KCAL/MOL
REMARK 922        TOTAL FREE ENERGY PREDICTED BY IDOCK:   -4.92 KCAL/MOL
REMARK 923 INTER-LIGAND FREE ENERGY PREDICTED BY IDOCK:   -4.47 KCAL/MOL
REMARK 924 INTRA-LIGAND FREE ENERGY PREDICTED BY IDOCK:   -0.44 KCAL/MOL
REMARK 927      BINDING AFFINITY PREDICTED BY RF-SCORE:    0.00 PKD
ROOT
HETATM    1  F   UNL     1      -6.791   8.331  71.760  1.00  0.00    -0.056 F  
HETATM    2  C   UNL     1      -7.730   8.472  70.788  1.00  0.00    -0.087 C  
HETATM    3  F   UNL     1      -7.217   7.896  69.671  1.00  0.00    -0.063 F  
HETATM    4  F   UNL     1      -7.795   9.803  70.530  1.00  0.00    -0.158 F  
HETATM    5  C   UNL     1      -9.117   7.858  71.206  1.00  0.00    -0.139 C  
HETATM    6  O   UNL     1      -8.979   7.436  72.591  1.00  0.00    -0.130 OA 
HETATM    7  C   UNL     1     -12.226   9.943  71.932  1.00  0.00    -0.333 A  
HETATM    8  C   UNL     1     -10.008   7.436  73.462  1.00  0.00    -0.326 C  
HETATM    9 CL   UNL     1     -11.690  11.397  68.256  1.00  0.00    -0.375 Cl 
HETATM   10  C   UNL     1     -12.375  10.691  70.767  1.00  0.00    -0.472 A  
HETATM   11  N   UNL     1     -11.053   8.263  73.184  1.00  0.00     0.031 N  
HETATM   12  O   UNL     1      -9.979   6.783  74.498  1.00  0.00    -0.319 OA 
HETATM   13  C   UNL     1     -11.496  10.492  69.706  1.00  0.00    -0.294 A  
HETATM   14  C   UNL     1     -11.177   9.027  72.038  1.00  0.00    -0.309 A  
HETATM   15  H   UNL     1     -11.802   8.323  73.874  1.00  0.00     0.000 HD 
HETATM   16  C   UNL     1     -10.455   9.567  69.812  1.00  0.00    -0.253 A  
HETATM   17  C   UNL     1     -10.260   8.846  71.006  1.00  0.00    -0.322 A  
ENDROOT
BRANCH   5  18
HETATM   18  C   UNL     1      -9.389   6.612  70.442  1.00  0.00    -0.160 C  
HETATM   19  C   UNL     1      -9.558   5.571  69.861  1.00  0.00    -0.217 C  
BRANCH  19  20
HETATM   20  C   UNL     1      -9.725   4.317  69.196  1.00  0.00    -0.226 C  
HETATM   21  C   UNL     1      -8.951   4.062  67.926  1.00  0.00    -0.152 C  
HETATM   22  C   UNL     1      -8.576   3.337  69.185  1.00  0.00    -0.113 C  
ENDBRANCH  19  20
ENDBRANCH   5  18
TORSDOF 2
ENDMDL
MODEL       94
REMARK 921   NORMALIZED FREE ENERGY PREDICTED BY IDOCK:   -3.99 KCAL/MOL
REMARK 922        TOTAL FREE ENERGY PREDICTED BY IDOCK:   -4.91 KCAL/MOL
REMARK 923 INTER-LIGAND FREE ENERGY PREDICTED BY IDOCK:   -4.47 KCAL/MOL
REMARK 924 INTRA-LIGAND FREE ENERGY PREDICTED BY IDOCK:   -0.44 KCAL/MOL
REMARK 927      BINDING AFFINITY PREDICTED BY RF-SCORE:    0.00 PKD
ROOT
HETATM    1  F   UNL     1     -11.914   3.930  73.210  1.00  0.00    -0.241 F  
HETATM    2  C   UNL     1     -10.654   4.118  72.736  1.00  0.00    -0.148 C  
HETATM    3  F   UNL     1     -10.411   3.094  71.878  1.00  0.00    -0.223 F  
HETATM    4  F   UNL     1      -9.830   3.923  73.797  1.00  0.00    -0.116 F  
HETATM    5  C   UNL     1     -10.472   5.529  72.067  1.00  0.00    -0.222 C  
HETATM    6  O   UNL     1     -11.714   6.253  72.289  1.00  0.00    -0.302 OA 
HETATM    7  C   UNL     1      -8.338   8.320  73.548  1.00  0.00    -0.259 A  
HETATM    8  C   UNL     1     -11.767   7.592  72.426  1.00  0.00    -0.317 C  
HETATM    9 CL   UNL     1      -5.380   5.644  73.447  1.00  0.00    -0.023 Cl 
HETATM   10  C   UNL     1      -7.095   7.709  73.703  1.00  0.00    -0.110 A  
HETATM   11  N   UNL     1     -10.624   8.218  72.822  1.00  0.00    -0.317 N  
HETATM   12  O   UNL     1     -12.809   8.219  72.277  1.00  0.00    -0.325 OA 
HETATM   13  C   UNL     1      -6.919   6.395  73.279  1.00  0.00    -0.078 A  
HETATM   14  C   UNL     1      -9.402   7.598  73.003  1.00  0.00    -0.210 A  
HETATM   15  H   UNL     1     -10.674   9.222  72.998  1.00  0.00     0.000 HD 
HETATM   16  C   UNL     1      -7.983   5.680  72.725  1.00  0.00    -0.102 A  
HETATM   17  C   UNL     1      -9.258   6.267  72.616  1.00  0.00    -0.142 A  
ENDROOT
BRANCH   5  18
HETATM   18  C   UNL     1     -10.355   5.397  70.590  1.00  0.00    -0.333 C  
HETATM   19  C   UNL     1     -10.223   5.228  69.406  1.00  0.00    -0.321 C  
BRANCH  19  20
HETATM   20  C   UNL     1     -10.043   4.991  68.008  1.00  0.00    -0.169 C  
HETATM   21  C   UNL     1     -10.705   5.923  67.023  1.00  0.00    -0.396 C  
HETATM   22  C   UNL     1      -9.215   5.962  67.201  1.00  0.00    -0.116 C  
ENDBRANCH  19  20
ENDBRANCH   5  18
TORSDOF 2
ENDMDL
MODEL       95
REMARK 921   NORMALIZED FREE ENERGY PREDICTED BY IDOCK:   -3.96 KCAL/MOL
REMARK 922        TOTAL FREE ENERGY PREDICTED BY IDOCK:   -4.87 KCAL/MOL
REMARK 923 INTER-LIGAND FREE ENERGY PREDICTED BY IDOCK:   -4.41 KCAL/MOL
REMARK 924 INTRA-LIGAND FREE ENERGY PREDICTED BY IDOCK:   -0.46 KCAL/MOL
REMARK 927      BINDING AFFINITY PREDICTED BY RF-SCORE:    0.00 PKD
ROOT
HETATM    1  F   UNL     1     -11.201   7.196  67.236  1.00  0.00    -0.360 F  
HETATM    2  C   UNL     1     -10.790   6.433  68.282  1.00  0.00    -0.309 C  
HETATM    3  F   UNL     1     -10.400   5.243  67.759  1.00  0.00    -0.204 F  
HETATM    4  F   UNL     1     -11.907   6.176  69.010  1.00  0.00    -0.334 F  
HETATM    5  C   UNL     1      -9.656   7.130  69.120  1.00  0.00    -0.154 C  
HETATM    6  O   UNL     1      -9.495   8.464  68.563  1.00  0.00    -0.145 OA 
HETATM    7  C   UNL     1     -10.143   8.442  72.666  1.00  0.00    -0.322 A  
HETATM    8  C   UNL     1      -9.115   9.525  69.302  1.00  0.00    -0.161 C  
HETATM    9 CL   UNL     1     -11.280   4.715  73.522  1.00  0.00    -0.408 Cl 
HETATM   10  C   UNL     1     -10.610   7.321  73.349  1.00  0.00    -0.435 A  
HETATM   11  N   UNL     1      -9.334   9.453  70.644  1.00  0.00    -0.260 N  
HETATM   12  O   UNL     1      -8.662  10.542  68.791  1.00  0.00    -0.137 OA 
HETATM   13  C   UNL     1     -10.725   6.107  72.678  1.00  0.00    -0.229 A  
HETATM   14  C   UNL     1      -9.829   8.346  71.309  1.00  0.00    -0.198 A  
HETATM   15  H   UNL     1      -9.116  10.279  71.202  1.00  0.00     0.000 HD 
HETATM   16  C   UNL     1     -10.400   6.013  71.323  1.00  0.00    -0.266 A  
HETATM   17  C   UNL     1      -9.981   7.152  70.608  1.00  0.00    -0.195 A  
ENDROOT
BRANCH   5  18
HETATM   18  C   UNL     1      -8.351   6.453  68.900  1.00  0.00    -0.121 C  
HETATM   19  C   UNL     1      -7.309   5.863  68.779  1.00  0.00    -0.084 C  
BRANCH  19  20
HETATM   20  C   UNL     1      -6.081   5.138  68.672  1.00  0.00    -0.029 C  
HETATM   21  C   UNL     1      -6.055   3.690  69.096  1.00  0.00    -0.028 C  
HETATM   22  C   UNL     1      -5.966   4.042  67.640  1.00  0.00    -0.027 C  
ENDBRANCH  19  20
ENDBRANCH   5  18
TORSDOF 2
ENDMDL
MODEL       96
REMARK 921   NORMALIZED FREE ENERGY PREDICTED BY IDOCK:   -3.95 KCAL/MOL
REMARK 922        TOTAL FREE ENERGY PREDICTED BY IDOCK:   -4.86 KCAL/MOL
REMARK 923 INTER-LIGAND FREE ENERGY PREDICTED BY IDOCK:   -4.42 KCAL/MOL
REMARK 924 INTRA-LIGAND FREE ENERGY PREDICTED BY IDOCK:   -0.44 KCAL/MOL
REMARK 927      BINDING AFFINITY PREDICTED BY RF-SCORE:    0.00 PKD
ROOT
HETATM    1  F   UNL     1      -7.137   8.800  68.461  1.00  0.00    -0.067 F  
HETATM    2  C   UNL     1      -7.845   8.940  69.612  1.00  0.00    -0.090 C  
HETATM    3  F   UNL     1      -7.659  10.220  70.025  1.00  0.00    -0.139 F  
HETATM    4  F   UNL     1      -7.219   8.155  70.525  1.00  0.00    -0.046 F  
HETATM    5  C   UNL     1      -9.364   8.576  69.426  1.00  0.00    -0.154 C  
HETATM    6  O   UNL     1      -9.503   8.070  68.069  1.00  0.00    -0.144 OA 
HETATM    7  C   UNL     1     -11.012   5.501  70.963  1.00  0.00    -0.193 A  
HETATM    8  C   UNL     1     -10.416   7.142  67.724  1.00  0.00    -0.223 C  
HETATM    9 CL   UNL     1      -9.699   6.958  74.437  1.00  0.00    -0.300 Cl 
HETATM   10  C   UNL     1     -10.725   5.642  72.320  1.00  0.00    -0.281 A  
HETATM   11  N   UNL     1     -10.890   6.342  68.718  1.00  0.00    -0.301 N  
HETATM   12  O   UNL     1     -10.755   6.968  66.559  1.00  0.00    -0.148 OA 
HETATM   13  C   UNL     1     -10.035   6.768  72.761  1.00  0.00    -0.173 A  
HETATM   14  C   UNL     1     -10.574   6.469  70.058  1.00  0.00    -0.230 A  
HETATM   15  H   UNL     1     -11.526   5.589  68.454  1.00  0.00     0.000 HD 
HETATM   16  C   UNL     1      -9.609   7.740  71.853  1.00  0.00    -0.210 A  
HETATM   17  C   UNL     1      -9.843   7.579  70.474  1.00  0.00    -0.183 A  
ENDROOT
BRANCH   5  18
HETATM   18  C   UNL     1     -10.205   9.801  69.475  1.00  0.00    -0.238 C  
HETATM   19  C   UNL     1     -10.940  10.755  69.483  1.00  0.00    -0.317 C  
BRANCH  19  20
HETATM   20  C   UNL     1     -11.843  11.863  69.472  1.00  0.00    -0.395 C  
HETATM   21  C   UNL     1     -11.291  13.250  69.687  1.00  0.00    -0.191 C  
HETATM   22  C   UNL     1     -11.781  12.846  68.327  1.00  0.00    -0.390 C  
ENDBRANCH  19  20
ENDBRANCH   5  18
TORSDOF 2
ENDMDL
MODEL       97
REMARK 921   NORMALIZED FREE ENERGY PREDICTED BY IDOCK:   -3.94 KCAL/MOL
REMARK 922        TOTAL FREE ENERGY PREDICTED BY IDOCK:   -4.85 KCAL/MOL
REMARK 923 INTER-LIGAND FREE ENERGY PREDICTED BY IDOCK:   -4.43 KCAL/MOL
REMARK 924 INTRA-LIGAND FREE ENERGY PREDICTED BY IDOCK:   -0.43 KCAL/MOL
REMARK 927      BINDING AFFINITY PREDICTED BY RF-SCORE:    0.00 PKD
ROOT
HETATM    1  F   UNL     1     -11.126   7.824  67.687  1.00  0.00    -0.223 F  
HETATM    2  C   UNL     1     -10.022   8.475  68.138  1.00  0.00    -0.181 C  
HETATM    3  F   UNL     1      -9.607   9.275  67.123  1.00  0.00    -0.161 F  
HETATM    4  F   UNL     1      -9.067   7.521  68.281  1.00  0.00    -0.133 F  
HETATM    5  C   UNL     1     -10.300   9.271  69.466  1.00  0.00    -0.216 C  
HETATM    6  O   UNL     1     -11.659   8.943  69.866  1.00  0.00     0.004 OA 
HETATM    7  C   UNL     1      -8.847   8.310  72.858  1.00  0.00    -0.302 A  
HETATM    8  C   UNL     1     -12.054   8.905  71.154  1.00  0.00    -0.277 C  
HETATM    9 CL   UNL     1      -5.308   8.594  71.039  1.00  0.00    -0.028 Cl 
HETATM   10  C   UNL     1      -7.477   8.274  72.608  1.00  0.00    -0.153 A  
HETATM   11  N   UNL     1     -11.086   8.715  72.092  1.00  0.00    -0.362 N  
HETATM   12  O   UNL     1     -13.236   8.963  71.470  1.00  0.00    -0.336 OA 
HETATM   13  C   UNL     1      -7.000   8.614  71.345  1.00  0.00    -0.085 A  
HETATM   14  C   UNL     1      -9.730   8.650  71.831  1.00  0.00    -0.313 A  
HETATM   15  H   UNL     1     -11.385   8.613  73.062  1.00  0.00     0.000 HD 
HETATM   16  C   UNL     1      -7.887   8.963  70.324  1.00  0.00    -0.104 A  
HETATM   17  C   UNL     1      -9.277   8.947  70.548  1.00  0.00    -0.239 A  
ENDROOT
BRANCH   5  18
HETATM   18  C   UNL     1     -10.310  10.735  69.206  1.00  0.00    -0.228 C  
HETATM   19  C   UNL     1     -10.373  11.909  68.949  1.00  0.00    -0.131 C  
BRANCH  19  20
HETATM   20  C   UNL     1     -10.481  13.295  68.615  1.00  0.00    -0.242 C  
HETATM   21  C   UNL     1     -11.792  13.810  68.073  1.00  0.00    -0.408 C  
HETATM   22  C   UNL     1     -11.360  14.185  69.460  1.00  0.00    -0.308 C  
ENDBRANCH  19  20
ENDBRANCH   5  18
TORSDOF 2
ENDMDL
MODEL       98
REMARK 921   NORMALIZED FREE ENERGY PREDICTED BY IDOCK:   -3.94 KCAL/MOL
REMARK 922        TOTAL FREE ENERGY PREDICTED BY IDOCK:   -4.85 KCAL/MOL
REMARK 923 INTER-LIGAND FREE ENERGY PREDICTED BY IDOCK:   -4.40 KCAL/MOL
REMARK 924 INTRA-LIGAND FREE ENERGY PREDICTED BY IDOCK:   -0.45 KCAL/MOL
REMARK 927      BINDING AFFINITY PREDICTED BY RF-SCORE:    0.00 PKD
ROOT
HETATM    1  F   UNL     1     -10.786   5.502  68.837  1.00  0.00    -0.290 F  
HETATM    2  C   UNL     1     -10.181   6.694  69.081  1.00  0.00    -0.179 C  
HETATM    3  F   UNL     1     -10.704   7.578  68.194  1.00  0.00    -0.235 F  
HETATM    4  F   UNL     1      -8.882   6.526  68.722  1.00  0.00    -0.124 F  
HETATM    5  C   UNL     1     -10.351   7.156  70.574  1.00  0.00    -0.202 C  
HETATM    6  O   UNL     1     -11.016   6.065  71.269  1.00  0.00    -0.264 OA 
HETATM    7  C   UNL     1      -7.491   7.295  73.091  1.00  0.00    -0.083 A  
HETATM    8  C   UNL     1     -10.812   5.797  72.574  1.00  0.00    -0.250 C  
HETATM    9 CL   UNL     1      -5.721   9.684  70.431  1.00  0.00    -0.043 Cl 
HETATM   10  C   UNL     1      -6.556   8.106  72.452  1.00  0.00    -0.083 A  
HETATM   11  N   UNL     1      -9.649   6.242  73.122  1.00  0.00    -0.149 N  
HETATM   12  O   UNL     1     -11.597   5.119  73.226  1.00  0.00    -0.297 OA 
HETATM   13  C   UNL     1      -6.863   8.663  71.213  1.00  0.00    -0.075 A  
HETATM   14  C   UNL     1      -8.710   7.021  72.469  1.00  0.00    -0.123 A  
HETATM   15  H   UNL     1      -9.453   5.981  74.088  1.00  0.00     0.000 HD 
HETATM   16  C   UNL     1      -8.089   8.394  70.600  1.00  0.00    -0.114 A  
HETATM   17  C   UNL     1      -9.018   7.530  71.210  1.00  0.00    -0.142 A  
ENDROOT
BRANCH   5  18
HETATM   18  C   UNL     1     -11.290   8.306  70.661  1.00  0.00    -0.257 C  
HETATM   19  C   UNL     1     -12.019   9.264  70.673  1.00  0.00    -0.206 C  
BRANCH  19  20
HETATM   20  C   UNL     1     -12.863  10.417  70.651  1.00  0.00    -0.393 C  
HETATM   21  C   UNL     1     -13.000  11.240  71.908  1.00  0.00    -0.471 C  
HETATM   22  C   UNL     1     -12.233  11.787  70.739  1.00  0.00    -0.424 C  
ENDBRANCH  19  20
ENDBRANCH   5  18
TORSDOF 2
ENDMDL
MODEL       99
REMARK 921   NORMALIZED FREE ENERGY PREDICTED BY IDOCK:   -3.94 KCAL/MOL
REMARK 922        TOTAL FREE ENERGY PREDICTED BY IDOCK:   -4.85 KCAL/MOL
REMARK 923 INTER-LIGAND FREE ENERGY PREDICTED BY IDOCK:   -4.40 KCAL/MOL
REMARK 924 INTRA-LIGAND FREE ENERGY PREDICTED BY IDOCK:   -0.45 KCAL/MOL
REMARK 927      BINDING AFFINITY PREDICTED BY RF-SCORE:    0.00 PKD
ROOT
HETATM    1  F   UNL     1      -9.618   6.673  66.234  1.00  0.00    -0.197 F  
HETATM    2  C   UNL     1     -10.333   6.290  67.324  1.00  0.00    -0.216 C  
HETATM    3  F   UNL     1     -10.898   5.096  67.012  1.00  0.00    -0.274 F  
HETATM    4  F   UNL     1     -11.357   7.177  67.420  1.00  0.00    -0.290 F  
HETATM    5  C   UNL     1      -9.451   6.225  68.624  1.00  0.00    -0.121 C  
HETATM    6  O   UNL     1      -8.138   6.733  68.256  1.00  0.00    -0.113 OA 
HETATM    7  C   UNL     1      -9.800   8.648  71.547  1.00  0.00    -0.342 A  
HETATM    8  C   UNL     1      -7.337   7.385  69.122  1.00  0.00    -0.090 C  
HETATM    9 CL   UNL     1     -13.607   7.459  71.632  1.00  0.00    -0.447 Cl 
HETATM   10  C   UNL     1     -11.147   8.531  71.886  1.00  0.00    -0.395 A  
HETATM   11  N   UNL     1      -7.935   7.976  70.192  1.00  0.00    -0.103 N  
HETATM   12  O   UNL     1      -6.135   7.510  68.923  1.00  0.00    -0.029 OA 
HETATM   13  C   UNL     1     -11.950   7.623  71.202  1.00  0.00    -0.297 A  
HETATM   14  C   UNL     1      -9.280   7.881  70.503  1.00  0.00    -0.158 A  
HETATM   15  H   UNL     1      -7.347   8.532  70.812  1.00  0.00     0.000 HD 
HETATM   16  C   UNL     1     -11.422   6.850  70.165  1.00  0.00    -0.354 A  
HETATM   17  C   UNL     1     -10.078   7.001  69.776  1.00  0.00    -0.197 A  
ENDROOT
BRANCH   5  18
HETATM   18  C   UNL     1      -9.225   4.813  69.032  1.00  0.00    -0.174 C  
HETATM   19  C   UNL     1      -9.111   3.657  69.347  1.00  0.00    -0.201 C  
BRANCH  19  20
HETATM   20  C   UNL     1      -9.019   2.278  69.710  1.00  0.00    -0.154 C  
HETATM   21  C   UNL     1      -7.998   1.866  70.742  1.00  0.00    -0.045 C  
HETATM   22  C   UNL     1      -9.458   1.854  71.091  1.00  0.00    -0.206 C  
ENDBRANCH  19  20
ENDBRANCH   5  18
TORSDOF 2
ENDMDL
MODEL      100
REMARK 921   NORMALIZED FREE ENERGY PREDICTED BY IDOCK:   -3.90 KCAL/MOL
REMARK 922        TOTAL FREE ENERGY PREDICTED BY IDOCK:   -4.81 KCAL/MOL
REMARK 923 INTER-LIGAND FREE ENERGY PREDICTED BY IDOCK:   -4.37 KCAL/MOL
REMARK 924 INTRA-LIGAND FREE ENERGY PREDICTED BY IDOCK:   -0.44 KCAL/MOL
REMARK 927      BINDING AFFINITY PREDICTED BY RF-SCORE:    0.00 PKD
ROOT
HETATM    1  F   UNL     1      -7.581   9.767  65.269  1.00  0.00    -0.102 F  
HETATM    2  C   UNL     1      -8.850  10.123  65.598  1.00  0.00    -0.165 C  
HETATM    3  F   UNL     1      -9.616   9.015  65.429  1.00  0.00    -0.303 F  
HETATM    4  F   UNL     1      -9.244  11.002  64.640  1.00  0.00    -0.204 F  
HETATM    5  C   UNL     1      -8.946  10.714  67.052  1.00  0.00    -0.137 C  
HETATM    6  O   UNL     1      -7.582  10.810  67.549  1.00  0.00    -0.092 OA 
HETATM    7  C   UNL     1      -9.698  14.375  67.808  1.00  0.00    -0.221 A  
HETATM    8  C   UNL     1      -7.185  11.757  68.420  1.00  0.00    -0.089 C  
HETATM    9 CL   UNL     1     -13.000  13.787  65.648  1.00  0.00    -0.460 Cl 
HETATM   10  C   UNL     1     -10.898  14.590  67.132  1.00  0.00    -0.296 A  
HETATM   11  N   UNL     1      -7.929  12.896  68.476  1.00  0.00    -0.252 N  
HETATM   12  O   UNL     1      -6.161  11.640  69.082  1.00  0.00    -0.056 OA 
HETATM   13  C   UNL     1     -11.508  13.532  66.463  1.00  0.00    -0.339 A  
HETATM   14  C   UNL     1      -9.103  13.113  67.777  1.00  0.00    -0.200 A  
HETATM   15  H   UNL     1      -7.595  13.647  69.079  1.00  0.00     0.000 HD 
HETATM   16  C   UNL     1     -10.913  12.268  66.444  1.00  0.00    -0.326 A  
HETATM   17  C   UNL     1      -9.673  12.054  67.075  1.00  0.00    -0.204 A  
ENDROOT
BRANCH   5  18
HETATM   18  C   UNL     1      -9.629   9.757  67.962  1.00  0.00    -0.160 C  
HETATM   19  C   UNL     1     -10.239   8.985  68.655  1.00  0.00    -0.226 C  
BRANCH  19  20
HETATM   20  C   UNL     1     -10.999   8.072  69.451  1.00  0.00    -0.021 C  
HETATM   21  C   UNL     1     -10.668   6.602  69.384  1.00  0.00    -0.303 C  
HETATM   22  C   UNL     1     -10.330   7.386  70.618  1.00  0.00    -0.217 C  
ENDBRANCH  19  20
ENDBRANCH   5  18
TORSDOF 2
ENDMDL
MODEL      101
REMARK 921   NORMALIZED FREE ENERGY PREDICTED BY IDOCK:   -3.90 KCAL/MOL
REMARK 922        TOTAL FREE ENERGY PREDICTED BY IDOCK:   -4.80 KCAL/MOL
REMARK 923 INTER-LIGAND FREE ENERGY PREDICTED BY IDOCK:   -4.35 KCAL/MOL
REMARK 924 INTRA-LIGAND FREE ENERGY PREDICTED BY IDOCK:   -0.45 KCAL/MOL
REMARK 927      BINDING AFFINITY PREDICTED BY RF-SCORE:    0.00 PKD
ROOT
HETATM    1  F   UNL     1     -12.158   8.196  72.744  1.00  0.00    -0.414 F  
HETATM    2  C   UNL     1     -11.649   7.659  71.604  1.00  0.00    -0.267 C  
HETATM    3  F   UNL     1     -12.275   8.282  70.573  1.00  0.00    -0.161 F  
HETATM    4  F   UNL     1     -12.079   6.371  71.582  1.00  0.00    -0.355 F  
HETATM    5  C   UNL     1     -10.084   7.786  71.532  1.00  0.00    -0.178 C  
HETATM    6  O   UNL     1      -9.657   8.343  72.807  1.00  0.00    -0.275 OA 
HETATM    7  C   UNL     1      -7.701   4.821  71.793  1.00  0.00    -0.097 A  
HETATM    8  C   UNL     1      -8.465   8.058  73.368  1.00  0.00    -0.235 C  
HETATM    9 CL   UNL     1      -9.747   3.344  68.704  1.00  0.00    -0.112 Cl 
HETATM   10  C   UNL     1      -8.151   3.973  70.783  1.00  0.00    -0.063 A  
HETATM   11  N   UNL     1      -7.862   6.901  72.982  1.00  0.00    -0.099 N  
HETATM   12  O   UNL     1      -7.975   8.764  74.241  1.00  0.00    -0.378 OA 
HETATM   13  C   UNL     1      -9.204   4.377  69.967  1.00  0.00    -0.131 A  
HETATM   14  C   UNL     1      -8.333   6.048  72.000  1.00  0.00    -0.118 A  
HETATM   15  H   UNL     1      -6.996   6.641  73.455  1.00  0.00     0.000 HD 
HETATM   16  C   UNL     1      -9.826   5.611  70.171  1.00  0.00    -0.250 A  
HETATM   17  C   UNL     1      -9.418   6.450  71.225  1.00  0.00    -0.175 A  
ENDROOT
BRANCH   5  18
HETATM   18  C   UNL     1      -9.686   8.792  70.512  1.00  0.00    -0.225 C  
HETATM   19  C   UNL     1      -9.432   9.604  69.660  1.00  0.00    -0.226 C  
BRANCH  19  20
HETATM   20  C   UNL     1      -9.172  10.564  68.633  1.00  0.00    -0.172 C  
HETATM   21  C   UNL     1      -9.853  10.398  67.297  1.00  0.00    -0.214 C  
HETATM   22  C   UNL     1     -10.276  11.507  68.217  1.00  0.00    -0.205 C  
ENDBRANCH  19  20
ENDBRANCH   5  18
TORSDOF 2
ENDMDL
MODEL      102
REMARK 921   NORMALIZED FREE ENERGY PREDICTED BY IDOCK:   -3.89 KCAL/MOL
REMARK 922        TOTAL FREE ENERGY PREDICTED BY IDOCK:   -4.80 KCAL/MOL
REMARK 923 INTER-LIGAND FREE ENERGY PREDICTED BY IDOCK:   -4.34 KCAL/MOL
REMARK 924 INTRA-LIGAND FREE ENERGY PREDICTED BY IDOCK:   -0.46 KCAL/MOL
REMARK 927      BINDING AFFINITY PREDICTED BY RF-SCORE:    0.00 PKD
ROOT
HETATM    1  F   UNL     1     -10.931   4.893  66.216  1.00  0.00    -0.329 F  
HETATM    2  C   UNL     1     -10.475   5.992  66.873  1.00  0.00    -0.280 C  
HETATM    3  F   UNL     1     -11.506   6.874  66.907  1.00  0.00    -0.456 F  
HETATM    4  F   UNL     1      -9.536   6.541  66.061  1.00  0.00    -0.176 F  
HETATM    5  C   UNL     1      -9.923   5.645  68.304  1.00  0.00    -0.155 C  
HETATM    6  O   UNL     1      -9.963   4.195  68.421  1.00  0.00    -0.063 OA 
HETATM    7  C   UNL     1      -6.236   5.827  69.257  1.00  0.00    -0.032 A  
HETATM    8  C   UNL     1      -9.082   3.496  69.162  1.00  0.00    -0.140 C  
HETATM    9 CL   UNL     1      -6.465   9.623  68.051  1.00  0.00    -0.057 Cl 
HETATM   10  C   UNL     1      -5.896   7.138  68.927  1.00  0.00    -0.019 A  
HETATM   11  N   UNL     1      -7.884   4.089  69.421  1.00  0.00    -0.053 N  
HETATM   12  O   UNL     1      -9.308   2.348  69.526  1.00  0.00    -0.119 OA 
HETATM   13  C   UNL     1      -6.875   7.998  68.438  1.00  0.00    -0.068 A  
HETATM   14  C   UNL     1      -7.544   5.381  69.061  1.00  0.00    -0.085 A  
HETATM   15  H   UNL     1      -7.184   3.539  69.918  1.00  0.00     0.000 HD 
HETATM   16  C   UNL     1      -8.184   7.549  68.253  1.00  0.00    -0.125 A  
HETATM   17  C   UNL     1      -8.526   6.212  68.529  1.00  0.00    -0.114 A  
ENDROOT
BRANCH   5  18
HETATM   18  C   UNL     1     -10.845   6.148  69.357  1.00  0.00    -0.420 C  
HETATM   19  C   UNL     1     -11.546   6.530  70.258  1.00  0.00    -0.473 C  
BRANCH  19  20
HETATM   20  C   UNL     1     -12.348   6.964  71.358  1.00  0.00    -0.421 C  
HETATM   21  C   UNL     1     -11.721   7.845  72.411  1.00  0.00    -0.423 C  
HETATM   22  C   UNL     1     -12.725   8.424  71.458  1.00  0.00    -0.330 C  
ENDBRANCH  19  20
ENDBRANCH   5  18
TORSDOF 2
ENDMDL
MODEL      103
REMARK 921   NORMALIZED FREE ENERGY PREDICTED BY IDOCK:   -3.89 KCAL/MOL
REMARK 922        TOTAL FREE ENERGY PREDICTED BY IDOCK:   -4.80 KCAL/MOL
REMARK 923 INTER-LIGAND FREE ENERGY PREDICTED BY IDOCK:   -4.36 KCAL/MOL
REMARK 924 INTRA-LIGAND FREE ENERGY PREDICTED BY IDOCK:   -0.44 KCAL/MOL
REMARK 927      BINDING AFFINITY PREDICTED BY RF-SCORE:    0.00 PKD
ROOT
HETATM    1  F   UNL     1      -6.660   8.985  68.521  1.00  0.00    -0.052 F  
HETATM    2  C   UNL     1      -7.361   7.982  69.112  1.00  0.00    -0.086 C  
HETATM    3  F   UNL     1      -7.244   8.169  70.452  1.00  0.00    -0.046 F  
HETATM    4  F   UNL     1      -6.678   6.842  68.831  1.00  0.00    -0.049 F  
HETATM    5  C   UNL     1      -8.857   7.936  68.632  1.00  0.00    -0.134 C  
HETATM    6  O   UNL     1      -8.984   8.934  67.582  1.00  0.00    -0.133 OA 
HETATM    7  C   UNL     1     -10.302   5.160  66.453  1.00  0.00    -0.332 A  
HETATM    8  C   UNL     1      -9.845   8.811  66.554  1.00  0.00    -0.279 C  
HETATM    9 CL   UNL     1      -9.032   2.709  69.333  1.00  0.00    -0.154 Cl 
HETATM   10  C   UNL     1     -10.006   4.010  67.182  1.00  0.00    -0.034 A  
HETATM   11  N   UNL     1     -10.258   7.552  66.242  1.00  0.00    -0.442 N  
HETATM   12  O   UNL     1     -10.188   9.772  65.877  1.00  0.00    -0.259 OA 
HETATM   13  C   UNL     1      -9.378   4.124  68.420  1.00  0.00    -0.155 A  
HETATM   14  C   UNL     1      -9.934   6.411  66.954  1.00  0.00    -0.167 A  
HETATM   15  H   UNL     1     -10.853   7.441  65.421  1.00  0.00     0.000 HD 
HETATM   16  C   UNL     1      -9.022   5.378  68.920  1.00  0.00    -0.130 A  
HETATM   17  C   UNL     1      -9.263   6.543  68.167  1.00  0.00    -0.112 A  
ENDROOT
BRANCH   5  18
HETATM   18  C   UNL     1      -9.768   8.389  69.716  1.00  0.00    -0.180 C  
HETATM   19  C   UNL     1     -10.470   8.819  70.595  1.00  0.00    -0.253 C  
BRANCH  19  20
HETATM   20  C   UNL     1     -11.279   9.368  71.638  1.00  0.00    -0.431 C  
HETATM   21  C   UNL     1     -12.366  10.348  71.274  1.00  0.00    -0.507 C  
HETATM   22  C   UNL     1     -12.732   8.965  71.727  1.00  0.00    -0.421 C  
ENDBRANCH  19  20
ENDBRANCH   5  18
TORSDOF 2
ENDMDL
MODEL      104
REMARK 921   NORMALIZED FREE ENERGY PREDICTED BY IDOCK:   -3.89 KCAL/MOL
REMARK 922        TOTAL FREE ENERGY PREDICTED BY IDOCK:   -4.79 KCAL/MOL
REMARK 923 INTER-LIGAND FREE ENERGY PREDICTED BY IDOCK:   -4.35 KCAL/MOL
REMARK 924 INTRA-LIGAND FREE ENERGY PREDICTED BY IDOCK:   -0.44 KCAL/MOL
REMARK 927      BINDING AFFINITY PREDICTED BY RF-SCORE:    0.00 PKD
ROOT
HETATM    1  F   UNL     1      -7.197  11.971  68.901  1.00  0.00    -0.098 F  
HETATM    2  C   UNL     1      -7.632  12.507  67.730  1.00  0.00    -0.138 C  
HETATM    3  F   UNL     1      -6.557  12.546  66.902  1.00  0.00    -0.140 F  
HETATM    4  F   UNL     1      -7.939  13.800  68.010  1.00  0.00    -0.114 F  
HETATM    5  C   UNL     1      -8.841  11.707  67.121  1.00  0.00    -0.172 C  
HETATM    6  O   UNL     1      -9.198  10.691  68.100  1.00  0.00    -0.141 OA 
HETATM    7  C   UNL     1     -12.399  13.063  66.923  1.00  0.00    -0.068 A  
HETATM    8  C   UNL     1     -10.457  10.237  68.257  1.00  0.00    -0.199 C  
HETATM    9 CL   UNL     1     -10.765  16.093  64.906  1.00  0.00    -0.387 Cl 
HETATM   10  C   UNL     1     -12.234  14.263  66.234  1.00  0.00    -0.433 A  
HETATM   11  N   UNL     1     -11.464  11.049  67.835  1.00  0.00    -0.303 N  
HETATM   12  O   UNL     1     -10.696   9.176  68.822  1.00  0.00    -0.207 OA 
HETATM   13  C   UNL     1     -10.969  14.624  65.777  1.00  0.00    -0.330 A  
HETATM   14  C   UNL     1     -11.291  12.254  67.179  1.00  0.00    -0.335 A  
HETATM   15  H   UNL     1     -12.421  10.745  68.016  1.00  0.00     0.000 HD 
HETATM   16  C   UNL     1      -9.865  13.806  66.027  1.00  0.00    -0.298 A  
HETATM   17  C   UNL     1     -10.010  12.620  66.772  1.00  0.00    -0.237 A  
ENDROOT
BRANCH   5  18
HETATM   18  C   UNL     1      -8.414  10.953  65.913  1.00  0.00    -0.158 C  
HETATM   19  C   UNL     1      -8.007  10.382  64.934  1.00  0.00    -0.115 C  
BRANCH  19  20
HETATM   20  C   UNL     1      -7.488   9.730  63.772  1.00  0.00    -0.128 C  
HETATM   21  C   UNL     1      -7.784   8.265  63.569  1.00  0.00    -0.142 C  
HETATM   22  C   UNL     1      -8.446   9.287  62.692  1.00  0.00    -0.209 C  
ENDBRANCH  19  20
ENDBRANCH   5  18
TORSDOF 2
ENDMDL
MODEL      105
REMARK 921   NORMALIZED FREE ENERGY PREDICTED BY IDOCK:   -3.87 KCAL/MOL
REMARK 922        TOTAL FREE ENERGY PREDICTED BY IDOCK:   -4.78 KCAL/MOL
REMARK 923 INTER-LIGAND FREE ENERGY PREDICTED BY IDOCK:   -4.31 KCAL/MOL
REMARK 924 INTRA-LIGAND FREE ENERGY PREDICTED BY IDOCK:   -0.47 KCAL/MOL
REMARK 927      BINDING AFFINITY PREDICTED BY RF-SCORE:    0.00 PKD
ROOT
HETATM    1  F   UNL     1     -10.782   4.879  66.160  1.00  0.00    -0.303 F  
HETATM    2  C   UNL     1     -10.619   5.896  67.046  1.00  0.00    -0.305 C  
HETATM    3  F   UNL     1     -10.567   5.327  68.278  1.00  0.00    -0.234 F  
HETATM    4  F   UNL     1     -11.777   6.605  67.007  1.00  0.00    -0.310 F  
HETATM    5  C   UNL     1      -9.352   6.769  66.726  1.00  0.00    -0.160 C  
HETATM    6  O   UNL     1      -8.814   6.269  65.470  1.00  0.00    -0.127 OA 
HETATM    7  C   UNL     1      -9.518  10.363  65.463  1.00  0.00    -0.267 A  
HETATM    8  C   UNL     1      -8.167   7.054  64.586  1.00  0.00    -0.022 C  
HETATM    9 CL   UNL     1     -11.666  11.057  68.752  1.00  0.00    -0.381 Cl 
HETATM   10  C   UNL     1     -10.292  10.996  66.433  1.00  0.00    -0.302 A  
HETATM   11  N   UNL     1      -8.422   8.390  64.644  1.00  0.00    -0.330 N  
HETATM   12  O   UNL     1      -7.438   6.589  63.718  1.00  0.00    -0.071 OA 
HETATM   13  C   UNL     1     -10.729  10.275  67.540  1.00  0.00    -0.294 A  
HETATM   14  C   UNL     1      -9.218   9.006  65.593  1.00  0.00    -0.225 A  
HETATM   15  H   UNL     1      -7.993   8.982  63.933  1.00  0.00     0.000 HD 
HETATM   16  C   UNL     1     -10.418   8.920  67.671  1.00  0.00    -0.320 A  
HETATM   17  C   UNL     1      -9.685   8.256  66.669  1.00  0.00    -0.321 A  
ENDROOT
BRANCH   5  18
HETATM   18  C   UNL     1      -8.284   6.531  67.732  1.00  0.00    -0.115 C  
HETATM   19  C   UNL     1      -7.418   6.410  68.560  1.00  0.00    -0.088 C  
BRANCH  19  20
HETATM   20  C   UNL     1      -6.391   6.310  69.549  1.00  0.00    -0.035 C  
HETATM   21  C   UNL     1      -6.291   7.386  70.602  1.00  0.00    -0.039 C  
HETATM   22  C   UNL     1      -6.777   6.017  70.979  1.00  0.00    -0.061 C  
ENDBRANCH  19  20
ENDBRANCH   5  18
TORSDOF 2
ENDMDL
MODEL      106
REMARK 921   NORMALIZED FREE ENERGY PREDICTED BY IDOCK:   -3.83 KCAL/MOL
REMARK 922        TOTAL FREE ENERGY PREDICTED BY IDOCK:   -4.73 KCAL/MOL
REMARK 923 INTER-LIGAND FREE ENERGY PREDICTED BY IDOCK:   -4.27 KCAL/MOL
REMARK 924 INTRA-LIGAND FREE ENERGY PREDICTED BY IDOCK:   -0.45 KCAL/MOL
REMARK 927      BINDING AFFINITY PREDICTED BY RF-SCORE:    0.00 PKD
ROOT
HETATM    1  F   UNL     1     -12.188   7.908  70.709  1.00  0.00    -0.282 F  
HETATM    2  C   UNL     1     -11.234   7.212  70.037  1.00  0.00    -0.238 C  
HETATM    3  F   UNL     1     -10.734   8.055  69.098  1.00  0.00    -0.220 F  
HETATM    4  F   UNL     1     -11.898   6.242  69.356  1.00  0.00    -0.472 F  
HETATM    5  C   UNL     1     -10.125   6.642  70.995  1.00  0.00    -0.187 C  
HETATM    6  O   UNL     1     -10.557   6.944  72.350  1.00  0.00    -0.200 OA 
HETATM    7  C   UNL     1      -9.674   2.930  71.745  1.00  0.00    -0.224 A  
HETATM    8  C   UNL     1     -10.258   6.162  73.406  1.00  0.00    -0.217 C  
HETATM    9 CL   UNL     1      -9.326   2.525  67.791  1.00  0.00    -0.240 Cl 
HETATM   10  C   UNL     1      -9.531   2.374  70.475  1.00  0.00    -0.185 A  
HETATM   11  N   UNL     1      -9.957   4.861  73.145  1.00  0.00    -0.153 N  
HETATM   12  O   UNL     1     -10.324   6.575  74.557  1.00  0.00    -0.341 OA 
HETATM   13  C   UNL     1      -9.526   3.205  69.358  1.00  0.00    -0.119 A  
HETATM   14  C   UNL     1      -9.848   4.309  71.881  1.00  0.00    -0.179 A  
HETATM   15  H   UNL     1      -9.800   4.244  73.942  1.00  0.00     0.000 HD 
HETATM   16  C   UNL     1      -9.689   4.584  69.501  1.00  0.00    -0.282 A  
HETATM   17  C   UNL     1      -9.893   5.152  70.773  1.00  0.00    -0.270 A  
ENDROOT
BRANCH   5  18
HETATM   18  C   UNL     1      -8.848   7.381  70.816  1.00  0.00    -0.149 C  
HETATM   19  C   UNL     1      -7.825   7.978  70.600  1.00  0.00    -0.091 C  
BRANCH  19  20
HETATM   20  C   UNL     1      -6.618   8.682  70.299  1.00  0.00    -0.039 C  
HETATM   21  C   UNL     1      -6.476   9.333  68.945  1.00  0.00    -0.047 C  
HETATM   22  C   UNL     1      -6.662  10.186  70.166  1.00  0.00    -0.138 C  
ENDBRANCH  19  20
ENDBRANCH   5  18
TORSDOF 2
ENDMDL
MODEL      107
REMARK 921   NORMALIZED FREE ENERGY PREDICTED BY IDOCK:   -3.82 KCAL/MOL
REMARK 922        TOTAL FREE ENERGY PREDICTED BY IDOCK:   -4.72 KCAL/MOL
REMARK 923 INTER-LIGAND FREE ENERGY PREDICTED BY IDOCK:   -4.27 KCAL/MOL
REMARK 924 INTRA-LIGAND FREE ENERGY PREDICTED BY IDOCK:   -0.45 KCAL/MOL
REMARK 927      BINDING AFFINITY PREDICTED BY RF-SCORE:    0.00 PKD
ROOT
HETATM    1  F   UNL     1      -6.804   6.644  66.378  1.00  0.00    -0.053 F  
HETATM    2  C   UNL     1      -7.425   7.516  67.214  1.00  0.00    -0.100 C  
HETATM    3  F   UNL     1      -6.941   8.748  66.912  1.00  0.00    -0.070 F  
HETATM    4  F   UNL     1      -6.963   7.225  68.457  1.00  0.00    -0.067 F  
HETATM    5  C   UNL     1      -8.991   7.435  67.106  1.00  0.00    -0.126 C  
HETATM    6  O   UNL     1      -9.285   6.328  66.208  1.00  0.00    -0.157 OA 
HETATM    7  C   UNL     1     -11.240   6.065  69.864  1.00  0.00    -0.438 A  
HETATM    8  C   UNL     1     -10.395   5.572  66.316  1.00  0.00    -0.163 C  
HETATM    9 CL   UNL     1      -9.520   8.832  72.167  1.00  0.00    -0.368 Cl 
HETATM   10  C   UNL     1     -10.885   6.841  70.966  1.00  0.00    -0.280 A  
HETATM   11  N   UNL     1     -11.004   5.540  67.533  1.00  0.00    -0.210 N  
HETATM   12  O   UNL     1     -10.802   4.882  65.389  1.00  0.00    -0.112 OA 
HETATM   13  C   UNL     1      -9.945   7.857  70.815  1.00  0.00    -0.184 A  
HETATM   14  C   UNL     1     -10.625   6.291  68.631  1.00  0.00    -0.264 A  
HETATM   15  H   UNL     1     -11.803   4.915  67.643  1.00  0.00     0.000 HD 
HETATM   16  C   UNL     1      -9.340   8.085  69.577  1.00  0.00    -0.156 A  
HETATM   17  C   UNL     1      -9.649   7.271  68.471  1.00  0.00    -0.140 A  
ENDROOT
BRANCH   5  18
HETATM   18  C   UNL     1      -9.533   8.643  66.429  1.00  0.00    -0.295 C  
HETATM   19  C   UNL     1     -10.009   9.577  65.837  1.00  0.00    -0.342 C  
BRANCH  19  20
HETATM   20  C   UNL     1     -10.596  10.657  65.108  1.00  0.00    -0.190 C  
HETATM   21  C   UNL     1     -11.379  11.702  65.865  1.00  0.00    -0.262 C  
HETATM   22  C   UNL     1     -10.038  12.049  65.286  1.00  0.00    -0.289 C  
ENDBRANCH  19  20
ENDBRANCH   5  18
TORSDOF 2
ENDMDL
MODEL      108
REMARK 921   NORMALIZED FREE ENERGY PREDICTED BY IDOCK:   -3.81 KCAL/MOL
REMARK 922        TOTAL FREE ENERGY PREDICTED BY IDOCK:   -4.70 KCAL/MOL
REMARK 923 INTER-LIGAND FREE ENERGY PREDICTED BY IDOCK:   -4.25 KCAL/MOL
REMARK 924 INTRA-LIGAND FREE ENERGY PREDICTED BY IDOCK:   -0.45 KCAL/MOL
REMARK 927      BINDING AFFINITY PREDICTED BY RF-SCORE:    0.00 PKD
ROOT
HETATM    1  F   UNL     1      -7.304   7.775  73.371  1.00  0.00    -0.093 F  
HETATM    2  C   UNL     1      -8.209   7.284  72.485  1.00  0.00    -0.107 C  
HETATM    3  F   UNL     1      -9.339   7.027  73.193  1.00  0.00    -0.148 F  
HETATM    4  F   UNL     1      -7.725   6.075  72.098  1.00  0.00    -0.095 F  
HETATM    5  C   UNL     1      -8.456   8.262  71.279  1.00  0.00    -0.136 C  
HETATM    6  O   UNL     1      -7.512   9.358  71.438  1.00  0.00    -0.335 OA 
HETATM    7  C   UNL     1      -7.340   7.546  67.704  1.00  0.00    -0.103 A  
HETATM    8  C   UNL     1      -6.990  10.032  70.395  1.00  0.00    -0.131 C  
HETATM    9 CL   UNL     1      -9.494   4.208  68.064  1.00  0.00    -0.213 Cl 
HETATM   10  C   UNL     1      -7.931   6.313  67.437  1.00  0.00    -0.109 A  
HETATM   11  N   UNL     1      -6.979   9.396  69.192  1.00  0.00    -0.057 N  
HETATM   12  O   UNL     1      -6.478  11.137  70.528  1.00  0.00    -0.306 OA 
HETATM   13  C   UNL     1      -8.744   5.719  68.398  1.00  0.00    -0.111 A  
HETATM   14  C   UNL     1      -7.540   8.156  68.943  1.00  0.00    -0.098 A  
HETATM   15  H   UNL     1      -6.520   9.869  68.413  1.00  0.00     0.000 HD 
HETATM   16  C   UNL     1      -8.950   6.339  69.633  1.00  0.00    -0.135 A  
HETATM   17  C   UNL     1      -8.313   7.557  69.935  1.00  0.00    -0.133 A  
ENDROOT
BRANCH   5  18
HETATM   18  C   UNL     1      -9.801   8.887  71.378  1.00  0.00    -0.376 C  
HETATM   19  C   UNL     1     -10.862   9.442  71.502  1.00  0.00    -0.398 C  
BRANCH  19  20
HETATM   20  C   UNL     1     -12.102  10.132  71.676  1.00  0.00    -0.373 C  
HETATM   21  C   UNL     1     -13.284   9.722  70.833  1.00  0.00    -0.265 C  
HETATM   22  C   UNL     1     -13.266   9.398  72.298  1.00  0.00    -0.528 C  
ENDBRANCH  19  20
ENDBRANCH   5  18
TORSDOF 2
ENDMDL
MODEL      109
REMARK 921   NORMALIZED FREE ENERGY PREDICTED BY IDOCK:   -3.81 KCAL/MOL
REMARK 922        TOTAL FREE ENERGY PREDICTED BY IDOCK:   -4.70 KCAL/MOL
REMARK 923 INTER-LIGAND FREE ENERGY PREDICTED BY IDOCK:   -4.25 KCAL/MOL
REMARK 924 INTRA-LIGAND FREE ENERGY PREDICTED BY IDOCK:   -0.45 KCAL/MOL
REMARK 927      BINDING AFFINITY PREDICTED BY RF-SCORE:    0.00 PKD
ROOT
HETATM    1  F   UNL     1     -11.592   5.997  71.807  1.00  0.00    -0.326 F  
HETATM    2  C   UNL     1     -11.083   6.079  70.550  1.00  0.00    -0.314 C  
HETATM    3  F   UNL     1     -12.128   6.362  69.731  1.00  0.00    -0.445 F  
HETATM    4  F   UNL     1     -10.685   4.821  70.232  1.00  0.00    -0.256 F  
HETATM    5  C   UNL     1      -9.924   7.136  70.444  1.00  0.00    -0.187 C  
HETATM    6  O   UNL     1      -9.674   7.612  71.796  1.00  0.00    -0.158 OA 
HETATM    7  C   UNL     1      -6.267   6.222  69.869  1.00  0.00    -0.031 A  
HETATM    8  C   UNL     1      -8.460   8.015  72.218  1.00  0.00    -0.155 C  
HETATM    9 CL   UNL     1      -7.602   4.359  66.604  1.00  0.00    -0.088 Cl 
HETATM   10  C   UNL     1      -6.318   5.461  68.703  1.00  0.00    -0.035 A  
HETATM   11  N   UNL     1      -7.381   7.543  71.536  1.00  0.00    -0.073 N  
HETATM   12  O   UNL     1      -8.320   8.713  73.215  1.00  0.00    -0.408 OA 
HETATM   13  C   UNL     1      -7.537   5.277  68.056  1.00  0.00    -0.080 A  
HETATM   14  C   UNL     1      -7.441   6.761  70.396  1.00  0.00    -0.087 A  
HETATM   15  H   UNL     1      -6.456   7.784  71.893  1.00  0.00     0.000 HD 
HETATM   16  C   UNL     1      -8.708   5.828  68.582  1.00  0.00    -0.108 A  
HETATM   17  C   UNL     1      -8.677   6.550  69.791  1.00  0.00    -0.143 A  
ENDROOT
BRANCH   5  18
HETATM   18  C   UNL     1     -10.374   8.332  69.684  1.00  0.00    -0.218 C  
HETATM   19  C   UNL     1     -10.692   9.283  69.017  1.00  0.00    -0.189 C  
BRANCH  19  20
HETATM   20  C   UNL     1     -11.040  10.398  68.194  1.00  0.00    -0.344 C  
HETATM   21  C   UNL     1     -11.682  11.602  68.838  1.00  0.00    -0.397 C  
HETATM   22  C   UNL     1     -10.267  11.687  68.344  1.00  0.00    -0.211 C  
ENDBRANCH  19  20
ENDBRANCH   5  18
TORSDOF 2
ENDMDL
MODEL      110
REMARK 921   NORMALIZED FREE ENERGY PREDICTED BY IDOCK:   -3.79 KCAL/MOL
REMARK 922        TOTAL FREE ENERGY PREDICTED BY IDOCK:   -4.68 KCAL/MOL
REMARK 923 INTER-LIGAND FREE ENERGY PREDICTED BY IDOCK:   -4.22 KCAL/MOL
REMARK 924 INTRA-LIGAND FREE ENERGY PREDICTED BY IDOCK:   -0.46 KCAL/MOL
REMARK 927      BINDING AFFINITY PREDICTED BY RF-SCORE:    0.00 PKD
ROOT
HETATM    1  F   UNL     1      -7.435  11.805  67.628  1.00  0.00    -0.097 F  
HETATM    2  C   UNL     1      -8.577  11.093  67.441  1.00  0.00    -0.137 C  
HETATM    3  F   UNL     1      -9.604  11.932  67.731  1.00  0.00    -0.173 F  
HETATM    4  F   UNL     1      -8.581  10.145  68.412  1.00  0.00    -0.110 F  
HETATM    5  C   UNL     1      -8.675  10.490  65.992  1.00  0.00    -0.164 C  
HETATM    6  O   UNL     1      -7.412  10.792  65.335  1.00  0.00    -0.075 OA 
HETATM    7  C   UNL     1      -8.423   6.764  65.225  1.00  0.00    -0.067 A  
HETATM    8  C   UNL     1      -6.868   9.995  64.395  1.00  0.00    -0.127 C  
HETATM    9 CL   UNL     1     -11.466   6.382  67.776  1.00  0.00    -0.068 Cl 
HETATM   10  C   UNL     1      -9.418   6.214  66.031  1.00  0.00    -0.046 A  
HETATM   11  N   UNL     1      -7.251   8.689  64.395  1.00  0.00    -0.094 N  
HETATM   12  O   UNL     1      -6.009  10.399  63.621  1.00  0.00    -0.143 OA 
HETATM   13  C   UNL     1     -10.221   7.054  66.797  1.00  0.00    -0.211 A  
HETATM   14  C   UNL     1      -8.218   8.145  65.221  1.00  0.00    -0.149 A  
HETATM   15  H   UNL     1      -6.790   8.063  63.735  1.00  0.00     0.000 HD 
HETATM   16  C   UNL     1     -10.019   8.436  66.782  1.00  0.00    -0.354 A  
HETATM   17  C   UNL     1      -8.980   8.997  66.016  1.00  0.00    -0.227 A  
ENDROOT
BRANCH   5  18
HETATM   18  C   UNL     1      -9.710  11.202  65.197  1.00  0.00    -0.296 C  
HETATM   19  C   UNL     1     -10.497  11.798  64.508  1.00  0.00    -0.352 C  
BRANCH  19  20
HETATM   20  C   UNL     1     -11.396  12.517  63.661  1.00  0.00    -0.555 C  
HETATM   21  C   UNL     1     -12.768  11.943  63.407  1.00  0.00    -0.496 C  
HETATM   22  C   UNL     1     -12.619  13.160  64.272  1.00  0.00    -0.282 C  
ENDBRANCH  19  20
ENDBRANCH   5  18
TORSDOF 2
ENDMDL
MODEL      111
REMARK 921   NORMALIZED FREE ENERGY PREDICTED BY IDOCK:   -3.67 KCAL/MOL
REMARK 922        TOTAL FREE ENERGY PREDICTED BY IDOCK:   -4.55 KCAL/MOL
REMARK 923 INTER-LIGAND FREE ENERGY PREDICTED BY IDOCK:   -4.10 KCAL/MOL
REMARK 924 INTRA-LIGAND FREE ENERGY PREDICTED BY IDOCK:   -0.45 KCAL/MOL
REMARK 927      BINDING AFFINITY PREDICTED BY RF-SCORE:    0.00 PKD
ROOT
HETATM    1  F   UNL     1      -8.883   9.179  71.675  1.00  0.00    -0.269 F  
HETATM    2  C   UNL     1      -8.372   8.155  70.942  1.00  0.00    -0.121 C  
HETATM    3  F   UNL     1      -7.268   7.724  71.603  1.00  0.00    -0.059 F  
HETATM    4  F   UNL     1      -7.926   8.717  69.789  1.00  0.00    -0.086 F  
HETATM    5  C   UNL     1      -9.423   7.010  70.702  1.00  0.00    -0.165 C  
HETATM    6  O   UNL     1     -10.683   7.486  71.252  1.00  0.00    -0.224 OA 
HETATM    7  C   UNL     1     -10.964   6.224  67.304  1.00  0.00    -0.455 A  
HETATM    8  C   UNL     1     -11.882   7.129  70.751  1.00  0.00    -0.325 C  
HETATM    9 CL   UNL     1      -7.193   5.788  66.079  1.00  0.00    -0.071 Cl 
HETATM   10  C   UNL     1      -9.846   6.012  66.499  1.00  0.00    -0.186 A  
HETATM   11  N   UNL     1     -11.910   6.705  69.458  1.00  0.00    -0.632 N  
HETATM   12  O   UNL     1     -12.916   7.249  71.397  1.00  0.00    -0.371 OA 
HETATM   13  C   UNL     1      -8.574   6.071  67.063  1.00  0.00    -0.107 A  
HETATM   14  C   UNL     1     -10.797   6.528  68.656  1.00  0.00    -0.295 A  
HETATM   15  H   UNL     1     -12.822   6.501  69.049  1.00  0.00     0.000 HD 
HETATM   16  C   UNL     1      -8.413   6.365  68.419  1.00  0.00    -0.116 A  
HETATM   17  C   UNL     1      -9.532   6.637  69.228  1.00  0.00    -0.141 A  
ENDROOT
BRANCH   5  18
HETATM   18  C   UNL     1      -9.077   5.806  71.502  1.00  0.00    -0.149 C  
HETATM   19  C   UNL     1      -8.788   4.874  72.207  1.00  0.00    -0.136 C  
BRANCH  19  20
HETATM   20  C   UNL     1      -8.439   3.796  73.078  1.00  0.00    -0.094 C  
HETATM   21  C   UNL     1      -7.222   2.966  72.754  1.00  0.00    -0.040 C  
HETATM   22  C   UNL     1      -7.191   3.910  73.920  1.00  0.00    -0.061 C  
ENDBRANCH  19  20
ENDBRANCH   5  18
TORSDOF 2
ENDMDL
MODEL      112
REMARK 921   NORMALIZED FREE ENERGY PREDICTED BY IDOCK:   -3.64 KCAL/MOL
REMARK 922        TOTAL FREE ENERGY PREDICTED BY IDOCK:   -4.52 KCAL/MOL
REMARK 923 INTER-LIGAND FREE ENERGY PREDICTED BY IDOCK:   -4.07 KCAL/MOL
REMARK 924 INTRA-LIGAND FREE ENERGY PREDICTED BY IDOCK:   -0.44 KCAL/MOL
REMARK 927      BINDING AFFINITY PREDICTED BY RF-SCORE:    0.00 PKD
ROOT
HETATM    1  F   UNL     1      -8.054  13.699  66.751  1.00  0.00    -0.124 F  
HETATM    2  C   UNL     1      -8.327  12.972  67.866  1.00  0.00    -0.170 C  
HETATM    3  F   UNL     1      -8.189  13.817  68.919  1.00  0.00    -0.130 F  
HETATM    4  F   UNL     1      -7.317  12.070  67.972  1.00  0.00    -0.080 F  
HETATM    5  C   UNL     1      -9.748  12.300  67.808  1.00  0.00    -0.199 C  
HETATM    6  O   UNL     1     -10.280  12.578  66.483  1.00  0.00    -0.234 OA 
HETATM    7  C   UNL     1     -10.305   8.543  67.471  1.00  0.00    -0.334 A  
HETATM    8  C   UNL     1     -11.117  11.740  65.840  1.00  0.00    -0.302 C  
HETATM    9 CL   UNL     1      -8.077   8.264  70.769  1.00  0.00    -0.102 Cl 
HETATM   10  C   UNL     1      -9.584   8.026  68.546  1.00  0.00    -0.159 A  
HETATM   11  N   UNL     1     -11.096  10.433  66.220  1.00  0.00     0.159 N  
HETATM   12  O   UNL     1     -11.814  12.113  64.904  1.00  0.00    -0.350 OA 
HETATM   13  C   UNL     1      -8.948   8.896  69.427  1.00  0.00    -0.145 A  
HETATM   14  C   UNL     1     -10.352   9.923  67.269  1.00  0.00    -0.245 A  
HETATM   15  H   UNL     1     -11.672   9.779  65.690  1.00  0.00     0.000 HD 
HETATM   16  C   UNL     1      -9.008  10.277  69.227  1.00  0.00    -0.190 A  
HETATM   17  C   UNL     1      -9.685  10.808  68.112  1.00  0.00    -0.169 A  
ENDROOT
BRANCH   5  18
HETATM   18  C   UNL     1     -10.682  12.967  68.753  1.00  0.00    -0.249 C  
HETATM   19  C   UNL     1     -11.403  13.569  69.506  1.00  0.00    -0.265 C  
BRANCH  19  20
HETATM   20  C   UNL     1     -12.235  14.321  70.392  1.00  0.00    -0.411 C  
HETATM   21  C   UNL     1     -13.266  13.588  71.215  1.00  0.00    -0.290 C  
HETATM   22  C   UNL     1     -12.049  14.160  71.883  1.00  0.00    -0.083 C  
ENDBRANCH  19  20
ENDBRANCH   5  18
TORSDOF 2
ENDMDL
MODEL      113
REMARK 921   NORMALIZED FREE ENERGY PREDICTED BY IDOCK:   -3.59 KCAL/MOL
REMARK 922        TOTAL FREE ENERGY PREDICTED BY IDOCK:   -4.46 KCAL/MOL
REMARK 923 INTER-LIGAND FREE ENERGY PREDICTED BY IDOCK:   -4.00 KCAL/MOL
REMARK 924 INTRA-LIGAND FREE ENERGY PREDICTED BY IDOCK:   -0.45 KCAL/MOL
REMARK 927      BINDING AFFINITY PREDICTED BY RF-SCORE:    0.00 PKD
ROOT
HETATM    1  F   UNL     1     -12.555   6.792  71.778  1.00  0.00    -0.364 F  
HETATM    2  C   UNL     1     -11.338   6.289  72.111  1.00  0.00    -0.297 C  
HETATM    3  F   UNL     1     -11.532   4.979  72.409  1.00  0.00    -0.237 F  
HETATM    4  F   UNL     1     -10.998   6.894  73.279  1.00  0.00    -0.278 F  
HETATM    5  C   UNL     1     -10.272   6.503  70.975  1.00  0.00    -0.189 C  
HETATM    6  O   UNL     1     -10.918   7.308  69.950  1.00  0.00    -0.255 OA 
HETATM    7  C   UNL     1      -7.307   8.883  71.268  1.00  0.00    -0.115 A  
HETATM    8  C   UNL     1     -10.246   8.176  69.169  1.00  0.00    -0.214 C  
HETATM    9 CL   UNL     1      -6.382   6.782  74.531  1.00  0.00    -0.079 Cl 
HETATM   10  C   UNL     1      -6.675   8.447  72.431  1.00  0.00    -0.098 A  
HETATM   11  N   UNL     1      -9.059   8.643  69.644  1.00  0.00    -0.147 N  
HETATM   12  O   UNL     1     -10.710   8.590  68.113  1.00  0.00    -0.157 OA 
HETATM   13  C   UNL     1      -7.174   7.338  73.109  1.00  0.00    -0.072 A  
HETATM   14  C   UNL     1      -8.454   8.227  70.816  1.00  0.00    -0.132 A  
HETATM   15  H   UNL     1      -8.579   9.355  69.093  1.00  0.00     0.000 HD 
HETATM   16  C   UNL     1      -8.315   6.679  72.646  1.00  0.00    -0.108 A  
HETATM   17  C   UNL     1      -8.996   7.145  71.505  1.00  0.00    -0.135 A  
ENDROOT
BRANCH   5  18
HETATM   18  C   UNL     1      -9.947   5.212  70.313  1.00  0.00    -0.320 C  
HETATM   19  C   UNL     1      -9.615   4.178  69.792  1.00  0.00    -0.281 C  
BRANCH  19  20
HETATM   20  C   UNL     1      -9.177   2.962  69.183  1.00  0.00    -0.220 C  
HETATM   21  C   UNL     1      -9.275   2.825  67.683  1.00  0.00    -0.240 C  
HETATM   22  C   UNL     1      -7.930   2.977  68.332  1.00  0.00    -0.063 C  
ENDBRANCH  19  20
ENDBRANCH   5  18
TORSDOF 2
ENDMDL
MODEL      114
REMARK 921   NORMALIZED FREE ENERGY PREDICTED BY IDOCK:   -3.53 KCAL/MOL
REMARK 922        TOTAL FREE ENERGY PREDICTED BY IDOCK:   -4.39 KCAL/MOL
REMARK 923 INTER-LIGAND FREE ENERGY PREDICTED BY IDOCK:   -3.94 KCAL/MOL
REMARK 924 INTRA-LIGAND FREE ENERGY PREDICTED BY IDOCK:   -0.45 KCAL/MOL
REMARK 927      BINDING AFFINITY PREDICTED BY RF-SCORE:    0.00 PKD
ROOT
HETATM    1  F   UNL     1     -12.159   6.793  70.988  1.00  0.00    -0.365 F  
HETATM    2  C   UNL     1     -11.051   6.334  70.350  1.00  0.00    -0.352 C  
HETATM    3  F   UNL     1     -10.428   7.424  69.831  1.00  0.00    -0.207 F  
HETATM    4  F   UNL     1     -11.507   5.621  69.289  1.00  0.00    -0.317 F  
HETATM    5  C   UNL     1     -10.119   5.496  71.300  1.00  0.00    -0.207 C  
HETATM    6  O   UNL     1     -10.827   5.370  72.564  1.00  0.00    -0.227 OA 
HETATM    7  C   UNL     1      -9.598   1.733  70.978  1.00  0.00    -0.197 A  
HETATM    8  C   UNL     1     -10.693   4.302  73.374  1.00  0.00    -0.231 C  
HETATM    9 CL   UNL     1      -8.455   2.557  67.246  1.00  0.00    -0.099 Cl 
HETATM   10  C   UNL     1      -9.173   1.591  69.658  1.00  0.00    -0.163 A  
HETATM   11  N   UNL     1     -10.268   3.142  72.802  1.00  0.00    -0.154 N  
HETATM   12  O   UNL     1     -11.010   4.342  74.557  1.00  0.00    -0.268 OA 
HETATM   13  C   UNL     1      -9.000   2.724  68.868  1.00  0.00    -0.124 A  
HETATM   14  C   UNL     1      -9.879   3.004  71.483  1.00  0.00    -0.122 A  
HETATM   15  H   UNL     1     -10.234   2.311  73.393  1.00  0.00     0.000 HD 
HETATM   16  C   UNL     1      -9.273   3.995  69.381  1.00  0.00    -0.216 A  
HETATM   17  C   UNL     1      -9.757   4.145  70.694  1.00  0.00    -0.273 A  
ENDROOT
BRANCH   5  18
HETATM   18  C   UNL     1      -8.879   6.253  71.618  1.00  0.00    -0.138 C  
HETATM   19  C   UNL     1      -7.845   6.803  71.895  1.00  0.00    -0.097 C  
BRANCH  19  20
HETATM   20  C   UNL     1      -6.600   7.416  72.236  1.00  0.00    -0.051 C  
HETATM   21  C   UNL     1      -6.376   7.861  73.660  1.00  0.00    -0.095 C  
HETATM   22  C   UNL     1      -5.636   6.670  73.127  1.00  0.00    -0.038 C  
ENDBRANCH  19  20
ENDBRANCH   5  18
TORSDOF 2
ENDMDL
MODEL      115
REMARK 921   NORMALIZED FREE ENERGY PREDICTED BY IDOCK:   -3.48 KCAL/MOL
REMARK 922        TOTAL FREE ENERGY PREDICTED BY IDOCK:   -4.34 KCAL/MOL
REMARK 923 INTER-LIGAND FREE ENERGY PREDICTED BY IDOCK:   -3.88 KCAL/MOL
REMARK 924 INTRA-LIGAND FREE ENERGY PREDICTED BY IDOCK:   -0.46 KCAL/MOL
REMARK 927      BINDING AFFINITY PREDICTED BY RF-SCORE:    0.00 PKD
ROOT
HETATM    1  F   UNL     1      -9.932   3.935  71.586  1.00  0.00    -0.234 F  
HETATM    2  C   UNL     1      -9.139   4.611  70.715  1.00  0.00    -0.130 C  
HETATM    3  F   UNL     1      -8.648   3.690  69.848  1.00  0.00    -0.073 F  
HETATM    4  F   UNL     1      -8.079   5.044  71.445  1.00  0.00    -0.100 F  
HETATM    5  C   UNL     1      -9.905   5.779  69.992  1.00  0.00    -0.180 C  
HETATM    6  O   UNL     1     -11.226   5.842  70.599  1.00  0.00    -0.294 OA 
HETATM    7  C   UNL     1      -9.212   9.476  70.614  1.00  0.00    -0.243 A  
HETATM    8  C   UNL     1     -11.923   6.989  70.716  1.00  0.00    -0.345 C  
HETATM    9 CL   UNL     1      -5.459   8.592  69.593  1.00  0.00    -0.030 Cl 
HETATM   10  C   UNL     1      -7.846   9.581  70.360  1.00  0.00    -0.190 A  
HETATM   11  N   UNL     1     -11.212   8.150  70.694  1.00  0.00    -0.263 N  
HETATM   12  O   UNL     1     -13.133   6.995  70.909  1.00  0.00    -0.240 OA 
HETATM   13  C   UNL     1      -7.140   8.461  69.931  1.00  0.00    -0.051 A  
HETATM   14  C   UNL     1      -9.850   8.242  70.472  1.00  0.00    -0.183 A  
HETATM   15  H   UNL     1     -11.723   9.018  70.854  1.00  0.00     0.000 HD 
HETATM   16  C   UNL     1      -7.785   7.232  69.779  1.00  0.00    -0.107 A  
HETATM   17  C   UNL     1      -9.152   7.100  70.089  1.00  0.00    -0.152 A  
ENDROOT
BRANCH   5  18
HETATM   18  C   UNL     1     -10.146   5.441  68.564  1.00  0.00    -0.242 C  
HETATM   19  C   UNL     1     -10.272   5.150  67.403  1.00  0.00    -0.224 C  
BRANCH  19  20
HETATM   20  C   UNL     1     -10.377   4.796  66.022  1.00  0.00    -0.328 C  
HETATM   21  C   UNL     1      -9.156   4.926  65.145  1.00  0.00    -0.146 C  
HETATM   22  C   UNL     1      -9.658   3.564  65.526  1.00  0.00    -0.125 C  
ENDBRANCH  19  20
ENDBRANCH   5  18
TORSDOF 2
ENDMDL
MODEL      116
REMARK 921   NORMALIZED FREE ENERGY PREDICTED BY IDOCK:   -3.48 KCAL/MOL
REMARK 922        TOTAL FREE ENERGY PREDICTED BY IDOCK:   -4.33 KCAL/MOL
REMARK 923 INTER-LIGAND FREE ENERGY PREDICTED BY IDOCK:   -3.89 KCAL/MOL
REMARK 924 INTRA-LIGAND FREE ENERGY PREDICTED BY IDOCK:   -0.44 KCAL/MOL
REMARK 927      BINDING AFFINITY PREDICTED BY RF-SCORE:    0.00 PKD
ROOT
HETATM    1  F   UNL     1     -10.791   9.178  72.019  1.00  0.00    -0.410 F  
HETATM    2  C   UNL     1     -10.786   8.362  70.932  1.00  0.00    -0.231 C  
HETATM    3  F   UNL     1     -11.941   8.607  70.263  1.00  0.00    -0.131 F  
HETATM    4  F   UNL     1     -10.894   7.100  71.420  1.00  0.00    -0.234 F  
HETATM    5  C   UNL     1      -9.509   8.568  70.037  1.00  0.00    -0.164 C  
HETATM    6  O   UNL     1      -8.655   9.506  70.749  1.00  0.00    -0.220 OA 
HETATM    7  C   UNL     1      -6.729   5.983  69.682  1.00  0.00    -0.052 A  
HETATM    8  C   UNL     1      -7.310   9.482  70.662  1.00  0.00    -0.120 C  
HETATM    9 CL   UNL     1      -9.638   3.520  68.506  1.00  0.00    -0.202 Cl 
HETATM   10  C   UNL     1      -7.417   4.845  69.265  1.00  0.00    -0.057 A  
HETATM   11  N   UNL     1      -6.736   8.306  70.289  1.00  0.00    -0.036 N  
HETATM   12  O   UNL     1      -6.624  10.447  70.976  1.00  0.00    -0.337 OA 
HETATM   13  C   UNL     1      -8.789   4.916  69.043  1.00  0.00    -0.092 A  
HETATM   14  C   UNL     1      -7.427   7.171  69.907  1.00  0.00    -0.086 A  
HETATM   15  H   UNL     1      -5.717   8.259  70.291  1.00  0.00     0.000 HD 
HETATM   16  C   UNL     1      -9.482   6.109  69.259  1.00  0.00    -0.147 A  
HETATM   17  C   UNL     1      -8.807   7.250  69.735  1.00  0.00    -0.142 A  
ENDROOT
BRANCH   5  18
HETATM   18  C   UNL     1      -9.866   9.251  68.765  1.00  0.00    -0.174 C  
HETATM   19  C   UNL     1     -10.221   9.777  67.742  1.00  0.00    -0.254 C  
BRANCH  19  20
HETATM   20  C   UNL     1     -10.684  10.382  66.533  1.00  0.00    -0.162 C  
HETATM   21  C   UNL     1      -9.789  11.372  65.830  1.00  0.00    -0.270 C  
HETATM   22  C   UNL     1     -10.016  10.016  65.229  1.00  0.00    -0.368 C  
ENDBRANCH  19  20
ENDBRANCH   5  18
TORSDOF 2
ENDMDL
MODEL      117
REMARK 921   NORMALIZED FREE ENERGY PREDICTED BY IDOCK:   -3.47 KCAL/MOL
REMARK 922        TOTAL FREE ENERGY PREDICTED BY IDOCK:   -4.32 KCAL/MOL
REMARK 923 INTER-LIGAND FREE ENERGY PREDICTED BY IDOCK:   -3.88 KCAL/MOL
REMARK 924 INTRA-LIGAND FREE ENERGY PREDICTED BY IDOCK:   -0.44 KCAL/MOL
REMARK 927      BINDING AFFINITY PREDICTED BY RF-SCORE:    0.00 PKD
ROOT
HETATM    1  F   UNL     1     -11.655   6.511  66.983  1.00  0.00    -0.407 F  
HETATM    2  C   UNL     1     -10.406   6.185  67.409  1.00  0.00    -0.211 C  
HETATM    3  F   UNL     1      -9.540   6.846  66.599  1.00  0.00    -0.179 F  
HETATM    4  F   UNL     1     -10.255   4.866  67.125  1.00  0.00    -0.193 F  
HETATM    5  C   UNL     1     -10.189   6.515  68.931  1.00  0.00    -0.181 C  
HETATM    6  O   UNL     1     -11.476   6.961  69.443  1.00  0.00    -0.173 OA 
HETATM    7  C   UNL     1      -9.797   3.861  71.641  1.00  0.00    -0.247 A  
HETATM    8  C   UNL     1     -11.865   6.762  70.717  1.00  0.00    -0.392 C  
HETATM    9 CL   UNL     1      -6.767   2.527  69.415  1.00  0.00    -0.033 Cl 
HETATM   10  C   UNL     1      -8.733   3.094  71.170  1.00  0.00    -0.123 A  
HETATM   11  N   UNL     1     -11.266   5.744  71.394  1.00  0.00    -0.216 N  
HETATM   12  O   UNL     1     -12.770   7.412  71.227  1.00  0.00    -0.349 OA 
HETATM   13  C   UNL     1      -8.094   3.459  69.988  1.00  0.00    -0.045 A  
HETATM   14  C   UNL     1     -10.232   4.966  70.907  1.00  0.00    -0.202 A  
HETATM   15  H   UNL     1     -11.606   5.540  72.335  1.00  0.00     0.000 HD 
HETATM   16  C   UNL     1      -8.527   4.571  69.263  1.00  0.00    -0.092 A  
HETATM   17  C   UNL     1      -9.636   5.320  69.699  1.00  0.00    -0.225 A  
ENDROOT
BRANCH   5  18
HETATM   18  C   UNL     1      -9.279   7.680  69.089  1.00  0.00    -0.141 C  
HETATM   19  C   UNL     1      -8.592   8.654  69.259  1.00  0.00    -0.131 C  
BRANCH  19  20
HETATM   20  C   UNL     1      -7.810   9.829  69.485  1.00  0.00    -0.128 C  
HETATM   21  C   UNL     1      -6.796  10.236  68.444  1.00  0.00    -0.061 C  
HETATM   22  C   UNL     1      -8.049  11.044  68.620  1.00  0.00    -0.149 C  
ENDBRANCH  19  20
ENDBRANCH   5  18
TORSDOF 2
ENDMDL
MODEL      118
REMARK 921   NORMALIZED FREE ENERGY PREDICTED BY IDOCK:   -3.44 KCAL/MOL
REMARK 922        TOTAL FREE ENERGY PREDICTED BY IDOCK:   -4.30 KCAL/MOL
REMARK 923 INTER-LIGAND FREE ENERGY PREDICTED BY IDOCK:   -3.85 KCAL/MOL
REMARK 924 INTRA-LIGAND FREE ENERGY PREDICTED BY IDOCK:   -0.45 KCAL/MOL
REMARK 927      BINDING AFFINITY PREDICTED BY RF-SCORE:    0.00 PKD
ROOT
HETATM    1  F   UNL     1      -7.796   8.967  64.787  1.00  0.00    -0.104 F  
HETATM    2  C   UNL     1      -7.676   9.846  65.816  1.00  0.00    -0.112 C  
HETATM    3  F   UNL     1      -7.622  11.083  65.261  1.00  0.00    -0.045 F  
HETATM    4  F   UNL     1      -6.448   9.619  66.351  1.00  0.00    -0.065 F  
HETATM    5  C   UNL     1      -8.839   9.700  66.864  1.00  0.00    -0.131 C  
HETATM    6  O   UNL     1      -9.627   8.550  66.447  1.00  0.00    -0.212 OA 
HETATM    7  C   UNL     1      -8.355   8.349  70.397  1.00  0.00    -0.121 A  
HETATM    8  C   UNL     1     -10.281   7.756  67.317  1.00  0.00    -0.273 C  
HETATM    9 CL   UNL     1      -5.658  11.264  70.773  1.00  0.00    -0.131 Cl 
HETATM   10  C   UNL     1      -7.360   9.178  70.911  1.00  0.00    -0.129 A  
HETATM   11  N   UNL     1      -9.832   7.746  68.602  1.00  0.00    -0.164 N  
HETATM   12  O   UNL     1     -11.191   7.017  66.962  1.00  0.00    -0.328 OA 
HETATM   13  C   UNL     1      -6.869  10.223  70.133  1.00  0.00    -0.151 A  
HETATM   14  C   UNL     1      -8.822   8.551  69.097  1.00  0.00    -0.142 A  
HETATM   15  H   UNL     1     -10.275   7.095  69.251  1.00  0.00     0.000 HD 
HETATM   16  C   UNL     1      -7.347  10.428  68.837  1.00  0.00    -0.094 A  
HETATM   17  C   UNL     1      -8.310   9.562  68.287  1.00  0.00    -0.118 A  
ENDROOT
BRANCH   5  18
HETATM   18  C   UNL     1      -9.766  10.860  66.782  1.00  0.00    -0.221 C  
HETATM   19  C   UNL     1     -10.475  11.825  66.663  1.00  0.00    -0.259 C  
BRANCH  19  20
HETATM   20  C   UNL     1     -11.289  12.987  66.489  1.00  0.00    -0.359 C  
HETATM   21  C   UNL     1     -11.895  13.636  67.709  1.00  0.00    -0.403 C  
HETATM   22  C   UNL     1     -10.776  14.320  66.979  1.00  0.00    -0.290 C  
ENDBRANCH  19  20
ENDBRANCH   5  18
TORSDOF 2
ENDMDL
MODEL      119
REMARK 921   NORMALIZED FREE ENERGY PREDICTED BY IDOCK:   -3.33 KCAL/MOL
REMARK 922        TOTAL FREE ENERGY PREDICTED BY IDOCK:   -4.17 KCAL/MOL
REMARK 923 INTER-LIGAND FREE ENERGY PREDICTED BY IDOCK:   -3.73 KCAL/MOL
REMARK 924 INTRA-LIGAND FREE ENERGY PREDICTED BY IDOCK:   -0.44 KCAL/MOL
REMARK 927      BINDING AFFINITY PREDICTED BY RF-SCORE:    0.00 PKD
ROOT
HETATM    1  F   UNL     1     -11.118   5.965  70.525  1.00  0.00    -0.339 F  
HETATM    2  C   UNL     1     -10.211   6.953  70.308  1.00  0.00    -0.192 C  
HETATM    3  F   UNL     1      -9.303   6.868  71.313  1.00  0.00    -0.161 F  
HETATM    4  F   UNL     1     -10.883   8.117  70.506  1.00  0.00    -0.222 F  
HETATM    5  C   UNL     1      -9.553   6.858  68.883  1.00  0.00    -0.139 C  
HETATM    6  O   UNL     1     -10.239   5.782  68.184  1.00  0.00    -0.159 OA 
HETATM    7  C   UNL     1     -10.189   9.364  66.081  1.00  0.00    -0.264 A  
HETATM    8  C   UNL     1     -10.414   5.772  66.848  1.00  0.00    -0.285 C  
HETATM    9 CL   UNL     1      -8.932  12.095  68.703  1.00  0.00    -0.069 Cl 
HETATM   10  C   UNL     1      -9.855  10.581  66.673  1.00  0.00    -0.246 A  
HETATM   11  N   UNL     1     -10.368   6.973  66.210  1.00  0.00    -0.421 N  
HETATM   12  O   UNL     1     -10.679   4.743  66.237  1.00  0.00    -0.283 OA 
HETATM   13  C   UNL     1      -9.367  10.598  67.977  1.00  0.00    -0.147 A  
HETATM   14  C   UNL     1     -10.066   8.181  66.812  1.00  0.00    -0.295 A  
HETATM   15  H   UNL     1     -10.571   6.983  65.210  1.00  0.00     0.000 HD 
HETATM   16  C   UNL     1      -9.236   9.411  68.700  1.00  0.00    -0.131 A  
HETATM   17  C   UNL     1      -9.625   8.182  68.133  1.00  0.00    -0.162 A  
ENDROOT
BRANCH   5  18
HETATM   18  C   UNL     1      -8.137   6.416  68.989  1.00  0.00    -0.111 C  
HETATM   19  C   UNL     1      -6.992   6.045  69.004  1.00  0.00    -0.068 C  
BRANCH  19  20
HETATM   20  C   UNL     1      -5.636   5.594  68.977  1.00  0.00    -0.011 C  
HETATM   21  C   UNL     1      -5.338   4.167  69.366  1.00  0.00    -0.011 C  
HETATM   22  C   UNL     1      -5.219   4.589  67.931  1.00  0.00    -0.011 C  
ENDBRANCH  19  20
ENDBRANCH   5  18
TORSDOF 2
ENDMDL
MODEL      120
REMARK 921   NORMALIZED FREE ENERGY PREDICTED BY IDOCK:   -3.29 KCAL/MOL
REMARK 922        TOTAL FREE ENERGY PREDICTED BY IDOCK:   -4.13 KCAL/MOL
REMARK 923 INTER-LIGAND FREE ENERGY PREDICTED BY IDOCK:   -3.67 KCAL/MOL
REMARK 924 INTRA-LIGAND FREE ENERGY PREDICTED BY IDOCK:   -0.46 KCAL/MOL
REMARK 927      BINDING AFFINITY PREDICTED BY RF-SCORE:    0.00 PKD
ROOT
HETATM    1  F   UNL     1     -12.043  10.995  68.415  1.00  0.00    -0.361 F  
HETATM    2  C   UNL     1     -11.022  11.014  67.519  1.00  0.00    -0.281 C  
HETATM    3  F   UNL     1     -11.027  12.250  66.958  1.00  0.00    -0.251 F  
HETATM    4  F   UNL     1     -11.382  10.152  66.533  1.00  0.00    -0.010 F  
HETATM    5  C   UNL     1      -9.641  10.651  68.178  1.00  0.00    -0.157 C  
HETATM    6  O   UNL     1      -9.928  10.276  69.555  1.00  0.00    -0.223 OA 
HETATM    7  C   UNL     1      -7.739   7.422  67.477  1.00  0.00    -0.111 A  
HETATM    8  C   UNL     1      -9.195   9.374  70.236  1.00  0.00    -0.245 C  
HETATM    9 CL   UNL     1      -7.911   8.554  63.656  1.00  0.00    -0.155 Cl 
HETATM   10  C   UNL     1      -7.608   7.436  66.090  1.00  0.00    -0.088 A  
HETATM   11  N   UNL     1      -8.483   8.477  69.502  1.00  0.00    -0.125 N  
HETATM   12  O   UNL     1      -9.222   9.309  71.459  1.00  0.00    -0.305 OA 
HETATM   13  C   UNL     1      -8.091   8.522  65.366  1.00  0.00    -0.127 A  
HETATM   14  C   UNL     1      -8.384   8.479  68.122  1.00  0.00    -0.127 A  
HETATM   15  H   UNL     1      -7.983   7.746  70.008  1.00  0.00     0.000 HD 
HETATM   16  C   UNL     1      -8.726   9.582  66.017  1.00  0.00    -0.166 A  
HETATM   17  C   UNL     1      -8.915   9.552  67.412  1.00  0.00    -0.141 A  
ENDROOT
BRANCH   5  18
HETATM   18  C   UNL     1      -8.774  11.855  68.273  1.00  0.00    -0.170 C  
HETATM   19  C   UNL     1      -8.057  12.822  68.280  1.00  0.00    -0.154 C  
BRANCH  19  20
HETATM   20  C   UNL     1      -7.196  13.963  68.244  1.00  0.00    -0.112 C  
HETATM   21  C   UNL     1      -7.487  15.060  67.250  1.00  0.00    -0.215 C  
HETATM   22  C   UNL     1      -7.728  15.296  68.712  1.00  0.00    -0.147 C  
ENDBRANCH  19  20
ENDBRANCH   5  18
TORSDOF 2
ENDMDL
MODEL      121
REMARK 921   NORMALIZED FREE ENERGY PREDICTED BY IDOCK:   -3.28 KCAL/MOL
REMARK 922        TOTAL FREE ENERGY PREDICTED BY IDOCK:   -4.12 KCAL/MOL
REMARK 923 INTER-LIGAND FREE ENERGY PREDICTED BY IDOCK:   -3.68 KCAL/MOL
REMARK 924 INTRA-LIGAND FREE ENERGY PREDICTED BY IDOCK:   -0.44 KCAL/MOL
REMARK 927      BINDING AFFINITY PREDICTED BY RF-SCORE:    0.00 PKD
ROOT
HETATM    1  F   UNL     1     -12.268   6.380  69.978  1.00  0.00    -0.431 F  
HETATM    2  C   UNL     1     -11.020   6.874  70.191  1.00  0.00    -0.281 C  
HETATM    3  F   UNL     1     -10.631   6.422  71.410  1.00  0.00    -0.234 F  
HETATM    4  F   UNL     1     -11.174   8.217  70.319  1.00  0.00    -0.255 F  
HETATM    5  C   UNL     1     -10.017   6.477  69.047  1.00  0.00    -0.145 C  
HETATM    6  O   UNL     1     -10.803   5.791  68.031  1.00  0.00    -0.242 OA 
HETATM    7  C   UNL     1      -8.563   8.958  66.543  1.00  0.00    -0.133 A  
HETATM    8  C   UNL     1     -10.499   5.833  66.719  1.00  0.00    -0.287 C  
HETATM    9 CL   UNL     1      -7.268  10.923  69.765  1.00  0.00    -0.109 Cl 
HETATM   10  C   UNL     1      -7.980   9.921  67.366  1.00  0.00    -0.106 A  
HETATM   11  N   UNL     1      -9.746   6.884  66.293  1.00  0.00    -0.396 N  
HETATM   12  O   UNL     1     -10.939   5.010  65.926  1.00  0.00    -0.218 OA 
HETATM   13  C   UNL     1      -8.006   9.750  68.747  1.00  0.00    -0.087 A  
HETATM   14  C   UNL     1      -9.197   7.853  67.113  1.00  0.00    -0.146 A  
HETATM   15  H   UNL     1      -9.572   6.963  65.290  1.00  0.00     0.000 HD 
HETATM   16  C   UNL     1      -8.633   8.637  69.312  1.00  0.00    -0.131 A  
HETATM   17  C   UNL     1      -9.275   7.687  68.494  1.00  0.00    -0.143 A  
ENDROOT
BRANCH   5  18
HETATM   18  C   UNL     1      -9.041   5.467  69.534  1.00  0.00    -0.143 C  
HETATM   19  C   UNL     1      -8.228   4.641  69.860  1.00  0.00    -0.069 C  
BRANCH  19  20
HETATM   20  C   UNL     1      -7.251   3.655  70.204  1.00  0.00    -0.041 C  
HETATM   21  C   UNL     1      -7.572   2.668  71.299  1.00  0.00    -0.040 C  
HETATM   22  C   UNL     1      -7.525   2.208  69.871  1.00  0.00    -0.043 C  
ENDBRANCH  19  20
ENDBRANCH   5  18
TORSDOF 2
ENDMDL
MODEL      122
REMARK 921   NORMALIZED FREE ENERGY PREDICTED BY IDOCK:   -3.25 KCAL/MOL
REMARK 922        TOTAL FREE ENERGY PREDICTED BY IDOCK:   -4.07 KCAL/MOL
REMARK 923 INTER-LIGAND FREE ENERGY PREDICTED BY IDOCK:   -3.63 KCAL/MOL
REMARK 924 INTRA-LIGAND FREE ENERGY PREDICTED BY IDOCK:   -0.44 KCAL/MOL
REMARK 927      BINDING AFFINITY PREDICTED BY RF-SCORE:    0.00 PKD
ROOT
HETATM    1  F   UNL     1     -11.570   6.828  69.839  1.00  0.00    -0.351 F  
HETATM    2  C   UNL     1     -10.856   6.427  68.755  1.00  0.00    -0.317 C  
HETATM    3  F   UNL     1     -11.631   6.676  67.669  1.00  0.00    -0.301 F  
HETATM    4  F   UNL     1     -10.769   5.075  68.853  1.00  0.00    -0.209 F  
HETATM    5  C   UNL     1      -9.451   7.128  68.674  1.00  0.00    -0.140 C  
HETATM    6  O   UNL     1      -9.311   7.912  69.891  1.00  0.00    -0.156 OA 
HETATM    7  C   UNL     1      -6.140   5.315  69.215  1.00  0.00    -0.025 A  
HETATM    8  C   UNL     1      -8.121   8.148  70.478  1.00  0.00    -0.104 C  
HETATM    9 CL   UNL     1      -7.368   2.914  66.275  1.00  0.00    -0.066 Cl 
HETATM   10  C   UNL     1      -6.202   4.276  68.288  1.00  0.00    -0.032 A  
HETATM   11  N   UNL     1      -7.114   7.274  70.204  1.00  0.00    -0.064 N  
HETATM   12  O   UNL     1      -7.964   9.059  71.281  1.00  0.00    -0.216 OA 
HETATM   13  C   UNL     1      -7.299   4.180  67.437  1.00  0.00    -0.069 A  
HETATM   14  C   UNL     1      -7.194   6.226  69.305  1.00  0.00    -0.086 A  
HETATM   15  H   UNL     1      -6.231   7.403  70.699  1.00  0.00     0.000 HD 
HETATM   16  C   UNL     1      -8.345   5.101  67.523  1.00  0.00    -0.106 A  
HETATM   17  C   UNL     1      -8.321   6.121  68.494  1.00  0.00    -0.114 A  
ENDROOT
BRANCH   5  18
HETATM   18  C   UNL     1      -9.423   8.118  67.565  1.00  0.00    -0.184 C  
HETATM   19  C   UNL     1      -9.415   8.865  66.621  1.00  0.00    -0.261 C  
BRANCH  19  20
HETATM   20  C   UNL     1      -9.413   9.717  65.473  1.00  0.00    -0.330 C  
HETATM   21  C   UNL     1     -10.523  10.728  65.319  1.00  0.00    -0.282 C  
HETATM   22  C   UNL     1      -9.136  11.190  65.656  1.00  0.00    -0.221 C  
ENDBRANCH  19  20
ENDBRANCH   5  18
TORSDOF 2
ENDMDL
MODEL      123
REMARK 921   NORMALIZED FREE ENERGY PREDICTED BY IDOCK:   -3.20 KCAL/MOL
REMARK 922        TOTAL FREE ENERGY PREDICTED BY IDOCK:   -4.02 KCAL/MOL
REMARK 923 INTER-LIGAND FREE ENERGY PREDICTED BY IDOCK:   -3.56 KCAL/MOL
REMARK 924 INTRA-LIGAND FREE ENERGY PREDICTED BY IDOCK:   -0.46 KCAL/MOL
REMARK 927      BINDING AFFINITY PREDICTED BY RF-SCORE:    0.00 PKD
ROOT
HETATM    1  F   UNL     1      -5.432  17.989  65.853  1.00  0.00    -0.169 F  
HETATM    2  C   UNL     1      -6.322  17.160  66.458  1.00  0.00    -0.218 C  
HETATM    3  F   UNL     1      -5.757  15.926  66.462  1.00  0.00     0.309 F  
HETATM    4  F   UNL     1      -7.385  17.085  65.616  1.00  0.00    -0.210 F  
HETATM    5  C   UNL     1      -6.714  17.654  67.899  1.00  0.00    -0.188 C  
HETATM    6  O   UNL     1      -6.073  18.948  68.078  1.00  0.00    -0.206 OA 
HETATM    7  C   UNL     1     -10.161  19.002  68.816  1.00  0.00    -0.429 A  
HETATM    8  C   UNL     1      -6.598  19.926  68.842  1.00  0.00    -0.323 C  
HETATM    9 CL   UNL     1     -11.512  15.507  67.447  1.00  0.00    -0.214 Cl 
HETATM   10  C   UNL     1     -11.010  17.968  68.427  1.00  0.00     0.191 A  
HETATM   11  N   UNL     1      -7.940  19.880  69.066  1.00  0.00    -0.121 N  
HETATM   12  O   UNL     1      -5.921  20.858  69.258  1.00  0.00    -0.330 OA 
HETATM   13  C   UNL     1     -10.469  16.794  67.907  1.00  0.00    -0.335 A  
HETATM   14  C   UNL     1      -8.781  18.865  68.649  1.00  0.00    -0.339 A  
HETATM   15  H   UNL     1      -8.358  20.655  69.583  1.00  0.00     0.000 HD 
HETATM   16  C   UNL     1      -9.088  16.659  67.752  1.00  0.00    -0.212 A  
HETATM   17  C   UNL     1      -8.224  17.718  68.088  1.00  0.00    -0.260 A  
ENDROOT
BRANCH   5  18
HETATM   18  C   UNL     1      -6.114  16.773  68.935  1.00  0.00    -0.157 C  
HETATM   19  C   UNL     1      -5.667  16.005  69.747  1.00  0.00    -0.148 C  
BRANCH  19  20
HETATM   20  C   UNL     1      -5.163  15.060  70.695  1.00  0.00    -0.130 C  
HETATM   21  C   UNL     1      -6.146  14.232  71.485  1.00  0.00     0.055 C  
HETATM   22  C   UNL     1      -5.320  13.585  70.411  1.00  0.00    -0.123 C  
ENDBRANCH  19  20
ENDBRANCH   5  18
TORSDOF 2
ENDMDL
MODEL      124
REMARK 921   NORMALIZED FREE ENERGY PREDICTED BY IDOCK:   -3.19 KCAL/MOL
REMARK 922        TOTAL FREE ENERGY PREDICTED BY IDOCK:   -4.02 KCAL/MOL
REMARK 923 INTER-LIGAND FREE ENERGY PREDICTED BY IDOCK:   -3.56 KCAL/MOL
REMARK 924 INTRA-LIGAND FREE ENERGY PREDICTED BY IDOCK:   -0.46 KCAL/MOL
REMARK 927      BINDING AFFINITY PREDICTED BY RF-SCORE:    0.00 PKD
ROOT
HETATM    1  F   UNL     1     -10.734   4.769  67.622  1.00  0.00    -0.091 F  
HETATM    2  C   UNL     1     -10.557   6.115  67.677  1.00  0.00    -0.270 C  
HETATM    3  F   UNL     1     -10.940   6.503  68.920  1.00  0.00    -0.254 F  
HETATM    4  F   UNL     1     -11.470   6.641  66.820  1.00  0.00    -0.461 F  
HETATM    5  C   UNL     1      -9.081   6.537  67.336  1.00  0.00    -0.112 C  
HETATM    6  O   UNL     1      -8.387   5.322  66.936  1.00  0.00    -0.108 OA 
HETATM    7  C   UNL     1      -8.085   8.398  64.161  1.00  0.00    -0.145 A  
HETATM    8  C   UNL     1      -7.380   5.315  66.042  1.00  0.00    -0.081 C  
HETATM    9 CL   UNL     1     -10.741  11.131  65.341  1.00  0.00    -0.295 Cl 
HETATM   10  C   UNL     1      -8.901   9.528  64.196  1.00  0.00    -0.243 A  
HETATM   11  N   UNL     1      -7.320   6.359  65.171  1.00  0.00    -0.074 N  
HETATM   12  O   UNL     1      -6.593   4.379  65.960  1.00  0.00    -0.040 OA 
HETATM   13  C   UNL     1      -9.750   9.727  65.281  1.00  0.00    -0.300 A  
HETATM   14  C   UNL     1      -8.154   7.462  65.194  1.00  0.00    -0.129 A  
HETATM   15  H   UNL     1      -6.604   6.326  64.445  1.00  0.00     0.000 HD 
HETATM   16  C   UNL     1      -9.808   8.792  66.318  1.00  0.00    -0.342 A  
HETATM   17  C   UNL     1      -9.031   7.619  66.265  1.00  0.00    -0.203 A  
ENDROOT
BRANCH   5  18
HETATM   18  C   UNL     1      -8.376   7.007  68.558  1.00  0.00    -0.121 C  
HETATM   19  C   UNL     1      -7.785   7.446  69.511  1.00  0.00    -0.108 C  
BRANCH  19  20
HETATM   20  C   UNL     1      -7.072   8.003  70.617  1.00  0.00    -0.045 C  
HETATM   21  C   UNL     1      -5.738   8.660  70.363  1.00  0.00    -0.027 C  
HETATM   22  C   UNL     1      -6.929   9.503  70.715  1.00  0.00    -0.108 C  
ENDBRANCH  19  20
ENDBRANCH   5  18
TORSDOF 2
ENDMDL
MODEL      125
REMARK 921   NORMALIZED FREE ENERGY PREDICTED BY IDOCK:   -3.15 KCAL/MOL
REMARK 922        TOTAL FREE ENERGY PREDICTED BY IDOCK:   -3.97 KCAL/MOL
REMARK 923 INTER-LIGAND FREE ENERGY PREDICTED BY IDOCK:   -3.54 KCAL/MOL
REMARK 924 INTRA-LIGAND FREE ENERGY PREDICTED BY IDOCK:   -0.43 KCAL/MOL
REMARK 927      BINDING AFFINITY PREDICTED BY RF-SCORE:    0.00 PKD
ROOT
HETATM    1  F   UNL     1     -12.017   6.524  69.527  1.00  0.00    -0.395 F  
HETATM    2  C   UNL     1     -10.909   6.668  70.301  1.00  0.00    -0.271 C  
HETATM    3  F   UNL     1     -11.319   6.530  71.588  1.00  0.00    -0.272 F  
HETATM    4  F   UNL     1     -10.532   7.966  70.164  1.00  0.00    -0.211 F  
HETATM    5  C   UNL     1      -9.773   5.654  69.912  1.00  0.00    -0.168 C  
HETATM    6  O   UNL     1     -10.239   4.948  68.728  1.00  0.00    -0.142 OA 
HETATM    7  C   UNL     1      -6.490   6.676  68.263  1.00  0.00    -0.049 A  
HETATM    8  C   UNL     1      -9.406   4.483  67.777  1.00  0.00    -0.147 C  
HETATM    9 CL   UNL     1      -6.052   9.080  71.416  1.00  0.00    -0.060 Cl 
HETATM   10  C   UNL     1      -5.986   7.631  69.144  1.00  0.00    -0.034 A  
HETATM   11  N   UNL     1      -8.183   5.074  67.684  1.00  0.00    -0.105 N  
HETATM   12  O   UNL     1      -9.751   3.620  66.978  1.00  0.00    -0.197 OA 
HETATM   13  C   UNL     1      -6.682   7.919  70.315  1.00  0.00    -0.038 A  
HETATM   14  C   UNL     1      -7.703   6.045  68.545  1.00  0.00    -0.095 A  
HETATM   15  H   UNL     1      -7.574   4.778  66.922  1.00  0.00     0.000 HD 
HETATM   16  C   UNL     1      -7.890   7.277  70.598  1.00  0.00    -0.094 A  
HETATM   17  C   UNL     1      -8.437   6.353  69.688  1.00  0.00    -0.130 A  
ENDROOT
BRANCH   5  18
HETATM   18  C   UNL     1      -9.623   4.608  70.958  1.00  0.00    -0.245 C  
HETATM   19  C   UNL     1      -9.568   3.780  71.830  1.00  0.00    -0.226 C  
BRANCH  19  20
HETATM   20  C   UNL     1      -9.543   2.810  72.879  1.00  0.00    -0.154 C  
HETATM   21  C   UNL     1     -10.667   2.801  73.885  1.00  0.00    -0.271 C  
HETATM   22  C   UNL     1     -10.565   1.698  72.873  1.00  0.00    -0.231 C  
ENDBRANCH  19  20
ENDBRANCH   5  18
TORSDOF 2
ENDMDL
MODEL      126
REMARK 921   NORMALIZED FREE ENERGY PREDICTED BY IDOCK:   -3.13 KCAL/MOL
REMARK 922        TOTAL FREE ENERGY PREDICTED BY IDOCK:   -3.95 KCAL/MOL
REMARK 923 INTER-LIGAND FREE ENERGY PREDICTED BY IDOCK:   -3.51 KCAL/MOL
REMARK 924 INTRA-LIGAND FREE ENERGY PREDICTED BY IDOCK:   -0.44 KCAL/MOL
REMARK 927      BINDING AFFINITY PREDICTED BY RF-SCORE:    0.00 PKD
ROOT
HETATM    1  F   UNL     1     -11.846   6.979  68.307  1.00  0.00     0.267 F  
HETATM    2  C   UNL     1     -10.533   7.143  67.998  1.00  0.00    -0.201 C  
HETATM    3  F   UNL     1     -10.435   7.003  66.652  1.00  0.00    -0.310 F  
HETATM    4  F   UNL     1      -9.894   6.072  68.536  1.00  0.00    -0.119 F  
HETATM    5  C   UNL     1      -9.967   8.518  68.509  1.00  0.00    -0.184 C  
HETATM    6  O   UNL     1     -11.030   9.139  69.283  1.00  0.00    -0.179 OA 
HETATM    7  C   UNL     1      -7.432   8.847  71.339  1.00  0.00    -0.108 A  
HETATM    8  C   UNL     1     -10.794   9.954  70.330  1.00  0.00    -0.319 C  
HETATM    9 CL   UNL     1      -5.160   6.429  69.124  1.00  0.00    -0.011 Cl 
HETATM   10  C   UNL     1      -6.383   8.037  70.909  1.00  0.00    -0.037 A  
HETATM   11  N   UNL     1      -9.590   9.827  70.952  1.00  0.00    -0.267 N  
HETATM   12  O   UNL     1     -11.646  10.724  70.757  1.00  0.00    -0.322 OA 
HETATM   13  C   UNL     1      -6.462   7.412  69.668  1.00  0.00    -0.036 A  
HETATM   14  C   UNL     1      -8.565   8.996  70.537  1.00  0.00    -0.201 A  
HETATM   15  H   UNL     1      -9.431  10.388  71.789  1.00  0.00     0.000 HD 
HETATM   16  C   UNL     1      -7.594   7.572  68.865  1.00  0.00    -0.105 A  
HETATM   17  C   UNL     1      -8.684   8.342  69.313  1.00  0.00    -0.139 A  
ENDROOT
BRANCH   5  18
HETATM   18  C   UNL     1      -9.723   9.440  67.369  1.00  0.00    -0.205 C  
HETATM   19  C   UNL     1      -9.485  10.134  66.414  1.00  0.00    -0.223 C  
BRANCH  19  20
HETATM   20  C   UNL     1      -9.178  10.925  65.264  1.00  0.00    -0.236 C  
HETATM   21  C   UNL     1     -10.262  11.172  64.243  1.00  0.00    -0.399 C  
HETATM   22  C   UNL     1      -9.804  12.293  65.129  1.00  0.00    -0.178 C  
ENDBRANCH  19  20
ENDBRANCH   5  18
TORSDOF 2
ENDMDL
MODEL      127
REMARK 921   NORMALIZED FREE ENERGY PREDICTED BY IDOCK:   -3.11 KCAL/MOL
REMARK 922        TOTAL FREE ENERGY PREDICTED BY IDOCK:   -3.93 KCAL/MOL
REMARK 923 INTER-LIGAND FREE ENERGY PREDICTED BY IDOCK:   -3.47 KCAL/MOL
REMARK 924 INTRA-LIGAND FREE ENERGY PREDICTED BY IDOCK:   -0.46 KCAL/MOL
REMARK 927      BINDING AFFINITY PREDICTED BY RF-SCORE:    0.00 PKD
ROOT
HETATM    1  F   UNL     1     -11.503   5.922  67.711  1.00  0.00    -0.234 F  
HETATM    2  C   UNL     1     -10.802   6.602  68.656  1.00  0.00    -0.262 C  
HETATM    3  F   UNL     1     -11.643   6.778  69.706  1.00  0.00    -0.345 F  
HETATM    4  F   UNL     1     -10.586   7.837  68.135  1.00  0.00    -0.231 F  
HETATM    5  C   UNL     1      -9.473   5.864  69.059  1.00  0.00    -0.127 C  
HETATM    6  O   UNL     1      -9.354   4.717  68.172  1.00  0.00    -0.122 OA 
HETATM    7  C   UNL     1      -5.988   7.151  68.201  1.00  0.00    -0.030 A  
HETATM    8  C   UNL     1      -8.167   4.215  67.779  1.00  0.00    -0.094 C  
HETATM    9 CL   UNL     1      -7.114  10.464  70.117  1.00  0.00    -0.159 Cl 
HETATM   10  C   UNL     1      -5.993   8.437  68.737  1.00  0.00    -0.044 A  
HETATM   11  N   UNL     1      -7.095   5.054  67.828  1.00  0.00    -0.065 N  
HETATM   12  O   UNL     1      -8.060   3.083  67.324  1.00  0.00    -0.077 OA 
HETATM   13  C   UNL     1      -7.112   8.886  69.433  1.00  0.00    -0.057 A  
HETATM   14  C   UNL     1      -7.117   6.341  68.334  1.00  0.00    -0.083 A  
HETATM   15  H   UNL     1      -6.208   4.705  67.465  1.00  0.00     0.000 HD 
HETATM   16  C   UNL     1      -8.235   8.068  69.573  1.00  0.00    -0.122 A  
HETATM   17  C   UNL     1      -8.264   6.788  68.985  1.00  0.00    -0.117 A  
ENDROOT
BRANCH   5  18
HETATM   18  C   UNL     1      -9.586   5.291  70.426  1.00  0.00    -0.241 C  
HETATM   19  C   UNL     1      -9.724   4.880  71.549  1.00  0.00    -0.233 C  
BRANCH  19  20
HETATM   20  C   UNL     1      -9.917   4.426  72.891  1.00  0.00    -0.201 C  
HETATM   21  C   UNL     1     -10.633   5.329  73.866  1.00  0.00    -0.335 C  
HETATM   22  C   UNL     1     -11.314   4.092  73.357  1.00  0.00    -0.294 C  
ENDBRANCH  19  20
ENDBRANCH   5  18
TORSDOF 2
ENDMDL
MODEL      128
REMARK 921   NORMALIZED FREE ENERGY PREDICTED BY IDOCK:   -3.02 KCAL/MOL
REMARK 922        TOTAL FREE ENERGY PREDICTED BY IDOCK:   -3.83 KCAL/MOL
REMARK 923 INTER-LIGAND FREE ENERGY PREDICTED BY IDOCK:   -3.38 KCAL/MOL
REMARK 924 INTRA-LIGAND FREE ENERGY PREDICTED BY IDOCK:   -0.45 KCAL/MOL
REMARK 927      BINDING AFFINITY PREDICTED BY RF-SCORE:    0.00 PKD
ROOT
HETATM    1  F   UNL     1      -8.223  11.468  67.672  1.00  0.00    -0.117 F  
HETATM    2  C   UNL     1      -7.849  10.171  67.517  1.00  0.00    -0.102 C  
HETATM    3  F   UNL     1      -6.492  10.159  67.534  1.00  0.00    -0.063 F  
HETATM    4  F   UNL     1      -8.213   9.833  66.254  1.00  0.00    -0.112 F  
HETATM    5  C   UNL     1      -8.479   9.234  68.611  1.00  0.00    -0.123 C  
HETATM    6  O   UNL     1      -9.391  10.061  69.387  1.00  0.00    -0.197 OA 
HETATM    7  C   UNL     1     -11.153   6.617  67.875  1.00  0.00    -0.310 A  
HETATM    8  C   UNL     1     -10.508   9.577  69.963  1.00  0.00    -0.247 C  
HETATM    9 CL   UNL     1      -8.522   5.166  65.250  1.00  0.00    -0.138 Cl 
HETATM   10  C   UNL     1     -10.562   5.844  66.877  1.00  0.00    -0.384 A  
HETATM   11  N   UNL     1     -11.029   8.435  69.438  1.00  0.00    -0.431 N  
HETATM   12  O   UNL     1     -11.079  10.172  70.870  1.00  0.00    -0.338 OA 
HETATM   13  C   UNL     1      -9.264   6.131  66.465  1.00  0.00    -0.149 A  
HETATM   14  C   UNL     1     -10.452   7.691  68.425  1.00  0.00    -0.169 A  
HETATM   15  H   UNL     1     -11.914   8.102  69.821  1.00  0.00     0.000 HD 
HETATM   16  C   UNL     1      -8.563   7.201  67.026  1.00  0.00    -0.122 A  
HETATM   17  C   UNL     1      -9.170   8.024  67.994  1.00  0.00    -0.139 A  
ENDROOT
BRANCH   5  18
HETATM   18  C   UNL     1      -7.442   8.783  69.576  1.00  0.00    -0.075 C  
HETATM   19  C   UNL     1      -6.608   8.351  70.329  1.00  0.00    -0.035 C  
BRANCH  19  20
HETATM   20  C   UNL     1      -5.624   7.798  71.206  1.00  0.00    -0.034 C  
HETATM   21  C   UNL     1      -5.572   8.283  72.634  1.00  0.00    -0.048 C  
HETATM   22  C   UNL     1      -6.073   6.900  72.335  1.00  0.00    -0.042 C  
ENDBRANCH  19  20
ENDBRANCH   5  18
TORSDOF 2
ENDMDL
MODEL      129
REMARK 921   NORMALIZED FREE ENERGY PREDICTED BY IDOCK:   -3.01 KCAL/MOL
REMARK 922        TOTAL FREE ENERGY PREDICTED BY IDOCK:   -3.81 KCAL/MOL
REMARK 923 INTER-LIGAND FREE ENERGY PREDICTED BY IDOCK:   -3.36 KCAL/MOL
REMARK 924 INTRA-LIGAND FREE ENERGY PREDICTED BY IDOCK:   -0.45 KCAL/MOL
REMARK 927      BINDING AFFINITY PREDICTED BY RF-SCORE:    0.00 PKD
ROOT
HETATM    1  F   UNL     1      -5.253   9.947  69.827  1.00  0.00    -0.036 F  
HETATM    2  C   UNL     1      -6.543  10.205  70.166  1.00  0.00    -0.128 C  
HETATM    3  F   UNL     1      -6.584  11.502  70.563  1.00  0.00    -0.096 F  
HETATM    4  F   UNL     1      -6.786   9.463  71.277  1.00  0.00    -0.088 F  
HETATM    5  C   UNL     1      -7.542   9.897  68.991  1.00  0.00    -0.086 C  
HETATM    6  O   UNL     1      -6.753   9.296  67.926  1.00  0.00    -0.069 OA 
HETATM    7  C   UNL     1     -10.049   7.024  69.036  1.00  0.00    -0.182 A  
HETATM    8  C   UNL     1      -7.253   8.387  67.068  1.00  0.00    -0.080 C  
HETATM    9 CL   UNL     1     -11.365   8.679  72.419  1.00  0.00    -0.409 Cl 
HETATM   10  C   UNL     1     -10.761   7.255  70.211  1.00  0.00    -0.252 A  
HETATM   11  N   UNL     1      -8.346   7.687  67.478  1.00  0.00    -0.120 N  
HETATM   12  O   UNL     1      -6.713   8.141  65.996  1.00  0.00    -0.052 OA 
HETATM   13  C   UNL     1     -10.472   8.378  70.980  1.00  0.00    -0.206 A  
HETATM   14  C   UNL     1      -9.029   7.901  68.661  1.00  0.00    -0.134 A  
HETATM   15  H   UNL     1      -8.688   6.946  66.865  1.00  0.00     0.000 HD 
HETATM   16  C   UNL     1      -9.458   9.258  70.595  1.00  0.00    -0.333 A  
HETATM   17  C   UNL     1      -8.693   9.005  69.441  1.00  0.00    -0.142 A  
ENDROOT
BRANCH   5  18
HETATM   18  C   UNL     1      -8.079  11.159  68.416  1.00  0.00    -0.141 C  
HETATM   19  C   UNL     1      -8.459  12.215  67.982  1.00  0.00    -0.170 C  
BRANCH  19  20
HETATM   20  C   UNL     1      -8.875  13.490  67.487  1.00  0.00    -0.209 C  
HETATM   21  C   UNL     1     -10.270  13.971  67.804  1.00  0.00    -0.240 C  
HETATM   22  C   UNL     1      -9.089  14.620  68.465  1.00  0.00    -0.188 C  
ENDBRANCH  19  20
ENDBRANCH   5  18
TORSDOF 2
ENDMDL
MODEL      130
REMARK 921   NORMALIZED FREE ENERGY PREDICTED BY IDOCK:   -3.01 KCAL/MOL
REMARK 922        TOTAL FREE ENERGY PREDICTED BY IDOCK:   -3.81 KCAL/MOL
REMARK 923 INTER-LIGAND FREE ENERGY PREDICTED BY IDOCK:   -3.38 KCAL/MOL
REMARK 924 INTRA-LIGAND FREE ENERGY PREDICTED BY IDOCK:   -0.43 KCAL/MOL
REMARK 927      BINDING AFFINITY PREDICTED BY RF-SCORE:    0.00 PKD
ROOT
HETATM    1  F   UNL     1      -7.370  12.508  69.408  1.00  0.00    -0.011 F  
HETATM    2  C   UNL     1      -7.120  11.238  68.993  1.00  0.00    -0.116 C  
HETATM    3  F   UNL     1      -6.407  10.644  69.984  1.00  0.00    -0.065 F  
HETATM    4  F   UNL     1      -6.273  11.356  67.938  1.00  0.00    -0.049 F  
HETATM    5  C   UNL     1      -8.438  10.456  68.639  1.00  0.00    -0.129 C  
HETATM    6  O   UNL     1      -9.528  11.413  68.752  1.00  0.00    -0.186 OA 
HETATM    7  C   UNL     1      -9.418   9.445  65.096  1.00  0.00    -0.255 A  
HETATM    8  C   UNL     1     -10.643  11.345  68.000  1.00  0.00    -0.191 C  
HETATM    9 CL   UNL     1      -5.888   7.587  65.018  1.00  0.00    -0.037 Cl 
HETATM   10  C   UNL     1      -8.309   8.719  64.664  1.00  0.00    -0.175 A  
HETATM   11  N   UNL     1     -10.552  10.671  66.821  1.00  0.00    -0.250 N  
HETATM   12  O   UNL     1     -11.675  11.925  68.316  1.00  0.00    -0.305 OA 
HETATM   13  C   UNL     1      -7.248   8.503  65.539  1.00  0.00    -0.083 A  
HETATM   14  C   UNL     1      -9.437   9.978  66.386  1.00  0.00    -0.186 A  
HETATM   15  H   UNL     1     -11.370  10.676  66.211  1.00  0.00     0.000 HD 
HETATM   16  C   UNL     1      -7.276   9.029  66.832  1.00  0.00    -0.086 A  
HETATM   17  C   UNL     1      -8.365   9.813  67.260  1.00  0.00    -0.121 A  
ENDROOT
BRANCH   5  18
HETATM   18  C   UNL     1      -8.721   9.417  69.664  1.00  0.00    -0.172 C  
HETATM   19  C   UNL     1      -9.004   8.618  70.519  1.00  0.00    -0.185 C  
BRANCH  19  20
HETATM   20  C   UNL     1      -9.371   7.697  71.549  1.00  0.00    -0.157 C  
HETATM   21  C   UNL     1      -9.559   8.217  72.953  1.00  0.00    -0.320 C  
HETATM   22  C   UNL     1     -10.752   7.787  72.152  1.00  0.00    -0.302 C  
ENDBRANCH  19  20
ENDBRANCH   5  18
TORSDOF 2
ENDMDL
MODEL      131
REMARK 921   NORMALIZED FREE ENERGY PREDICTED BY IDOCK:   -3.00 KCAL/MOL
REMARK 922        TOTAL FREE ENERGY PREDICTED BY IDOCK:   -3.80 KCAL/MOL
REMARK 923 INTER-LIGAND FREE ENERGY PREDICTED BY IDOCK:   -3.35 KCAL/MOL
REMARK 924 INTRA-LIGAND FREE ENERGY PREDICTED BY IDOCK:   -0.45 KCAL/MOL
REMARK 927      BINDING AFFINITY PREDICTED BY RF-SCORE:    0.00 PKD
ROOT
HETATM    1  F   UNL     1     -11.782   6.456  66.788  1.00  0.00    -0.236 F  
HETATM    2  C   UNL     1     -10.452   6.367  67.052  1.00  0.00    -0.282 C  
HETATM    3  F   UNL     1     -10.335   6.257  68.400  1.00  0.00    -0.146 F  
HETATM    4  F   UNL     1      -9.931   7.578  66.727  1.00  0.00    -0.238 F  
HETATM    5  C   UNL     1      -9.769   5.177  66.284  1.00  0.00    -0.174 C  
HETATM    6  O   UNL     1     -10.787   4.613  65.410  1.00  0.00    -0.252 OA 
HETATM    7  C   UNL     1      -7.284   5.644  63.429  1.00  0.00    -0.053 A  
HETATM    8  C   UNL     1     -10.499   4.040  64.225  1.00  0.00    -0.190 C  
HETATM    9 CL   UNL     1      -5.201   7.808  66.054  1.00  0.00    -0.025 Cl 
HETATM   10  C   UNL     1      -6.307   6.458  64.000  1.00  0.00    -0.030 A  
HETATM   11  N   UNL     1      -9.328   4.401  63.633  1.00  0.00    -0.246 N  
HETATM   12  O   UNL     1     -11.284   3.285  63.663  1.00  0.00    -0.279 OA 
HETATM   13  C   UNL     1      -6.416   6.824  65.339  1.00  0.00    -0.046 A  
HETATM   14  C   UNL     1      -8.378   5.235  64.194  1.00  0.00    -0.131 A  
HETATM   15  H   UNL     1      -9.137   4.028  62.703  1.00  0.00     0.000 HD 
HETATM   16  C   UNL     1      -7.507   6.403  66.103  1.00  0.00    -0.082 A  
HETATM   17  C   UNL     1      -8.529   5.629  65.521  1.00  0.00    -0.146 A  
ENDROOT
BRANCH   5  18
HETATM   18  C   UNL     1      -9.410   4.083  67.224  1.00  0.00    -0.211 C  
HETATM   19  C   UNL     1      -9.131   3.151  67.933  1.00  0.00    -0.221 C  
BRANCH  19  20
HETATM   20  C   UNL     1      -8.809   2.016  68.739  1.00  0.00    -0.138 C  
HETATM   21  C   UNL     1      -7.829   2.187  69.874  1.00  0.00    -0.049 C  
HETATM   22  C   UNL     1      -9.284   1.977  70.172  1.00  0.00    -0.180 C  
ENDBRANCH  19  20
ENDBRANCH   5  18
TORSDOF 2
ENDMDL
MODEL      132
REMARK 921   NORMALIZED FREE ENERGY PREDICTED BY IDOCK:   -3.00 KCAL/MOL
REMARK 922        TOTAL FREE ENERGY PREDICTED BY IDOCK:   -3.80 KCAL/MOL
REMARK 923 INTER-LIGAND FREE ENERGY PREDICTED BY IDOCK:   -3.36 KCAL/MOL
REMARK 924 INTRA-LIGAND FREE ENERGY PREDICTED BY IDOCK:   -0.44 KCAL/MOL
REMARK 927      BINDING AFFINITY PREDICTED BY RF-SCORE:    0.00 PKD
ROOT
HETATM    1  F   UNL     1      -5.693   6.428  69.450  1.00  0.00    -0.012 F  
HETATM    2  C   UNL     1      -6.639   7.228  70.008  1.00  0.00    -0.046 C  
HETATM    3  F   UNL     1      -5.994   8.341  70.442  1.00  0.00    -0.028 F  
HETATM    4  F   UNL     1      -7.058   6.577  71.123  1.00  0.00    -0.068 F  
HETATM    5  C   UNL     1      -7.809   7.554  69.009  1.00  0.00    -0.120 C  
HETATM    6  O   UNL     1      -7.559   6.767  67.811  1.00  0.00    -0.102 OA 
HETATM    7  C   UNL     1     -11.360   6.220  69.395  1.00  0.00    -0.448 A  
HETATM    8  C   UNL     1      -8.547   6.298  67.024  1.00  0.00    -0.104 C  
HETATM    9 CL   UNL     1     -11.246   7.935  72.995  1.00  0.00    -0.437 Cl 
HETATM   10  C   UNL     1     -11.708   6.635  70.679  1.00  0.00    -0.452 A  
HETATM   11  N   UNL     1      -9.776   6.158  67.592  1.00  0.00    -0.114 N  
HETATM   12  O   UNL     1      -8.341   5.939  65.871  1.00  0.00    -0.123 OA 
HETATM   13  C   UNL     1     -10.811   7.401  71.419  1.00  0.00    -0.229 A  
HETATM   14  C   UNL     1     -10.104   6.545  68.879  1.00  0.00    -0.164 A  
HETATM   15  H   UNL     1     -10.511   5.736  67.025  1.00  0.00     0.000 HD 
HETATM   16  C   UNL     1      -9.560   7.732  70.894  1.00  0.00    -0.173 A  
HETATM   17  C   UNL     1      -9.175   7.270  69.621  1.00  0.00    -0.143 A  
ENDROOT
BRANCH   5  18
HETATM   18  C   UNL     1      -7.741   8.972  68.568  1.00  0.00    -0.097 C  
HETATM   19  C   UNL     1      -7.648  10.135  68.270  1.00  0.00    -0.087 C  
BRANCH  19  20
HETATM   20  C   UNL     1      -7.515  11.523  67.955  1.00  0.00    -0.098 C  
HETATM   21  C   UNL     1      -8.323  12.087  66.813  1.00  0.00    -0.135 C  
HETATM   22  C   UNL     1      -8.677  12.448  68.225  1.00  0.00    -0.175 C  
ENDBRANCH  19  20
ENDBRANCH   5  18
TORSDOF 2
ENDMDL
MODEL      133
REMARK 921   NORMALIZED FREE ENERGY PREDICTED BY IDOCK:   -2.96 KCAL/MOL
REMARK 922        TOTAL FREE ENERGY PREDICTED BY IDOCK:   -3.76 KCAL/MOL
REMARK 923 INTER-LIGAND FREE ENERGY PREDICTED BY IDOCK:   -3.31 KCAL/MOL
REMARK 924 INTRA-LIGAND FREE ENERGY PREDICTED BY IDOCK:   -0.45 KCAL/MOL
REMARK 927      BINDING AFFINITY PREDICTED BY RF-SCORE:    0.00 PKD
ROOT
HETATM    1  F   UNL     1      -9.374  13.448  69.319  1.00  0.00     0.183 F  
HETATM    2  C   UNL     1      -9.909  12.334  68.754  1.00  0.00    -0.004 C  
HETATM    3  F   UNL     1     -11.119  12.698  68.259  1.00  0.00    -0.233 F  
HETATM    4  F   UNL     1     -10.163  11.487  69.784  1.00  0.00     0.034 F  
HETATM    5  C   UNL     1      -8.968  11.708  67.661  1.00  0.00    -0.166 C  
HETATM    6  O   UNL     1      -7.732  12.475  67.695  1.00  0.00    -0.128 OA 
HETATM    7  C   UNL     1      -7.157   8.378  68.076  1.00  0.00    -0.086 A  
HETATM    8  C   UNL     1      -6.531  11.941  67.399  1.00  0.00    -0.126 C  
HETATM    9 CL   UNL     1     -10.797   6.870  68.705  1.00  0.00    -0.244 Cl 
HETATM   10  C   UNL     1      -8.197   7.495  68.363  1.00  0.00    -0.125 A  
HETATM   11  N   UNL     1      -6.407  10.591  67.523  1.00  0.00    -0.057 N  
HETATM   12  O   UNL     1      -5.567  12.637  67.103  1.00  0.00    -0.311 OA 
HETATM   13  C   UNL     1      -9.509   7.960  68.375  1.00  0.00    -0.148 A  
HETATM   14  C   UNL     1      -7.438   9.725  67.839  1.00  0.00    -0.086 A  
HETATM   15  H   UNL     1      -5.483  10.186  67.370  1.00  0.00     0.000 HD 
HETATM   16  C   UNL     1      -9.786   9.307  68.126  1.00  0.00    -0.169 A  
HETATM   17  C   UNL     1      -8.739  10.219  67.892  1.00  0.00    -0.122 A  
ENDROOT
BRANCH   5  18
HETATM   18  C   UNL     1      -9.527  11.926  66.301  1.00  0.00    -0.238 C  
HETATM   19  C   UNL     1     -10.034  12.141  65.230  1.00  0.00    -0.260 C  
BRANCH  19  20
HETATM   20  C   UNL     1     -10.669  12.417  63.980  1.00  0.00    -0.441 C  
HETATM   21  C   UNL     1     -11.133  11.260  63.131  1.00  0.00     0.038 C  
HETATM   22  C   UNL     1     -12.142  12.125  63.827  1.00  0.00    -0.620 C  
ENDBRANCH  19  20
ENDBRANCH   5  18
TORSDOF 2
ENDMDL
MODEL      134
REMARK 921   NORMALIZED FREE ENERGY PREDICTED BY IDOCK:   -2.94 KCAL/MOL
REMARK 922        TOTAL FREE ENERGY PREDICTED BY IDOCK:   -3.73 KCAL/MOL
REMARK 923 INTER-LIGAND FREE ENERGY PREDICTED BY IDOCK:   -3.29 KCAL/MOL
REMARK 924 INTRA-LIGAND FREE ENERGY PREDICTED BY IDOCK:   -0.43 KCAL/MOL
REMARK 927      BINDING AFFINITY PREDICTED BY RF-SCORE:    0.00 PKD
ROOT
HETATM    1  F   UNL     1      -7.816   8.747  71.892  1.00  0.00    -0.152 F  
HETATM    2  C   UNL     1      -7.409   8.264  70.689  1.00  0.00    -0.057 C  
HETATM    3  F   UNL     1      -6.310   7.506  70.932  1.00  0.00    -0.037 F  
HETATM    4  F   UNL     1      -6.974   9.344  69.989  1.00  0.00    -0.046 F  
HETATM    5  C   UNL     1      -8.545   7.469  69.949  1.00  0.00    -0.139 C  
HETATM    6  O   UNL     1      -9.745   7.616  70.759  1.00  0.00    -0.174 OA 
HETATM    7  C   UNL     1     -10.280   8.699  66.784  1.00  0.00    -0.361 A  
HETATM    8  C   UNL     1     -10.986   7.629  70.233  1.00  0.00    -0.252 C  
HETATM    9 CL   UNL     1      -6.603   8.862  65.244  1.00  0.00    -0.067 Cl 
HETATM   10  C   UNL     1      -9.214   8.917  65.912  1.00  0.00    -0.290 A  
HETATM   11  N   UNL     1     -11.098   7.972  68.921  1.00  0.00    -0.407 N  
HETATM   12  O   UNL     1     -11.981   7.417  70.916  1.00  0.00    -0.307 OA 
HETATM   13  C   UNL     1      -7.919   8.617  66.324  1.00  0.00    -0.102 A  
HETATM   14  C   UNL     1     -10.034   8.217  68.071  1.00  0.00    -0.185 A  
HETATM   15  H   UNL     1     -12.038   8.054  68.534  1.00  0.00     0.000 HD 
HETATM   16  C   UNL     1      -7.680   8.125  67.610  1.00  0.00    -0.102 A  
HETATM   17  C   UNL     1      -8.742   7.955  68.518  1.00  0.00    -0.131 A  
ENDROOT
BRANCH   5  18
HETATM   18  C   UNL     1      -8.250   6.012  69.949  1.00  0.00    -0.118 C  
HETATM   19  C   UNL     1      -8.043   4.828  70.013  1.00  0.00    -0.069 C  
BRANCH  19  20
HETATM   20  C   UNL     1      -7.816   3.421  70.129  1.00  0.00    -0.049 C  
HETATM   21  C   UNL     1      -8.765   2.601  70.968  1.00  0.00    -0.119 C  
HETATM   22  C   UNL     1      -8.786   2.467  69.474  1.00  0.00    -0.129 C  
ENDBRANCH  19  20
ENDBRANCH   5  18
TORSDOF 2
ENDMDL
MODEL      135
REMARK 921   NORMALIZED FREE ENERGY PREDICTED BY IDOCK:   -2.93 KCAL/MOL
REMARK 922        TOTAL FREE ENERGY PREDICTED BY IDOCK:   -3.72 KCAL/MOL
REMARK 923 INTER-LIGAND FREE ENERGY PREDICTED BY IDOCK:   -3.27 KCAL/MOL
REMARK 924 INTRA-LIGAND FREE ENERGY PREDICTED BY IDOCK:   -0.45 KCAL/MOL
REMARK 927      BINDING AFFINITY PREDICTED BY RF-SCORE:    0.00 PKD
ROOT
HETATM    1  F   UNL     1      -5.526  15.866  69.057  1.00  0.00    -0.102 F  
HETATM    2  C   UNL     1      -6.132  16.293  67.918  1.00  0.00    -0.125 C  
HETATM    3  F   UNL     1      -6.840  15.238  67.441  1.00  0.00    -0.175 F  
HETATM    4  F   UNL     1      -5.129  16.507  67.028  1.00  0.00    -0.142 F  
HETATM    5  C   UNL     1      -7.024  17.566  68.157  1.00  0.00    -0.200 C  
HETATM    6  O   UNL     1      -6.808  17.965  69.539  1.00  0.00    -0.180 OA 
HETATM    7  C   UNL     1      -6.181  21.030  66.806  1.00  0.00    -0.360 A  
HETATM    8  C   UNL     1      -6.875  19.247  69.950  1.00  0.00    -0.002 C  
HETATM    9 CL   UNL     1      -6.127  19.249  63.237  1.00  0.00     0.303 Cl 
HETATM   10  C   UNL     1      -6.043  20.803  65.438  1.00  0.00    -0.282 A  
HETATM   11  N   UNL     1      -6.681  20.209  69.006  1.00  0.00    -0.284 N  
HETATM   12  O   UNL     1      -7.027  19.542  71.129  1.00  0.00     0.729 OA 
HETATM   13  C   UNL     1      -6.273  19.529  64.928  1.00  0.00    -0.279 A  
HETATM   14  C   UNL     1      -6.513  19.972  67.654  1.00  0.00    -0.224 A  
HETATM   15  H   UNL     1      -6.658  21.179  69.321  1.00  0.00     0.000 HD 
HETATM   16  C   UNL     1      -6.616  18.476  65.778  1.00  0.00    -0.312 A  
HETATM   17  C   UNL     1      -6.702  18.680  67.169  1.00  0.00    -0.206 A  
ENDROOT
BRANCH   5  18
HETATM   18  C   UNL     1      -8.466  17.218  68.070  1.00  0.00    -0.229 C  
HETATM   19  C   UNL     1      -9.623  16.914  67.932  1.00  0.00    -0.244 C  
BRANCH  19  20
HETATM   20  C   UNL     1     -10.988  16.542  67.725  1.00  0.00    -0.252 C  
HETATM   21  C   UNL     1     -11.302  15.110  67.368  1.00  0.00    -0.309 C  
HETATM   22  C   UNL     1     -11.659  15.634  68.729  1.00  0.00    -0.393 C  
ENDBRANCH  19  20
ENDBRANCH   5  18
TORSDOF 2
ENDMDL
MODEL      136
REMARK 921   NORMALIZED FREE ENERGY PREDICTED BY IDOCK:   -2.93 KCAL/MOL
REMARK 922        TOTAL FREE ENERGY PREDICTED BY IDOCK:   -3.72 KCAL/MOL
REMARK 923 INTER-LIGAND FREE ENERGY PREDICTED BY IDOCK:   -3.27 KCAL/MOL
REMARK 924 INTRA-LIGAND FREE ENERGY PREDICTED BY IDOCK:   -0.45 KCAL/MOL
REMARK 927      BINDING AFFINITY PREDICTED BY RF-SCORE:    0.00 PKD
ROOT
HETATM    1  F   UNL     1      -9.870   3.785  68.824  1.00  0.00    -0.228 F  
HETATM    2  C   UNL     1      -9.894   5.086  68.432  1.00  0.00    -0.147 C  
HETATM    3  F   UNL     1     -11.174   5.511  68.591  1.00  0.00    -0.220 F  
HETATM    4  F   UNL     1      -9.666   5.070  67.094  1.00  0.00    -0.131 F  
HETATM    5  C   UNL     1      -8.858   5.966  69.222  1.00  0.00    -0.118 C  
HETATM    6  O   UNL     1      -8.094   5.052  70.058  1.00  0.00    -0.073 OA 
HETATM    7  C   UNL     1      -5.730   7.480  67.654  1.00  0.00    -0.035 A  
HETATM    8  C   UNL     1      -6.807   5.270  70.393  1.00  0.00    -0.048 C  
HETATM    9 CL   UNL     1      -8.258   9.171  65.073  1.00  0.00    -0.140 Cl 
HETATM   10  C   UNL     1      -6.242   8.206  66.581  1.00  0.00    -0.054 A  
HETATM   11  N   UNL     1      -6.087   6.090  69.579  1.00  0.00    -0.027 N  
HETATM   12  O   UNL     1      -6.280   4.700  71.341  1.00  0.00    -0.017 OA 
HETATM   13  C   UNL     1      -7.619   8.257  66.383  1.00  0.00    -0.091 A  
HETATM   14  C   UNL     1      -6.598   6.782  68.497  1.00  0.00    -0.058 A  
HETATM   15  H   UNL     1      -5.094   6.202  69.784  1.00  0.00     0.000 HD 
HETATM   16  C   UNL     1      -8.484   7.566  67.234  1.00  0.00    -0.118 A  
HETATM   17  C   UNL     1      -7.975   6.782  68.287  1.00  0.00    -0.111 A  
ENDROOT
BRANCH   5  18
HETATM   18  C   UNL     1      -9.558   6.872  70.171  1.00  0.00    -0.162 C  
HETATM   19  C   UNL     1     -10.065   7.604  70.982  1.00  0.00    -0.196 C  
BRANCH  19  20
HETATM   20  C   UNL     1     -10.631   8.469  71.969  1.00  0.00    -0.408 C  
HETATM   21  C   UNL     1     -11.461   9.644  71.514  1.00  0.00    -0.439 C  
HETATM   22  C   UNL     1     -12.127   8.470  72.170  1.00  0.00    -0.449 C  
ENDBRANCH  19  20
ENDBRANCH   5  18
TORSDOF 2
ENDMDL
MODEL      137
REMARK 921   NORMALIZED FREE ENERGY PREDICTED BY IDOCK:   -2.88 KCAL/MOL
REMARK 922        TOTAL FREE ENERGY PREDICTED BY IDOCK:   -3.67 KCAL/MOL
REMARK 923 INTER-LIGAND FREE ENERGY PREDICTED BY IDOCK:   -3.23 KCAL/MOL
REMARK 924 INTRA-LIGAND FREE ENERGY PREDICTED BY IDOCK:   -0.44 KCAL/MOL
REMARK 927      BINDING AFFINITY PREDICTED BY RF-SCORE:    0.00 PKD
ROOT
HETATM    1  F   UNL     1     -12.184   7.039  70.459  1.00  0.00    -0.364 F  
HETATM    2  C   UNL     1     -11.094   7.811  70.708  1.00  0.00    -0.257 C  
HETATM    3  F   UNL     1     -11.254   8.309  71.961  1.00  0.00    -0.295 F  
HETATM    4  F   UNL     1     -11.197   8.872  69.866  1.00  0.00    -0.244 F  
HETATM    5  C   UNL     1      -9.748   7.017  70.536  1.00  0.00    -0.176 C  
HETATM    6  O   UNL     1     -10.107   5.703  70.027  1.00  0.00    -0.192 OA 
HETATM    7  C   UNL     1      -7.255   7.653  67.722  1.00  0.00    -0.087 A  
HETATM    8  C   UNL     1      -9.305   4.987  69.216  1.00  0.00    -0.125 C  
HETATM    9 CL   UNL     1      -7.222  11.410  69.063  1.00  0.00    -0.117 Cl 
HETATM   10  C   UNL     1      -6.985   9.014  67.850  1.00  0.00    -0.078 A  
HETATM   11  N   UNL     1      -8.375   5.677  68.500  1.00  0.00    -0.106 N  
HETATM   12  O   UNL     1      -9.446   3.779  69.066  1.00  0.00    -0.162 OA 
HETATM   13  C   UNL     1      -7.571   9.735  68.887  1.00  0.00    -0.081 A  
HETATM   14  C   UNL     1      -8.136   7.035  68.611  1.00  0.00    -0.121 A  
HETATM   15  H   UNL     1      -7.812   5.153  67.830  1.00  0.00     0.000 HD 
HETATM   16  C   UNL     1      -8.443   9.110  69.780  1.00  0.00    -0.140 A  
HETATM   17  C   UNL     1      -8.768   7.749  69.627  1.00  0.00    -0.135 A  
ENDROOT
BRANCH   5  18
HETATM   18  C   UNL     1      -9.116   6.767  71.858  1.00  0.00    -0.142 C  
HETATM   19  C   UNL     1      -8.664   6.529  72.948  1.00  0.00    -0.126 C  
BRANCH  19  20
HETATM   20  C   UNL     1      -8.166   6.226  74.254  1.00  0.00    -0.116 C  
HETATM   21  C   UNL     1      -7.383   4.952  74.454  1.00  0.00    -0.085 C  
HETATM   22  C   UNL     1      -6.677   6.276  74.499  1.00  0.00    -0.082 C  
ENDBRANCH  19  20
ENDBRANCH   5  18
TORSDOF 2
ENDMDL
MODEL      138
REMARK 921   NORMALIZED FREE ENERGY PREDICTED BY IDOCK:   -2.80 KCAL/MOL
REMARK 922        TOTAL FREE ENERGY PREDICTED BY IDOCK:   -3.57 KCAL/MOL
REMARK 923 INTER-LIGAND FREE ENERGY PREDICTED BY IDOCK:   -3.12 KCAL/MOL
REMARK 924 INTRA-LIGAND FREE ENERGY PREDICTED BY IDOCK:   -0.45 KCAL/MOL
REMARK 927      BINDING AFFINITY PREDICTED BY RF-SCORE:    0.00 PKD
ROOT
HETATM    1  F   UNL     1      -8.626  14.753  68.788  1.00  0.00    -0.149 F  
HETATM    2  C   UNL     1      -8.369  13.724  67.937  1.00  0.00    -0.172 C  
HETATM    3  F   UNL     1      -7.106  13.309  68.207  1.00  0.00    -0.077 F  
HETATM    4  F   UNL     1      -8.327  14.276  66.697  1.00  0.00    -0.184 F  
HETATM    5  C   UNL     1      -9.429  12.569  68.061  1.00  0.00    -0.209 C  
HETATM    6  O   UNL     1     -10.447  13.042  68.986  1.00  0.00    -0.135 OA 
HETATM    7  C   UNL     1     -11.980  11.733  65.354  1.00  0.00     0.100 A  
HETATM    8  C   UNL     1     -11.740  12.671  68.904  1.00  0.00    -0.325 C  
HETATM    9 CL   UNL     1      -8.806  11.310  62.975  1.00  0.00    -0.168 Cl 
HETATM   10  C   UNL     1     -11.182  11.520  64.232  1.00  0.00    -0.358 A  
HETATM   11  N   UNL     1     -12.181  12.231  67.694  1.00  0.00     0.078 N  
HETATM   12  O   UNL     1     -12.509  12.790  69.850  1.00  0.00    -0.113 OA 
HETATM   13  C   UNL     1      -9.797  11.594  64.351  1.00  0.00    -0.223 A  
HETATM   14  C   UNL     1     -11.386  12.053  66.576  1.00  0.00    -0.354 A  
HETATM   15  H   UNL     1     -13.174  12.016  67.605  1.00  0.00     0.000 HD 
HETATM   16  C   UNL     1      -9.207  11.905  65.579  1.00  0.00    -0.016 A  
HETATM   17  C   UNL     1     -10.005  12.178  66.706  1.00  0.00    -0.218 A  
ENDROOT
BRANCH   5  18
HETATM   18  C   UNL     1      -8.829  11.377  68.715  1.00  0.00    -0.076 C  
HETATM   19  C   UNL     1      -8.303  10.401  69.186  1.00  0.00    -0.160 C  
BRANCH  19  20
HETATM   20  C   UNL     1      -7.656   9.238  69.707  1.00  0.00    -0.082 C  
HETATM   21  C   UNL     1      -8.267   8.539  70.896  1.00  0.00    -0.150 C  
HETATM   22  C   UNL     1      -8.323   7.894  69.542  1.00  0.00    -0.131 C  
ENDBRANCH  19  20
ENDBRANCH   5  18
TORSDOF 2
ENDMDL
MODEL      139
REMARK 921   NORMALIZED FREE ENERGY PREDICTED BY IDOCK:   -2.77 KCAL/MOL
REMARK 922        TOTAL FREE ENERGY PREDICTED BY IDOCK:   -3.54 KCAL/MOL
REMARK 923 INTER-LIGAND FREE ENERGY PREDICTED BY IDOCK:   -3.11 KCAL/MOL
REMARK 924 INTRA-LIGAND FREE ENERGY PREDICTED BY IDOCK:   -0.43 KCAL/MOL
REMARK 927      BINDING AFFINITY PREDICTED BY RF-SCORE:    0.00 PKD
ROOT
HETATM    1  F   UNL     1      -6.563   9.386  68.402  1.00  0.00    -0.052 F  
HETATM    2  C   UNL     1      -6.583   8.069  68.070  1.00  0.00    -0.057 C  
HETATM    3  F   UNL     1      -6.481   7.378  69.235  1.00  0.00    -0.033 F  
HETATM    4  F   UNL     1      -5.426   7.842  67.396  1.00  0.00    -0.030 F  
HETATM    5  C   UNL     1      -7.863   7.681  67.243  1.00  0.00    -0.117 C  
HETATM    6  O   UNL     1      -8.575   8.922  66.981  1.00  0.00    -0.115 OA 
HETATM    7  C   UNL     1      -7.791   6.703  63.559  1.00  0.00    -0.109 A  
HETATM    8  C   UNL     1      -9.318   9.120  65.875  1.00  0.00    -0.243 C  
HETATM    9 CL   UNL     1      -5.206   3.890  64.710  1.00  0.00    -0.009 Cl 
HETATM   10  C   UNL     1      -6.880   5.649  63.537  1.00  0.00    -0.040 A  
HETATM   11  N   UNL     1      -9.029   8.350  64.791  1.00  0.00    -0.396 N  
HETATM   12  O   UNL     1     -10.166  10.002  65.814  1.00  0.00    -0.265 OA 
HETATM   13  C   UNL     1      -6.314   5.206  64.729  1.00  0.00    -0.034 A  
HETATM   14  C   UNL     1      -8.100   7.326  64.769  1.00  0.00    -0.097 A  
HETATM   15  H   UNL     1      -9.537   8.543  63.927  1.00  0.00     0.000 HD 
HETATM   16  C   UNL     1      -6.634   5.826  65.939  1.00  0.00    -0.044 A  
HETATM   17  C   UNL     1      -7.509   6.929  65.966  1.00  0.00    -0.080 A  
ENDROOT
BRANCH   5  18
HETATM   18  C   UNL     1      -8.791   6.863  68.068  1.00  0.00    -0.123 C  
HETATM   19  C   UNL     1      -9.584   6.259  68.742  1.00  0.00    -0.128 C  
BRANCH  19  20
HETATM   20  C   UNL     1     -10.550   5.579  69.547  1.00  0.00    -0.366 C  
HETATM   21  C   UNL     1     -10.537   5.803  71.039  1.00  0.00    -0.318 C  
HETATM   22  C   UNL     1     -11.645   6.381  70.209  1.00  0.00    -0.451 C  
ENDBRANCH  19  20
ENDBRANCH   5  18
TORSDOF 2
ENDMDL
MODEL      140
REMARK 921   NORMALIZED FREE ENERGY PREDICTED BY IDOCK:   -2.75 KCAL/MOL
REMARK 922        TOTAL FREE ENERGY PREDICTED BY IDOCK:   -3.52 KCAL/MOL
REMARK 923 INTER-LIGAND FREE ENERGY PREDICTED BY IDOCK:   -3.07 KCAL/MOL
REMARK 924 INTRA-LIGAND FREE ENERGY PREDICTED BY IDOCK:   -0.45 KCAL/MOL
REMARK 927      BINDING AFFINITY PREDICTED BY RF-SCORE:    0.00 PKD
ROOT
HETATM    1  F   UNL     1     -11.580   6.762  67.183  1.00  0.00    -0.399 F  
HETATM    2  C   UNL     1     -10.326   7.286  67.198  1.00  0.00    -0.297 C  
HETATM    3  F   UNL     1     -10.061   7.612  68.489  1.00  0.00    -0.167 F  
HETATM    4  F   UNL     1     -10.412   8.462  66.524  1.00  0.00    -0.362 F  
HETATM    5  C   UNL     1      -9.261   6.304  66.588  1.00  0.00    -0.146 C  
HETATM    6  O   UNL     1     -10.002   5.163  66.071  1.00  0.00    -0.173 OA 
HETATM    7  C   UNL     1      -7.474   6.907  63.274  1.00  0.00    -0.087 A  
HETATM    8  C   UNL     1      -9.594   4.447  65.005  1.00  0.00    -0.170 C  
HETATM    9 CL   UNL     1      -6.326  10.357  64.915  1.00  0.00    -0.116 Cl 
HETATM   10  C   UNL     1      -6.903   8.165  63.455  1.00  0.00    -0.076 A  
HETATM   11  N   UNL     1      -8.751   5.064  64.133  1.00  0.00    -0.236 N  
HETATM   12  O   UNL     1     -10.017   3.319  64.782  1.00  0.00    -0.136 OA 
HETATM   13  C   UNL     1      -7.048   8.814  64.678  1.00  0.00    -0.088 A  
HETATM   14  C   UNL     1      -8.214   6.326  64.306  1.00  0.00    -0.021 A  
HETATM   15  H   UNL     1      -8.494   4.555  63.287  1.00  0.00     0.000 HD 
HETATM   16  C   UNL     1      -7.780   8.225  65.711  1.00  0.00    -0.091 A  
HETATM   17  C   UNL     1      -8.409   6.980  65.520  1.00  0.00    -0.135 A  
ENDROOT
BRANCH   5  18
HETATM   18  C   UNL     1      -8.386   5.752  67.655  1.00  0.00    -0.104 C  
HETATM   19  C   UNL     1      -7.708   5.351  68.565  1.00  0.00    -0.084 C  
BRANCH  19  20
HETATM   20  C   UNL     1      -6.922   4.906  69.673  1.00  0.00    -0.053 C  
HETATM   21  C   UNL     1      -6.681   5.856  70.820  1.00  0.00    -0.053 C  
HETATM   22  C   UNL     1      -7.596   4.681  71.005  1.00  0.00    -0.072 C  
ENDBRANCH  19  20
ENDBRANCH   5  18
TORSDOF 2
ENDMDL
MODEL      141
REMARK 921   NORMALIZED FREE ENERGY PREDICTED BY IDOCK:   -2.73 KCAL/MOL
REMARK 922        TOTAL FREE ENERGY PREDICTED BY IDOCK:   -3.50 KCAL/MOL
REMARK 923 INTER-LIGAND FREE ENERGY PREDICTED BY IDOCK:   -3.05 KCAL/MOL
REMARK 924 INTRA-LIGAND FREE ENERGY PREDICTED BY IDOCK:   -0.45 KCAL/MOL
REMARK 927      BINDING AFFINITY PREDICTED BY RF-SCORE:    0.00 PKD
ROOT
HETATM    1  F   UNL     1     -12.343  13.338  69.536  1.00  0.00    -0.321 F  
HETATM    2  C   UNL     1     -11.479  13.313  68.487  1.00  0.00    -0.312 C  
HETATM    3  F   UNL     1     -11.041  14.587  68.321  1.00  0.00    -0.236 F  
HETATM    4  F   UNL     1     -12.236  13.030  67.395  1.00  0.00    -0.391 F  
HETATM    5  C   UNL     1     -10.306  12.289  68.704  1.00  0.00    -0.188 C  
HETATM    6  O   UNL     1     -10.599  11.583  69.942  1.00  0.00     0.167 OA 
HETATM    7  C   UNL     1      -9.911   9.062  66.713  1.00  0.00    -0.332 A  
HETATM    8  C   UNL     1     -10.229  10.307  70.162  1.00  0.00    -0.093 C  
HETATM    9 CL   UNL     1      -9.946  11.438  63.509  1.00  0.00    -0.376 Cl 
HETATM   10  C   UNL     1      -9.905   9.511  65.394  1.00  0.00    -0.248 A  
HETATM   11  N   UNL     1      -9.998   9.533  69.066  1.00  0.00    -0.174 N  
HETATM   12  O   UNL     1     -10.174   9.833  71.290  1.00  0.00    -0.153 OA 
HETATM   13  C   UNL     1      -9.977  10.877  65.134  1.00  0.00    -0.284 A  
HETATM   14  C   UNL     1     -10.025   9.981  67.758  1.00  0.00    -0.170 A  
HETATM   15  H   UNL     1      -9.788   8.547  69.221  1.00  0.00     0.000 HD 
HETATM   16  C   UNL     1     -10.080  11.793  66.183  1.00  0.00    -0.255 A  
HETATM   17  C   UNL     1     -10.145  11.347  67.517  1.00  0.00    -0.205 A  
ENDROOT
BRANCH   5  18
HETATM   18  C   UNL     1      -9.027  13.005  68.955  1.00  0.00     0.315 C  
HETATM   19  C   UNL     1      -7.991  13.556  69.225  1.00  0.00     0.471 C  
BRANCH  19  20
HETATM   20  C   UNL     1      -6.764  14.194  69.587  1.00  0.00    -0.092 C  
HETATM   21  C   UNL     1      -5.469  13.450  69.371  1.00  0.00    -0.079 C  
HETATM   22  C   UNL     1      -5.811  14.620  68.495  1.00  0.00    -0.098 C  
ENDBRANCH  19  20
ENDBRANCH   5  18
TORSDOF 2
ENDMDL
MODEL      142
REMARK 921   NORMALIZED FREE ENERGY PREDICTED BY IDOCK:   -2.73 KCAL/MOL
REMARK 922        TOTAL FREE ENERGY PREDICTED BY IDOCK:   -3.49 KCAL/MOL
REMARK 923 INTER-LIGAND FREE ENERGY PREDICTED BY IDOCK:   -3.07 KCAL/MOL
REMARK 924 INTRA-LIGAND FREE ENERGY PREDICTED BY IDOCK:   -0.43 KCAL/MOL
REMARK 927      BINDING AFFINITY PREDICTED BY RF-SCORE:    0.00 PKD
ROOT
HETATM    1  F   UNL     1      -6.421   8.652  69.114  1.00  0.00    -0.041 F  
HETATM    2  C   UNL     1      -7.507   8.040  68.573  1.00  0.00    -0.102 C  
HETATM    3  F   UNL     1      -8.509   8.163  69.481  1.00  0.00    -0.119 F  
HETATM    4  F   UNL     1      -7.199   6.718  68.530  1.00  0.00    -0.074 F  
HETATM    5  C   UNL     1      -7.885   8.630  67.166  1.00  0.00    -0.097 C  
HETATM    6  O   UNL     1      -6.843   9.587  66.827  1.00  0.00    -0.078 OA 
HETATM    7  C   UNL     1      -7.487   6.722  63.889  1.00  0.00    -0.094 A  
HETATM    8  C   UNL     1      -6.463   9.837  65.559  1.00  0.00    -0.084 C  
HETATM    9 CL   UNL     1      -9.805   3.968  65.609  1.00  0.00    -0.191 Cl 
HETATM   10  C   UNL     1      -8.214   5.556  64.121  1.00  0.00    -0.120 A  
HETATM   11  N   UNL     1      -6.718   8.870  64.636  1.00  0.00    -0.073 N  
HETATM   12  O   UNL     1      -5.848  10.853  65.255  1.00  0.00    -0.101 OA 
HETATM   13  C   UNL     1      -8.888   5.396  65.328  1.00  0.00    -0.130 A  
HETATM   14  C   UNL     1      -7.413   7.700  64.882  1.00  0.00    -0.092 A  
HETATM   15  H   UNL     1      -6.369   9.020  63.689  1.00  0.00     0.000 HD 
HETATM   16  C   UNL     1      -8.819   6.382  66.314  1.00  0.00    -0.152 A  
HETATM   17  C   UNL     1      -8.042   7.539  66.114  1.00  0.00    -0.116 A  
ENDROOT
BRANCH   5  18
HETATM   18  C   UNL     1      -9.137   9.428  67.252  1.00  0.00    -0.150 C  
HETATM   19  C   UNL     1     -10.109  10.134  67.328  1.00  0.00    -0.254 C  
BRANCH  19  20
HETATM   20  C   UNL     1     -11.237  11.007  67.422  1.00  0.00    -0.355 C  
HETATM   21  C   UNL     1     -11.429  11.809  68.686  1.00  0.00    -0.346 C  
HETATM   22  C   UNL     1     -11.008  12.500  67.422  1.00  0.00    -0.297 C  
ENDBRANCH  19  20
ENDBRANCH   5  18
TORSDOF 2
ENDMDL
MODEL      143
REMARK 921   NORMALIZED FREE ENERGY PREDICTED BY IDOCK:   -2.68 KCAL/MOL
REMARK 922        TOTAL FREE ENERGY PREDICTED BY IDOCK:   -3.44 KCAL/MOL
REMARK 923 INTER-LIGAND FREE ENERGY PREDICTED BY IDOCK:   -2.98 KCAL/MOL
REMARK 924 INTRA-LIGAND FREE ENERGY PREDICTED BY IDOCK:   -0.46 KCAL/MOL
REMARK 927      BINDING AFFINITY PREDICTED BY RF-SCORE:    0.00 PKD
ROOT
HETATM    1  F   UNL     1      -6.471   9.592  67.917  1.00  0.00    -0.058 F  
HETATM    2  C   UNL     1      -6.594   8.389  68.536  1.00  0.00    -0.059 C  
HETATM    3  F   UNL     1      -5.835   8.455  69.659  1.00  0.00    -0.029 F  
HETATM    4  F   UNL     1      -5.981   7.493  67.720  1.00  0.00    -0.033 F  
HETATM    5  C   UNL     1      -8.093   8.022  68.836  1.00  0.00    -0.124 C  
HETATM    6  O   UNL     1      -8.903   9.064  68.222  1.00  0.00    -0.133 OA 
HETATM    7  C   UNL     1      -9.986   5.223  67.069  1.00  0.00    -0.214 A  
HETATM    8  C   UNL     1     -10.138   8.839  67.734  1.00  0.00    -0.207 C  
HETATM    9 CL   UNL     1      -7.037   2.873  68.371  1.00  0.00    -0.048 Cl 
HETATM   10  C   UNL     1      -9.176   4.112  67.294  1.00  0.00    -0.178 A  
HETATM   11  N   UNL     1     -10.444   7.557  67.392  1.00  0.00    -0.273 N  
HETATM   12  O   UNL     1     -10.931   9.751  67.534  1.00  0.00    -0.275 OA 
HETATM   13  C   UNL     1      -8.027   4.246  68.070  1.00  0.00    -0.086 A  
HETATM   14  C   UNL     1      -9.620   6.465  67.591  1.00  0.00    -0.122 A  
HETATM   15  H   UNL     1     -11.350   7.390  66.955  1.00  0.00     0.000 HD 
HETATM   16  C   UNL     1      -7.671   5.488  68.599  1.00  0.00    -0.088 A  
HETATM   17  C   UNL     1      -8.451   6.629  68.330  1.00  0.00    -0.120 A  
ENDROOT
BRANCH   5  18
HETATM   18  C   UNL     1      -8.374   8.115  70.293  1.00  0.00    -0.124 C  
HETATM   19  C   UNL     1      -8.543   8.149  71.484  1.00  0.00    -0.174 C  
BRANCH  19  20
HETATM   20  C   UNL     1      -8.708   8.162  72.904  1.00  0.00    -0.290 C  
HETATM   21  C   UNL     1      -8.566   6.865  73.662  1.00  0.00    -0.156 C  
HETATM   22  C   UNL     1      -7.504   7.918  73.783  1.00  0.00    -0.186 C  
ENDBRANCH  19  20
ENDBRANCH   5  18
TORSDOF 2
ENDMDL
MODEL      144
REMARK 921   NORMALIZED FREE ENERGY PREDICTED BY IDOCK:   -2.62 KCAL/MOL
REMARK 922        TOTAL FREE ENERGY PREDICTED BY IDOCK:   -3.38 KCAL/MOL
REMARK 923 INTER-LIGAND FREE ENERGY PREDICTED BY IDOCK:   -2.92 KCAL/MOL
REMARK 924 INTRA-LIGAND FREE ENERGY PREDICTED BY IDOCK:   -0.46 KCAL/MOL
REMARK 927      BINDING AFFINITY PREDICTED BY RF-SCORE:    0.00 PKD
ROOT
HETATM    1  F   UNL     1      -7.082   6.932  66.470  1.00  0.00    -0.060 F  
HETATM    2  C   UNL     1      -7.022   5.619  66.125  1.00  0.00    -0.060 C  
HETATM    3  F   UNL     1      -5.944   5.102  66.768  1.00  0.00    -0.019 F  
HETATM    4  F   UNL     1      -6.716   5.601  64.802  1.00  0.00    -0.041 F  
HETATM    5  C   UNL     1      -8.354   4.853  66.459  1.00  0.00    -0.107 C  
HETATM    6  O   UNL     1      -9.298   5.855  66.929  1.00  0.00    -0.123 OA 
HETATM    7  C   UNL     1     -10.759   3.528  63.813  1.00  0.00    -0.263 A  
HETATM    8  C   UNL     1     -10.628   5.751  66.743  1.00  0.00    -0.306 C  
HETATM    9 CL   UNL     1      -7.589   1.547  62.418  1.00  0.00    -0.036 Cl 
HETATM   10  C   UNL     1      -9.938   2.723  63.025  1.00  0.00    -0.103 A  
HETATM   11  N   UNL     1     -11.049   4.959  65.719  1.00  0.00    -0.885 N  
HETATM   12  O   UNL     1     -11.428   6.396  67.411  1.00  0.00    -0.157 OA 
HETATM   13  C   UNL     1      -8.600   2.558  63.374  1.00  0.00    -0.085 A  
HETATM   14  C   UNL     1     -10.224   4.188  64.921  1.00  0.00    -0.204 A  
HETATM   15  H   UNL     1     -12.050   4.932  65.525  1.00  0.00     0.000 HD 
HETATM   16  C   UNL     1      -8.072   3.211  64.489  1.00  0.00    -0.082 A  
HETATM   17  C   UNL     1      -8.878   4.072  65.259  1.00  0.00    -0.127 A  
ENDROOT
BRANCH   5  18
HETATM   18  C   UNL     1      -8.154   3.932  67.609  1.00  0.00    -0.090 C  
HETATM   19  C   UNL     1      -7.976   3.134  68.493  1.00  0.00    -0.063 C  
BRANCH  19  20
HETATM   20  C   UNL     1      -7.757   2.156  69.512  1.00  0.00    -0.046 C  
HETATM   21  C   UNL     1      -6.366   1.604  69.700  1.00  0.00    -0.025 C  
HETATM   22  C   UNL     1      -6.944   2.534  70.727  1.00  0.00    -0.033 C  
ENDBRANCH  19  20
ENDBRANCH   5  18
TORSDOF 2
ENDMDL
MODEL      145
REMARK 921   NORMALIZED FREE ENERGY PREDICTED BY IDOCK:   -2.56 KCAL/MOL
REMARK 922        TOTAL FREE ENERGY PREDICTED BY IDOCK:   -3.31 KCAL/MOL
REMARK 923 INTER-LIGAND FREE ENERGY PREDICTED BY IDOCK:   -2.87 KCAL/MOL
REMARK 924 INTRA-LIGAND FREE ENERGY PREDICTED BY IDOCK:   -0.44 KCAL/MOL
REMARK 927      BINDING AFFINITY PREDICTED BY RF-SCORE:    0.00 PKD
ROOT
HETATM    1  F   UNL     1      -6.743  11.845  70.504  1.00  0.00     0.090 F  
HETATM    2  C   UNL     1      -7.179  11.960  69.223  1.00  0.00     0.039 C  
HETATM    3  F   UNL     1      -6.119  11.664  68.428  1.00  0.00    -0.049 F  
HETATM    4  F   UNL     1      -7.429  13.282  69.038  1.00  0.00    -0.107 F  
HETATM    5  C   UNL     1      -8.429  11.052  68.934  1.00  0.00    -0.122 C  
HETATM    6  O   UNL     1      -8.808  10.455  70.205  1.00  0.00     0.251 OA 
HETATM    7  C   UNL     1     -11.935  12.409  68.293  1.00  0.00    -0.270 A  
HETATM    8  C   UNL     1     -10.080  10.138  70.516  1.00  0.00     0.113 C  
HETATM    9 CL   UNL     1     -10.222  14.479  65.344  1.00  0.00    -0.389 Cl 
HETATM   10  C   UNL     1     -11.736  13.288  67.229  1.00  0.00    -0.424 A  
HETATM   11  N   UNL     1     -11.062  10.796  69.843  1.00  0.00    -0.337 N  
HETATM   12  O   UNL     1     -10.350   9.350  71.414  1.00  0.00    -0.324 OA 
HETATM   13  C   UNL     1     -10.467  13.413  66.671  1.00  0.00    -0.280 A  
HETATM   14  C   UNL     1     -10.854  11.692  68.809  1.00  0.00    -0.220 A  
HETATM   15  H   UNL     1     -12.027  10.616  70.122  1.00  0.00     0.000 HD 
HETATM   16  C   UNL     1      -9.391  12.685  67.184  1.00  0.00    -0.210 A  
HETATM   17  C   UNL     1      -9.568  11.838  68.295  1.00  0.00    -0.199 A  
ENDROOT
BRANCH   5  18
HETATM   18  C   UNL     1      -8.055   9.909  68.060  1.00  0.00    -0.108 C  
HETATM   19  C   UNL     1      -7.822   8.969  67.344  1.00  0.00    -0.100 C  
BRANCH  19  20
HETATM   20  C   UNL     1      -7.590   7.847  66.490  1.00  0.00    -0.092 C  
HETATM   21  C   UNL     1      -6.248   7.159  66.545  1.00  0.00    -0.039 C  
HETATM   22  C   UNL     1      -7.460   6.474  67.106  1.00  0.00    -0.088 C  
ENDBRANCH  19  20
ENDBRANCH   5  18
TORSDOF 2
ENDMDL
MODEL      146
REMARK 921   NORMALIZED FREE ENERGY PREDICTED BY IDOCK:   -2.19 KCAL/MOL
REMARK 922        TOTAL FREE ENERGY PREDICTED BY IDOCK:   -2.89 KCAL/MOL
REMARK 923 INTER-LIGAND FREE ENERGY PREDICTED BY IDOCK:   -2.44 KCAL/MOL
REMARK 924 INTRA-LIGAND FREE ENERGY PREDICTED BY IDOCK:   -0.45 KCAL/MOL
REMARK 927      BINDING AFFINITY PREDICTED BY RF-SCORE:    0.00 PKD
ROOT
HETATM    1  F   UNL     1      -8.806  16.745  69.359  1.00  0.00    -0.192 F  
HETATM    2  C   UNL     1      -9.781  15.833  69.103  1.00  0.00    -0.250 C  
HETATM    3  F   UNL     1     -10.876  16.539  68.721  1.00  0.00    -0.271 F  
HETATM    4  F   UNL     1     -10.090  15.281  70.305  1.00  0.00    -0.280 F  
HETATM    5  C   UNL     1      -9.338  14.770  68.033  1.00  0.00    -0.196 C  
HETATM    6  O   UNL     1      -7.937  15.037  67.743  1.00  0.00    -0.123 OA 
HETATM    7  C   UNL     1      -8.687  11.099  68.834  1.00  0.00    -0.086 A  
HETATM    8  C   UNL     1      -7.066  14.072  67.392  1.00  0.00    -0.073 C  
HETATM    9 CL   UNL     1     -12.417  11.102  70.248  1.00  0.00    -0.370 Cl 
HETATM   10  C   UNL     1      -9.880  10.697  69.430  1.00  0.00    -0.164 A  
HETATM   11  N   UNL     1      -7.374  12.798  67.759  1.00  0.00    -0.115 N  
HETATM   12  O   UNL     1      -6.005  14.328  66.834  1.00  0.00     0.388 OA 
HETATM   13  C   UNL     1     -10.934  11.601  69.534  1.00  0.00    -0.098 A  
HETATM   14  C   UNL     1      -8.548  12.412  68.379  1.00  0.00    -0.129 A  
HETATM   15  H   UNL     1      -6.685  12.071  67.561  1.00  0.00     0.000 HD 
HETATM   16  C   UNL     1     -10.794  12.910  69.068  1.00  0.00    -0.188 A  
HETATM   17  C   UNL     1      -9.574  13.344  68.516  1.00  0.00    -0.141 A  
ENDROOT
BRANCH   5  18
HETATM   18  C   UNL     1     -10.053  14.991  66.749  1.00  0.00    -0.257 C  
HETATM   19  C   UNL     1     -10.649  15.236  65.732  1.00  0.00    -0.359 C  
BRANCH  19  20
HETATM   20  C   UNL     1     -11.368  15.567  64.541  1.00  0.00    -0.322 C  
HETATM   21  C   UNL     1     -12.241  14.514  63.905  1.00  0.00    -0.126 C  
HETATM   22  C   UNL     1     -12.872  15.683  64.603  1.00  0.00     0.910 C  
ENDBRANCH  19  20
ENDBRANCH   5  18
TORSDOF 2
ENDMDL
MODEL      147
REMARK 921   NORMALIZED FREE ENERGY PREDICTED BY IDOCK:   -1.84 KCAL/MOL
REMARK 922        TOTAL FREE ENERGY PREDICTED BY IDOCK:   -2.51 KCAL/MOL
REMARK 923 INTER-LIGAND FREE ENERGY PREDICTED BY IDOCK:   -2.05 KCAL/MOL
REMARK 924 INTRA-LIGAND FREE ENERGY PREDICTED BY IDOCK:   -0.46 KCAL/MOL
REMARK 927      BINDING AFFINITY PREDICTED BY RF-SCORE:    0.00 PKD
ROOT
HETATM    1  F   UNL     1      -8.606  19.734  68.542  1.00  0.00    -0.365 F  
HETATM    2  C   UNL     1      -8.348  18.577  69.207  1.00  0.00     0.208 C  
HETATM    3  F   UNL     1      -8.705  18.789  70.499  1.00  0.00     1.759 F  
HETATM    4  F   UNL     1      -6.997  18.446  69.206  1.00  0.00    -0.273 F  
HETATM    5  C   UNL     1      -9.086  17.344  68.567  1.00  0.00    -0.273 C  
HETATM    6  O   UNL     1      -9.727  17.831  67.355  1.00  0.00    -0.272 OA 
HETATM    7  C   UNL     1      -7.297  14.520  66.733  1.00  0.00     0.868 A  
HETATM    8  C   UNL     1      -9.919  17.060  66.268  1.00  0.00    -0.310 C  
HETATM    9 CL   UNL     1      -5.226  14.097  70.116  1.00  0.00    -0.091 Cl 
HETATM   10  C   UNL     1      -6.371  14.077  67.676  1.00  0.00    -0.134 A  
HETATM   11  N   UNL     1      -9.107  15.977  66.127  1.00  0.00    -0.338 N  
HETATM   12  O   UNL     1     -10.735  17.353  65.402  1.00  0.00    -0.595 OA 
HETATM   13  C   UNL     1      -6.351  14.656  68.942  1.00  0.00    -0.088 A  
HETATM   14  C   UNL     1      -8.168  15.563  67.055  1.00  0.00    -0.240 A  
HETATM   15  H   UNL     1      -9.197  15.429  65.271  1.00  0.00     0.000 HD 
HETATM   16  C   UNL     1      -7.232  15.691  69.262  1.00  0.00    -0.198 A  
HETATM   17  C   UNL     1      -8.132  16.186  68.299  1.00  0.00    -0.153 A  
ENDROOT
BRANCH   5  18
HETATM   18  C   UNL     1     -10.198  16.888  69.442  1.00  0.00    -0.208 C  
HETATM   19  C   UNL     1     -11.057  16.461  70.169  1.00  0.00    -0.285 C  
BRANCH  19  20
HETATM   20  C   UNL     1     -12.052  15.918  71.040  1.00  0.00    -0.438 C  
HETATM   21  C   UNL     1     -12.925  14.796  70.534  1.00  0.00    -0.336 C  
HETATM   22  C   UNL     1     -11.875  14.515  71.569  1.00  0.00    -0.283 C  
ENDBRANCH  19  20
ENDBRANCH   5  18
TORSDOF 2
ENDMDL
MODEL      148
REMARK 921   NORMALIZED FREE ENERGY PREDICTED BY IDOCK:   -1.13 KCAL/MOL
REMARK 922        TOTAL FREE ENERGY PREDICTED BY IDOCK:   -1.71 KCAL/MOL
REMARK 923 INTER-LIGAND FREE ENERGY PREDICTED BY IDOCK:   -1.26 KCAL/MOL
REMARK 924 INTRA-LIGAND FREE ENERGY PREDICTED BY IDOCK:   -0.45 KCAL/MOL
REMARK 927      BINDING AFFINITY PREDICTED BY RF-SCORE:    0.00 PKD
ROOT
HETATM    1  F   UNL     1      -8.875   9.338  70.867  1.00  0.00    -0.223 F  
HETATM    2  C   UNL     1      -9.018  10.044  69.715  1.00  0.00    -0.185 C  
HETATM    3  F   UNL     1      -9.215  11.337  70.078  1.00  0.00     0.627 F  
HETATM    4  F   UNL     1     -10.190   9.624  69.170  1.00  0.00    -0.173 F  
HETATM    5  C   UNL     1      -7.792   9.864  68.748  1.00  0.00    -0.091 C  
HETATM    6  O   UNL     1      -6.926   8.868  69.362  1.00  0.00    -0.051 OA 
HETATM    7  C   UNL     1      -7.959   7.978  65.437  1.00  0.00    -0.121 A  
HETATM    8  C   UNL     1      -6.156   8.026  68.646  1.00  0.00    -0.044 C  
HETATM    9 CL   UNL     1     -10.886  10.531  64.526  1.00  0.00     0.134 Cl 
HETATM   10  C   UNL     1      -8.996   8.624  64.766  1.00  0.00     0.057 A  
HETATM   11  N   UNL     1      -6.532   7.788  67.359  1.00  0.00    -0.054 N  
HETATM   12  O   UNL     1      -5.203   7.438  69.143  1.00  0.00    -0.014 OA 
HETATM   13  C   UNL     1      -9.622   9.717  65.360  1.00  0.00    -0.291 A  
HETATM   14  C   UNL     1      -7.583   8.411  66.711  1.00  0.00    -0.090 A  
HETATM   15  H   UNL     1      -5.998   7.096  66.833  1.00  0.00     0.000 HD 
HETATM   16  C   UNL     1      -9.235  10.152  66.630  1.00  0.00    -0.181 A  
HETATM   17  C   UNL     1      -8.228   9.472  67.341  1.00  0.00    -0.114 A  
ENDROOT
BRANCH   5  18
HETATM   18  C   UNL     1      -6.980  11.108  68.694  1.00  0.00    -0.081 C  
HETATM   19  C   UNL     1      -6.356  12.138  68.711  1.00  0.00    -0.076 C  
BRANCH  19  20
HETATM   20  C   UNL     1      -5.638  13.372  68.768  1.00  0.00    -0.074 C  
HETATM   21  C   UNL     1      -6.405  14.664  68.633  1.00  0.00    -0.082 C  
HETATM   22  C   UNL     1      -5.829  14.275  69.963  1.00  0.00    -0.131 C  
ENDBRANCH  19  20
ENDBRANCH   5  18
TORSDOF 2
ENDMDL
MODEL      149
REMARK 921   NORMALIZED FREE ENERGY PREDICTED BY IDOCK:   -0.96 KCAL/MOL
REMARK 922        TOTAL FREE ENERGY PREDICTED BY IDOCK:   -1.52 KCAL/MOL
REMARK 923 INTER-LIGAND FREE ENERGY PREDICTED BY IDOCK:   -1.08 KCAL/MOL
REMARK 924 INTRA-LIGAND FREE ENERGY PREDICTED BY IDOCK:   -0.45 KCAL/MOL
REMARK 927      BINDING AFFINITY PREDICTED BY RF-SCORE:    0.00 PKD
ROOT
HETATM    1  F   UNL     1      -9.736   3.156  69.677  1.00  0.00    -0.234 F  
HETATM    2  C   UNL     1      -9.765   3.871  68.522  1.00  0.00    -0.044 C  
HETATM    3  F   UNL     1     -10.517   4.973  68.771  1.00  0.00    -0.247 F  
HETATM    4  F   UNL     1     -10.478   3.119  67.644  1.00  0.00     0.712 F  
HETATM    5  C   UNL     1      -8.324   4.222  68.001  1.00  0.00    -0.094 C  
HETATM    6  O   UNL     1      -7.390   3.540  68.884  1.00  0.00    -0.049 OA 
HETATM    7  C   UNL     1      -6.778   2.712  64.859  1.00  0.00    -0.039 A  
HETATM    8  C   UNL     1      -6.188   3.091  68.472  1.00  0.00    -0.029 C  
HETATM    9 CL   UNL     1     -10.000   4.151  62.998  1.00  0.00    -0.137 Cl 
HETATM   10  C   UNL     1      -7.719   3.013  63.877  1.00  0.00    -0.076 A  
HETATM   11  N   UNL     1      -6.040   2.856  67.139  1.00  0.00    -0.024 N  
HETATM   12  O   UNL     1      -5.288   2.831  69.262  1.00  0.00    -0.011 OA 
HETATM   13  C   UNL     1      -8.847   3.757  64.212  1.00  0.00    -0.120 A  
HETATM   14  C   UNL     1      -6.992   3.129  66.174  1.00  0.00    -0.057 A  
HETATM   15  H   UNL     1      -5.158   2.448  66.828  1.00  0.00     0.000 HD 
HETATM   16  C   UNL     1      -9.052   4.181  65.527  1.00  0.00    -0.138 A  
HETATM   17  C   UNL     1      -8.136   3.834  66.539  1.00  0.00    -0.096 A  
ENDROOT
BRANCH   5  18
HETATM   18  C   UNL     1      -8.042   5.671  68.176  1.00  0.00    -0.097 C  
HETATM   19  C   UNL     1      -7.745   6.828  68.328  1.00  0.00    -0.106 C  
BRANCH  19  20
HETATM   20  C   UNL     1      -7.349   8.188  68.516  1.00  0.00    -0.093 C  
HETATM   21  C   UNL     1      -5.960   8.475  69.030  1.00  0.00    -0.043 C  
HETATM   22  C   UNL     1      -6.303   8.779  67.601  1.00  0.00    -0.057 C  
ENDBRANCH  19  20
ENDBRANCH   5  18
TORSDOF 2
ENDMDL
MODEL      150
REMARK 921   NORMALIZED FREE ENERGY PREDICTED BY IDOCK:    0.15 KCAL/MOL
REMARK 922        TOTAL FREE ENERGY PREDICTED BY IDOCK:   -0.29 KCAL/MOL
REMARK 923 INTER-LIGAND FREE ENERGY PREDICTED BY IDOCK:    0.18 KCAL/MOL
REMARK 924 INTRA-LIGAND FREE ENERGY PREDICTED BY IDOCK:   -0.47 KCAL/MOL
REMARK 927      BINDING AFFINITY PREDICTED BY RF-SCORE:    0.00 PKD
ROOT
HETATM    1  F   UNL     1     -10.325  14.837  69.910  1.00  0.00    -0.204 F  
HETATM    2  C   UNL     1     -10.066  15.841  69.032  1.00  0.00    -0.225 C  
HETATM    3  F   UNL     1      -9.357  16.776  69.714  1.00  0.00    -0.011 F  
HETATM    4  F   UNL     1     -11.270  16.408  68.758  1.00  0.00    -0.302 F  
HETATM    5  C   UNL     1      -9.320  15.330  67.745  1.00  0.00    -0.196 C  
HETATM    6  O   UNL     1      -9.256  13.881  67.855  1.00  0.00    -0.183 OA 
HETATM    7  C   UNL     1     -10.909  15.205  64.281  1.00  0.00     0.308 A  
HETATM    8  C   UNL     1      -9.265  13.065  66.783  1.00  0.00    -0.228 C  
HETATM    9 CL   UNL     1     -11.564  19.104  64.817  1.00  0.00     2.646 Cl 
HETATM   10  C   UNL     1     -11.334  16.519  64.088  1.00  0.00     0.458 A  
HETATM   11  N   UNL     1      -9.801  13.560  65.634  1.00  0.00    -0.461 N  
HETATM   12  O   UNL     1      -8.880  11.903  66.850  1.00  0.00    -0.185 OA 
HETATM   13  C   UNL     1     -11.063  17.477  65.061  1.00  0.00     0.586 A  
HETATM   14  C   UNL     1     -10.250  14.857  65.461  1.00  0.00    -0.374 A  
HETATM   15  H   UNL     1      -9.878  12.925  64.839  1.00  0.00     0.000 HD 
HETATM   16  C   UNL     1     -10.393  17.125  66.235  1.00  0.00    -0.315 A  
HETATM   17  C   UNL     1     -10.010  15.790  66.467  1.00  0.00    -0.283 A  
ENDROOT
BRANCH   5  18
HETATM   18  C   UNL     1      -7.905  15.787  67.745  1.00  0.00    -0.155 C  
HETATM   19  C   UNL     1      -6.772  16.186  67.680  1.00  0.00    -0.177 C  
BRANCH  19  20
HETATM   20  C   UNL     1      -5.435  16.678  67.562  1.00  0.00    -0.161 C  
HETATM   21  C   UNL     1      -5.130  17.704  66.499  1.00  0.00    -0.201 C  
HETATM   22  C   UNL     1      -5.145  18.110  67.943  1.00  0.00    -0.155 C  
ENDBRANCH  19  20
ENDBRANCH   5  18
TORSDOF 2
ENDMDL
MODEL      151
REMARK 921   NORMALIZED FREE ENERGY PREDICTED BY IDOCK:    2.51 KCAL/MOL
REMARK 922        TOTAL FREE ENERGY PREDICTED BY IDOCK:    2.35 KCAL/MOL
REMARK 923 INTER-LIGAND FREE ENERGY PREDICTED BY IDOCK:    2.80 KCAL/MOL
REMARK 924 INTRA-LIGAND FREE ENERGY PREDICTED BY IDOCK:   -0.45 KCAL/MOL
REMARK 927      BINDING AFFINITY PREDICTED BY RF-SCORE:    0.00 PKD
ROOT
HETATM    1  F   UNL     1     -10.635  19.064  70.945  1.00  0.00     0.765 F  
HETATM    2  C   UNL     1      -9.933  19.319  69.810  1.00  0.00     0.336 C  
HETATM    3  F   UNL     1      -8.792  19.943  70.196  1.00  0.00     0.203 F  
HETATM    4  F   UNL     1     -10.658  20.246  69.132  1.00  0.00    -0.484 F  
HETATM    5  C   UNL     1      -9.662  18.018  68.970  1.00  0.00    -0.198 C  
HETATM    6  O   UNL     1     -10.379  16.941  69.636  1.00  0.00    -0.231 OA 
HETATM    7  C   UNL     1     -11.283  17.293  65.596  1.00  0.00     0.559 A  
HETATM    8  C   UNL     1     -10.893  15.886  68.975  1.00  0.00    -0.266 C  
HETATM    9 CL   UNL     1      -9.706  20.781  64.475  1.00  0.00     1.910 Cl 
HETATM   10  C   UNL     1     -10.947  18.417  64.844  1.00  0.00     1.695 A  
HETATM   11  N   UNL     1     -11.150  16.053  67.648  1.00  0.00    -0.288 N  
HETATM   12  O   UNL     1     -11.189  14.844  69.547  1.00  0.00    -0.252 OA 
HETATM   13  C   UNL     1     -10.143  19.404  65.407  1.00  0.00     0.489 A  
HETATM   14  C   UNL     1     -10.841  17.185  66.916  1.00  0.00    -0.005 A  
HETATM   15  H   UNL     1     -11.606  15.284  67.156  1.00  0.00     0.000 HD 
HETATM   16  C   UNL     1      -9.694  19.286  66.725  1.00  0.00    -0.413 A  
HETATM   17  C   UNL     1     -10.075  18.184  67.513  1.00  0.00    -0.358 A  
ENDROOT
BRANCH   5  18
HETATM   18  C   UNL     1      -8.226  17.637  69.045  1.00  0.00    -0.051 C  
HETATM   19  C   UNL     1      -7.055  17.358  69.041  1.00  0.00    -0.233 C  
BRANCH  19  20
HETATM   20  C   UNL     1      -5.661  17.045  68.994  1.00  0.00    -0.154 C  
HETATM   21  C   UNL     1      -5.140  15.925  69.860  1.00  0.00    -0.120 C  
HETATM   22  C   UNL     1      -5.225  15.740  68.373  1.00  0.00    -0.102 C  
ENDBRANCH  19  20
ENDBRANCH   5  18
TORSDOF 2
ENDMDL
MODEL      152
REMARK 921   NORMALIZED FREE ENERGY PREDICTED BY IDOCK:    2.68 KCAL/MOL
REMARK 922        TOTAL FREE ENERGY PREDICTED BY IDOCK:    2.54 KCAL/MOL
REMARK 923 INTER-LIGAND FREE ENERGY PREDICTED BY IDOCK:    2.98 KCAL/MOL
REMARK 924 INTRA-LIGAND FREE ENERGY PREDICTED BY IDOCK:   -0.44 KCAL/MOL
REMARK 927      BINDING AFFINITY PREDICTED BY RF-SCORE:    0.00 PKD
ROOT
HETATM    1  F   UNL     1     -11.437  17.187  71.323  1.00  0.00    -0.101 F  
HETATM    2  C   UNL     1     -10.615  17.038  70.251  1.00  0.00     0.442 C  
HETATM    3  F   UNL     1      -9.449  17.656  70.572  1.00  0.00     1.771 F  
HETATM    4  F   UNL     1     -11.171  17.776  69.257  1.00  0.00     0.367 F  
HETATM    5  C   UNL     1     -10.414  15.528  69.858  1.00  0.00    -0.313 C  
HETATM    6  O   UNL     1     -11.302  14.758  70.716  1.00  0.00    -0.251 OA 
HETATM    7  C   UNL     1     -11.803  13.965  66.670  1.00  0.00    -0.447 A  
HETATM    8  C   UNL     1     -11.868  13.598  70.331  1.00  0.00    -0.237 C  
HETATM    9 CL   UNL     1      -9.759  16.826  64.786  1.00  0.00     1.778 Cl 
HETATM   10  C   UNL     1     -11.280  14.784  65.671  1.00  0.00    -0.343 A  
HETATM   11  N   UNL     1     -11.988  13.384  68.992  1.00  0.00    -0.327 N  
HETATM   12  O   UNL     1     -12.326  12.800  71.140  1.00  0.00    -0.314 OA 
HETATM   13  C   UNL     1     -10.425  15.827  66.017  1.00  0.00    -0.338 A  
HETATM   14  C   UNL     1     -11.493  14.219  68.007  1.00  0.00    -0.314 A  
HETATM   15  H   UNL     1     -12.480  12.542  68.692  1.00  0.00     0.000 HD 
HETATM   16  C   UNL     1     -10.110  16.071  67.355  1.00  0.00    -0.258 A  
HETATM   17  C   UNL     1     -10.678  15.286  68.377  1.00  0.00    -0.250 A  
ENDROOT
BRANCH   5  18
HETATM   18  C   UNL     1      -9.042  15.075  70.206  1.00  0.00     0.773 C  
HETATM   19  C   UNL     1      -7.916  14.775  70.508  1.00  0.00     1.301 C  
BRANCH  19  20
HETATM   20  C   UNL     1      -6.571  14.462  70.877  1.00  0.00     0.279 C  
HETATM   21  C   UNL     1      -5.917  13.244  70.271  1.00  0.00    -0.134 C  
HETATM   22  C   UNL     1      -5.475  14.615  69.849  1.00  0.00    -0.099 C  
ENDBRANCH  19  20
ENDBRANCH   5  18
TORSDOF 2
ENDMDL
MODEL      153
REMARK 921   NORMALIZED FREE ENERGY PREDICTED BY IDOCK:    2.72 KCAL/MOL
REMARK 922        TOTAL FREE ENERGY PREDICTED BY IDOCK:    2.59 KCAL/MOL
REMARK 923 INTER-LIGAND FREE ENERGY PREDICTED BY IDOCK:    3.05 KCAL/MOL
REMARK 924 INTRA-LIGAND FREE ENERGY PREDICTED BY IDOCK:   -0.46 KCAL/MOL
REMARK 927      BINDING AFFINITY PREDICTED BY RF-SCORE:    0.00 PKD
ROOT
HETATM    1  F   UNL     1      -8.165  17.286  65.307  1.00  0.00     0.375 F  
HETATM    2  C   UNL     1      -7.597  16.728  66.407  1.00  0.00    -0.290 C  
HETATM    3  F   UNL     1      -6.389  17.328  66.562  1.00  0.00    -0.189 F  
HETATM    4  F   UNL     1      -7.336  15.438  66.071  1.00  0.00     0.746 F  
HETATM    5  C   UNL     1      -8.509  16.858  67.681  1.00  0.00    -0.200 C  
HETATM    6  O   UNL     1      -9.763  17.442  67.231  1.00  0.00    -0.256 OA 
HETATM    7  C   UNL     1     -10.245  13.907  69.359  1.00  0.00     0.235 A  
HETATM    8  C   UNL     1     -10.947  17.173  67.815  1.00  0.00    -0.180 C  
HETATM    9 CL   UNL     1      -6.580  12.361  69.655  1.00  0.00    -0.060 Cl 
HETATM   10  C   UNL     1      -9.189  13.037  69.624  1.00  0.00     1.919 A  
HETATM   11  N   UNL     1     -11.040  16.010  68.516  1.00  0.00    -0.329 N  
HETATM   12  O   UNL     1     -11.923  17.898  67.665  1.00  0.00     1.508 OA 
HETATM   13  C   UNL     1      -7.889  13.421  69.308  1.00  0.00     0.450 A  
HETATM   14  C   UNL     1      -9.993  15.137  68.747  1.00  0.00    -0.229 A  
HETATM   15  H   UNL     1     -11.953  15.763  68.900  1.00  0.00     0.000 HD 
HETATM   16  C   UNL     1      -7.641  14.656  68.706  1.00  0.00    -0.138 A  
HETATM   17  C   UNL     1      -8.705  15.519  68.381  1.00  0.00    -0.174 A  
ENDROOT
BRANCH   5  18
HETATM   18  C   UNL     1      -7.938  17.845  68.635  1.00  0.00    -0.285 C  
HETATM   19  C   UNL     1      -7.511  18.611  69.461  1.00  0.00     0.169 C  
BRANCH  19  20
HETATM   20  C   UNL     1      -7.030  19.499  70.472  1.00  0.00     0.441 C  
HETATM   21  C   UNL     1      -5.765  19.139  71.211  1.00  0.00    -0.089 C  
HETATM   22  C   UNL     1      -5.755  20.268  70.223  1.00  0.00    -0.372 C  
ENDBRANCH  19  20
ENDBRANCH   5  18
TORSDOF 2
ENDMDL
MODEL      154
REMARK 921   NORMALIZED FREE ENERGY PREDICTED BY IDOCK:    3.24 KCAL/MOL
REMARK 922        TOTAL FREE ENERGY PREDICTED BY IDOCK:    3.17 KCAL/MOL
REMARK 923 INTER-LIGAND FREE ENERGY PREDICTED BY IDOCK:    3.62 KCAL/MOL
REMARK 924 INTRA-LIGAND FREE ENERGY PREDICTED BY IDOCK:   -0.44 KCAL/MOL
REMARK 927      BINDING AFFINITY PREDICTED BY RF-SCORE:    0.00 PKD
ROOT
HETATM    1  F   UNL     1     -13.019  11.534  67.407  1.00  0.00     1.824 F  
HETATM    2  C   UNL     1     -11.915  11.742  66.643  1.00  0.00     0.252 C  
HETATM    3  F   UNL     1     -12.235  12.728  65.766  1.00  0.00    -0.449 F  
HETATM    4  F   UNL     1     -11.763  10.614  65.902  1.00  0.00     0.397 F  
HETATM    5  C   UNL     1     -10.647  12.085  67.507  1.00  0.00    -0.221 C  
HETATM    6  O   UNL     1     -11.046  11.940  68.899  1.00  0.00    -0.221 OA 
HETATM    7  C   UNL     1      -7.659   9.750  67.906  1.00  0.00    -0.086 A  
HETATM    8  C   UNL     1     -10.193  11.558  69.869  1.00  0.00     0.975 C  
HETATM    9 CL   UNL     1      -7.473   9.864  63.923  1.00  0.00    -0.131 Cl 
HETATM   10  C   UNL     1      -7.278   9.508  66.588  1.00  0.00    -0.086 A  
HETATM   11  N   UNL     1      -9.090  10.860  69.482  1.00  0.00    -0.383 N  
HETATM   12  O   UNL     1     -10.429  11.757  71.055  1.00  0.00     3.486 OA 
HETATM   13  C   UNL     1      -7.955  10.142  65.550  1.00  0.00    -0.146 A  
HETATM   14  C   UNL     1      -8.736  10.597  68.171  1.00  0.00    -0.130 A  
HETATM   15  H   UNL     1      -8.477  10.504  70.216  1.00  0.00     0.000 HD 
HETATM   16  C   UNL     1      -9.026  10.996  65.821  1.00  0.00    -0.208 A  
HETATM   17  C   UNL     1      -9.457  11.204  67.146  1.00  0.00    -0.187 A  
ENDROOT
BRANCH   5  18
HETATM   18  C   UNL     1     -10.278  13.517  67.351  1.00  0.00    -0.237 C  
HETATM   19  C   UNL     1     -10.046  14.693  67.247  1.00  0.00    -0.236 C  
BRANCH  19  20
HETATM   20  C   UNL     1      -9.814  16.099  67.135  1.00  0.00    -0.241 C  
HETATM   21  C   UNL     1      -8.402  16.613  67.267  1.00  0.00    -0.198 C  
HETATM   22  C   UNL     1      -9.077  16.625  65.927  1.00  0.00    -0.155 C  
ENDBRANCH  19  20
ENDBRANCH   5  18
TORSDOF 2
ENDMDL
MODEL      155
REMARK 921   NORMALIZED FREE ENERGY PREDICTED BY IDOCK:    5.55 KCAL/MOL
REMARK 922        TOTAL FREE ENERGY PREDICTED BY IDOCK:    5.75 KCAL/MOL
REMARK 923 INTER-LIGAND FREE ENERGY PREDICTED BY IDOCK:    6.17 KCAL/MOL
REMARK 924 INTRA-LIGAND FREE ENERGY PREDICTED BY IDOCK:   -0.42 KCAL/MOL
REMARK 927      BINDING AFFINITY PREDICTED BY RF-SCORE:    0.00 PKD
ROOT
HETATM    1  F   UNL     1     -13.014  11.509  67.577  1.00  0.00     1.723 F  
HETATM    2  C   UNL     1     -11.721  11.766  67.245  1.00  0.00    -0.217 C  
HETATM    3  F   UNL     1     -11.651  13.095  66.980  1.00  0.00    -0.311 F  
HETATM    4  F   UNL     1     -11.515  11.135  66.061  1.00  0.00    -0.221 F  
HETATM    5  C   UNL     1     -10.715  11.314  68.366  1.00  0.00    -0.203 C  
HETATM    6  O   UNL     1     -11.506  10.630  69.377  1.00  0.00    -0.250 OA 
HETATM    7  C   UNL     1      -8.290   8.396  67.989  1.00  0.00    -0.128 A  
HETATM    8  C   UNL     1     -11.019   9.625  70.131  1.00  0.00    -0.275 C  
HETATM    9 CL   UNL     1      -6.976  10.351  64.770  1.00  0.00    -0.083 Cl 
HETATM   10  C   UNL     1      -7.588   8.726  66.832  1.00  0.00    -0.090 A  
HETATM   11  N   UNL     1      -9.952   8.942  69.635  1.00  0.00    -0.186 N  
HETATM   12  O   UNL     1     -11.552   9.286  71.181  1.00  0.00    -0.279 OA 
HETATM   13  C   UNL     1      -7.857   9.929  66.185  1.00  0.00    -0.110 A  
HETATM   14  C   UNL     1      -9.280   9.257  68.468  1.00  0.00    -0.135 A  
HETATM   15  H   UNL     1      -9.622   8.134  70.164  1.00  0.00     0.000 HD 
HETATM   16  C   UNL     1      -8.840  10.792  66.674  1.00  0.00    -0.151 A  
HETATM   17  C   UNL     1      -9.596  10.443  67.809  1.00  0.00    -0.169 A  
ENDROOT
BRANCH   5  18
HETATM   18  C   UNL     1     -10.136  12.497  69.056  1.00  0.00     0.153 C  
HETATM   19  C   UNL     1      -9.733  13.472  69.637  1.00  0.00     1.249 C  
BRANCH  19  20
HETATM   20  C   UNL     1      -9.297  14.638  70.338  1.00  0.00     1.394 C  
HETATM   21  C   UNL     1     -10.336  15.586  70.884  1.00  0.00     0.334 C  
HETATM   22  C   UNL     1      -9.539  14.732  71.825  1.00  0.00     4.131 C  
ENDBRANCH  19  20
ENDBRANCH   5  18
TORSDOF 2
ENDMDL
MODEL      156
REMARK 921   NORMALIZED FREE ENERGY PREDICTED BY IDOCK:    8.93 KCAL/MOL
REMARK 922        TOTAL FREE ENERGY PREDICTED BY IDOCK:    9.53 KCAL/MOL
REMARK 923 INTER-LIGAND FREE ENERGY PREDICTED BY IDOCK:    9.98 KCAL/MOL
REMARK 924 INTRA-LIGAND FREE ENERGY PREDICTED BY IDOCK:   -0.45 KCAL/MOL
REMARK 927      BINDING AFFINITY PREDICTED BY RF-SCORE:    0.00 PKD
ROOT
HETATM    1  F   UNL     1      -8.860  15.867  70.119  1.00  0.00     0.039 F  
HETATM    2  C   UNL     1      -8.706  15.043  69.049  1.00  0.00    -0.203 C  
HETATM    3  F   UNL     1      -7.381  15.040  68.755  1.00  0.00    -0.104 F  
HETATM    4  F   UNL     1      -9.320  15.669  68.013  1.00  0.00    -0.189 F  
HETATM    5  C   UNL     1      -9.273  13.602  69.320  1.00  0.00     0.665 C  
HETATM    6  O   UNL     1      -9.914  13.650  70.625  1.00  0.00     2.923 OA 
HETATM    7  C   UNL     1     -12.378  12.189  67.616  1.00  0.00     0.679 A  
HETATM    8  C   UNL     1     -10.977  12.887  70.947  1.00  0.00     2.960 C  
HETATM    9 CL   UNL     1     -10.457  12.994  64.214  1.00  0.00    -0.429 Cl 
HETATM   10  C   UNL     1     -12.079  12.331  66.263  1.00  0.00    -0.154 A  
HETATM   11  N   UNL     1     -11.736  12.420  69.918  1.00  0.00    -0.475 N  
HETATM   12  O   UNL     1     -11.297  12.681  72.111  1.00  0.00     4.052 OA 
HETATM   13  C   UNL     1     -10.840  12.840  65.883  1.00  0.00    -0.269 A  
HETATM   14  C   UNL     1     -11.448  12.592  68.577  1.00  0.00    -0.311 A  
HETATM   15  H   UNL     1     -12.583  11.903  70.155  1.00  0.00     0.000 HD 
HETATM   16  C   UNL     1      -9.909  13.232  66.848  1.00  0.00    -0.247 A  
HETATM   17  C   UNL     1     -10.222  13.147  68.218  1.00  0.00    -0.250 A  
ENDROOT
BRANCH   5  18
HETATM   18  C   UNL     1      -8.164  12.622  69.464  1.00  0.00     1.322 C  
HETATM   19  C   UNL     1      -7.282  11.804  69.514  1.00  0.00     0.160 C  
BRANCH  19  20
HETATM   20  C   UNL     1      -6.247  10.819  69.533  1.00  0.00    -0.064 C  
HETATM   21  C   UNL     1      -5.799  10.263  70.863  1.00  0.00    -0.074 C  
HETATM   22  C   UNL     1      -6.593   9.401  69.924  1.00  0.00    -0.055 C  
ENDBRANCH  19  20
ENDBRANCH   5  18
TORSDOF 2
ENDMDL
MODEL      157
REMARK 921   NORMALIZED FREE ENERGY PREDICTED BY IDOCK:    9.74 KCAL/MOL
REMARK 922        TOTAL FREE ENERGY PREDICTED BY IDOCK:   10.43 KCAL/MOL
REMARK 923 INTER-LIGAND FREE ENERGY PREDICTED BY IDOCK:   10.89 KCAL/MOL
REMARK 924 INTRA-LIGAND FREE ENERGY PREDICTED BY IDOCK:   -0.46 KCAL/MOL
REMARK 927      BINDING AFFINITY PREDICTED BY RF-SCORE:    0.00 PKD
ROOT
HETATM    1  F   UNL     1      -8.854   9.902  71.275  1.00  0.00     0.168 F  
HETATM    2  C   UNL     1      -9.404  10.853  70.474  1.00  0.00     2.497 C  
HETATM    3  F   UNL     1      -9.551  11.963  71.242  1.00  0.00     6.613 F  
HETATM    4  F   UNL     1     -10.661  10.417  70.198  1.00  0.00    -0.301 F  
HETATM    5  C   UNL     1      -8.547  11.115  69.183  1.00  0.00     0.057 C  
HETATM    6  O   UNL     1      -7.471  10.136  69.197  1.00  0.00    -0.081 OA 
HETATM    7  C   UNL     1      -9.660  10.149  65.666  1.00  0.00    -0.302 A  
HETATM    8  C   UNL     1      -6.924   9.633  68.073  1.00  0.00    -0.078 C  
HETATM    9 CL   UNL     1     -12.874  12.381  66.440  1.00  0.00     1.363 Cl 
HETATM   10  C   UNL     1     -10.895  10.783  65.548  1.00  0.00    -0.061 A  
HETATM   11  N   UNL     1      -7.680   9.683  66.942  1.00  0.00    -0.098 N  
HETATM   12  O   UNL     1      -5.827   9.087  68.075  1.00  0.00    -0.038 OA 
HETATM   13  C   UNL     1     -11.361  11.578  66.591  1.00  0.00    -0.214 A  
HETATM   14  C   UNL     1      -8.920  10.288  66.842  1.00  0.00    -0.136 A  
HETATM   15  H   UNL     1      -7.303   9.240  66.104  1.00  0.00     0.000 HD 
HETATM   16  C   UNL     1     -10.612  11.722  67.761  1.00  0.00    -0.232 A  
HETATM   17  C   UNL     1      -9.390  11.040  67.915  1.00  0.00    -0.160 A  
ENDROOT
BRANCH   5  18
HETATM   18  C   UNL     1      -7.874  12.438  69.261  1.00  0.00     0.491 C  
HETATM   19  C   UNL     1      -7.364  13.522  69.387  1.00  0.00     0.255 C  
BRANCH  19  20
HETATM   20  C   UNL     1      -6.784  14.815  69.573  1.00  0.00    -0.160 C  
HETATM   21  C   UNL     1      -7.555  16.029  69.116  1.00  0.00    -0.225 C  
HETATM   22  C   UNL     1      -7.398  15.754  70.583  1.00  0.00     1.530 C  
ENDBRANCH  19  20
ENDBRANCH   5  18
TORSDOF 2
ENDMDL
MODEL      158
REMARK 921   NORMALIZED FREE ENERGY PREDICTED BY IDOCK:   14.18 KCAL/MOL
REMARK 922        TOTAL FREE ENERGY PREDICTED BY IDOCK:   15.39 KCAL/MOL
REMARK 923 INTER-LIGAND FREE ENERGY PREDICTED BY IDOCK:   15.84 KCAL/MOL
REMARK 924 INTRA-LIGAND FREE ENERGY PREDICTED BY IDOCK:   -0.45 KCAL/MOL
REMARK 927      BINDING AFFINITY PREDICTED BY RF-SCORE:    0.00 PKD
ROOT
HETATM    1  F   UNL     1     -10.801  12.841  71.678  1.00  0.00     3.550 F  
HETATM    2  C   UNL     1     -10.961  13.737  70.669  1.00  0.00     1.175 C  
HETATM    3  F   UNL     1     -11.320  14.910  71.251  1.00  0.00    -0.343 F  
HETATM    4  F   UNL     1     -12.047  13.314  69.973  1.00  0.00    -0.346 F  
HETATM    5  C   UNL     1      -9.672  13.869  69.778  1.00  0.00     1.158 C  
HETATM    6  O   UNL     1      -8.735  12.866  70.259  1.00  0.00     3.646 OA 
HETATM    7  C   UNL     1      -9.452  12.647  66.173  1.00  0.00    -0.177 A  
HETATM    8  C   UNL     1      -7.838  12.258  69.458  1.00  0.00     0.897 C  
HETATM    9 CL   UNL     1     -12.594  15.022  65.538  1.00  0.00     0.225 Cl 
HETATM   10  C   UNL     1     -10.517  13.303  65.559  1.00  0.00    -0.295 A  
HETATM   11  N   UNL     1      -8.117  12.235  68.125  1.00  0.00    -0.151 N  
HETATM   12  O   UNL     1      -6.853  11.683  69.906  1.00  0.00    -0.039 OA 
HETATM   13  C   UNL     1     -11.292  14.193  66.297  1.00  0.00    -0.338 A  
HETATM   14  C   UNL     1      -9.195  12.862  67.528  1.00  0.00    -0.192 A  
HETATM   15  H   UNL     1      -7.481  11.714  67.521  1.00  0.00     0.000 HD 
HETATM   16  C   UNL     1     -11.024  14.413  67.650  1.00  0.00    -0.294 A  
HETATM   17  C   UNL     1      -9.987  13.713  68.295  1.00  0.00    -0.236 A  
ENDROOT
BRANCH   5  18
HETATM   18  C   UNL     1      -9.003  15.176  70.015  1.00  0.00     0.338 C  
HETATM   19  C   UNL     1      -8.487  16.256  70.143  1.00  0.00     1.471 C  
BRANCH  19  20
HETATM   20  C   UNL     1      -7.889  17.549  70.254  1.00  0.00     2.720 C  
HETATM   21  C   UNL     1      -6.682  17.716  71.145  1.00  0.00     3.202 C  
HETATM   22  C   UNL     1      -6.522  17.777  69.654  1.00  0.00    -0.130 C  
ENDBRANCH  19  20
ENDBRANCH   5  18
TORSDOF 2
ENDMDL
MODEL      159
REMARK 921   NORMALIZED FREE ENERGY PREDICTED BY IDOCK:   43.71 KCAL/MOL
REMARK 922        TOTAL FREE ENERGY PREDICTED BY IDOCK:   48.37 KCAL/MOL
REMARK 923 INTER-LIGAND FREE ENERGY PREDICTED BY IDOCK:   48.80 KCAL/MOL
REMARK 924 INTRA-LIGAND FREE ENERGY PREDICTED BY IDOCK:   -0.43 KCAL/MOL
REMARK 927      BINDING AFFINITY PREDICTED BY RF-SCORE:    0.00 PKD
ROOT
HETATM    1  F   UNL     1     -11.240  20.315  66.856  1.00  0.00    -0.232 F  
HETATM    2  C   UNL     1     -10.478  19.232  66.556  1.00  0.00    -0.462 C  
HETATM    3  F   UNL     1      -9.189  19.596  66.780  1.00  0.00    -0.329 F  
HETATM    4  F   UNL     1     -10.593  19.062  65.214  1.00  0.00    -0.358 F  
HETATM    5  C   UNL     1     -10.901  17.958  67.376  1.00  0.00    -0.204 C  
HETATM    6  O   UNL     1     -12.092  18.328  68.124  1.00  0.00     2.136 OA 
HETATM    7  C   UNL     1     -12.568  14.898  65.829  1.00  0.00     0.277 A  
HETATM    8  C   UNL     1     -13.063  17.447  68.437  1.00  0.00     6.529 C  
HETATM    9 CL   UNL     1      -9.373  14.789  63.443  1.00  0.00     9.250 Cl 
HETATM   10  C   UNL     1     -11.674  14.534  64.824  1.00  0.00    -0.425 A  
HETATM   11  N   UNL     1     -13.158  16.332  67.663  1.00  0.00     3.063 N  
HETATM   12  O   UNL     1     -13.874  17.666  69.328  1.00  0.00    10.195 OA 
HETATM   13  C   UNL     1     -10.490  15.249  64.667  1.00  0.00    -0.012 A  
HETATM   14  C   UNL     1     -12.284  15.995  66.645  1.00  0.00     1.725 A  
HETATM   15  H   UNL     1     -13.934  15.695  67.847  1.00  0.00     0.000 HD 
HETATM   16  C   UNL     1     -10.205  16.338  65.493  1.00  0.00    -0.326 A  
HETATM   17  C   UNL     1     -11.127  16.750  66.475  1.00  0.00     0.309 A  
ENDROOT
BRANCH   5  18
HETATM   18  C   UNL     1      -9.877  17.634  68.404  1.00  0.00    -0.334 C  
HETATM   19  C   UNL     1      -9.083  17.415  69.282  1.00  0.00     0.180 C  
BRANCH  19  20
HETATM   20  C   UNL     1      -8.162  17.185  70.351  1.00  0.00     3.401 C  
HETATM   21  C   UNL     1      -7.241  18.305  70.768  1.00  0.00     3.022 C  
HETATM   22  C   UNL     1      -8.373  17.899  71.665  1.00  0.00    11.399 C  
ENDBRANCH  19  20
ENDBRANCH   5  18
TORSDOF 2
ENDMDL
