MODEL        1
REMARK 921   NORMALIZED FREE ENERGY PREDICTED BY IDOCK:   -7.05 KCAL/MOL
REMARK 922        TOTAL FREE ENERGY PREDICTED BY IDOCK:   -8.38 KCAL/MOL
REMARK 923 INTER-LIGAND FREE ENERGY PREDICTED BY IDOCK:   -7.88 KCAL/MOL
REMARK 924 INTRA-LIGAND FREE ENERGY PREDICTED BY IDOCK:   -0.50 KCAL/MOL
REMARK 927      BINDING AFFINITY PREDICTED BY RF-SCORE:    0.00 PKD
ROOT
HETATM    1  C   UNL     1      -8.331  11.070  68.802  1.00  0.00    -0.144 C  
HETATM    2  C   UNL     1      -9.452  11.054  67.745  1.00  0.00    -0.162 C  
HETATM    3  C   UNL     1      -9.616  12.475  67.017  1.00  0.00    -0.216 C  
HETATM    4  C   UNL     1     -11.051  11.491  63.585  1.00  0.00    -0.469 A  
HETATM    5  O   UNL     1      -8.292  12.743  66.445  1.00  0.00    -0.399 OA 
HETATM    6  C   UNL     1     -12.323  12.042  63.637  1.00  0.00    -0.539 A  
HETATM    7  C   UNL     1     -10.592  12.341  65.838  1.00  0.00    -0.290 A  
HETATM    8  C   UNL     1      -9.854  13.643  68.018  1.00  0.00    -0.244 C  
HETATM    9  C   UNL     1     -10.193  11.639  64.676  1.00  0.00    -0.327 A  
HETATM   10  C   UNL     1     -11.906  12.833  65.862  1.00  0.00    -0.437 A  
HETATM   11  F   UNL     1     -13.143  11.905  62.588  1.00  0.00    -0.312 F  
HETATM   12  H   UNL     1      -8.389  13.584  66.014  1.00  0.00     0.000 HD 
HETATM   13  F   UNL     1     -12.404  13.407  66.963  1.00  0.00    -0.401 F  
HETATM   14  C   UNL     1     -12.759  12.711  64.768  1.00  0.00    -0.460 A  
ENDROOT
BRANCH   2  15
HETATM   15  N   UNL     1     -10.685  10.329  68.126  1.00  0.00    -0.227 NA 
HETATM   16  C   UNL     1     -11.020   9.217  70.867  1.00  0.00    -0.368 C  
HETATM   17  C   UNL     1     -10.165   8.504  69.848  1.00  0.00    -0.204 C  
HETATM   18  C   UNL     1     -11.504   8.603  71.958  1.00  0.00    -0.437 C  
HETATM   19  C   UNL     1     -10.503   8.889  68.394  1.00  0.00    -0.187 C  
HETATM   20  C   UNL     1     -11.297  10.671  70.576  1.00  0.00    -0.355 C  
HETATM   21  C   UNL     1     -11.618  10.910  69.093  1.00  0.00    -0.319 C  
ENDBRANCH   2  15
BRANCH   8  22
HETATM   22  N   UNL     1      -9.674  14.972  67.455  1.00  0.00    -0.215 NA 
HETATM   23  C   UNL     1      -8.841  16.554  66.397  1.00  0.00    -0.310 A  
HETATM   24  C   UNL     1     -10.602  15.967  67.365  1.00  0.00    -0.315 A  
HETATM   25  N   UNL     1     -10.095  16.988  66.714  1.00  0.00    -0.290 NA 
HETATM   26  N   UNL     1      -8.541  15.324  66.821  1.00  0.00    -0.252 NA 
ENDBRANCH   8  22
TORSDOF 2
ENDMDL
MODEL        2
REMARK 921   NORMALIZED FREE ENERGY PREDICTED BY IDOCK:   -6.89 KCAL/MOL
REMARK 922        TOTAL FREE ENERGY PREDICTED BY IDOCK:   -8.20 KCAL/MOL
REMARK 923 INTER-LIGAND FREE ENERGY PREDICTED BY IDOCK:   -7.54 KCAL/MOL
REMARK 924 INTRA-LIGAND FREE ENERGY PREDICTED BY IDOCK:   -0.65 KCAL/MOL
REMARK 927      BINDING AFFINITY PREDICTED BY RF-SCORE:    0.00 PKD
ROOT
HETATM    1  C   UNL     1     -11.038  16.440  69.669  1.00  0.00    -0.306 C  
HETATM    2  C   UNL     1     -10.970  15.895  68.229  1.00  0.00    -0.329 C  
HETATM    3  C   UNL     1     -11.186  14.307  68.173  1.00  0.00    -0.275 C  
HETATM    4  C   UNL     1     -12.650  13.789  64.653  1.00  0.00    -0.288 A  
HETATM    5  O   UNL     1     -12.494  14.097  68.805  1.00  0.00    -0.542 OA 
HETATM    6  C   UNL     1     -11.641  13.073  64.025  1.00  0.00    -0.430 A  
HETATM    7  C   UNL     1     -11.320  13.854  66.711  1.00  0.00    -0.347 A  
HETATM    8  C   UNL     1     -10.186  13.529  69.077  1.00  0.00     0.042 C  
HETATM    9  C   UNL     1     -12.491  14.176  65.985  1.00  0.00    -0.454 A  
HETATM   10  C   UNL     1     -10.308  13.177  66.016  1.00  0.00    -0.287 A  
HETATM   11  F   UNL     1     -11.797  12.696  62.750  1.00  0.00    -0.357 F  
HETATM   12  H   UNL     1     -12.622  13.157  68.772  1.00  0.00     0.000 HD 
HETATM   13  F   UNL     1      -9.124  12.935  66.590  1.00  0.00    -0.216 F  
HETATM   14  C   UNL     1     -10.469  12.765  64.695  1.00  0.00    -0.373 A  
ENDROOT
BRANCH   2  15
HETATM   15  N   UNL     1      -9.914  16.478  67.371  1.00  0.00    -0.261 NA 
HETATM   16  C   UNL     1      -9.292  19.387  67.472  1.00  0.00    -0.386 C  
HETATM   17  C   UNL     1     -10.501  18.886  66.720  1.00  0.00    -0.497 C  
HETATM   18  C   UNL     1      -8.758  20.599  67.252  1.00  0.00    -0.322 C  
HETATM   19  C   UNL     1     -10.398  17.399  66.325  1.00  0.00    -0.330 C  
HETATM   20  C   UNL     1      -8.719  18.432  68.489  1.00  0.00    -0.336 C  
HETATM   21  C   UNL     1      -8.676  16.989  67.963  1.00  0.00    -0.218 C  
ENDBRANCH   2  15
BRANCH   8  22
HETATM   22  N   UNL     1     -10.545  12.141  69.327  1.00  0.00    -0.004 NA 
HETATM   23  C   UNL     1     -11.644  10.477  69.909  1.00  0.00    -0.307 A  
HETATM   24  C   UNL     1      -9.926  11.025  68.845  1.00  0.00    -0.188 A  
HETATM   25  N   UNL     1     -10.593   9.956  69.214  1.00  0.00    -0.212 NA 
HETATM   26  N   UNL     1     -11.664  11.809  69.998  1.00  0.00    -0.323 NA 
ENDBRANCH   8  22
TORSDOF 2
ENDMDL
MODEL        3
REMARK 921   NORMALIZED FREE ENERGY PREDICTED BY IDOCK:   -6.69 KCAL/MOL
REMARK 922        TOTAL FREE ENERGY PREDICTED BY IDOCK:   -7.97 KCAL/MOL
REMARK 923 INTER-LIGAND FREE ENERGY PREDICTED BY IDOCK:   -7.58 KCAL/MOL
REMARK 924 INTRA-LIGAND FREE ENERGY PREDICTED BY IDOCK:   -0.40 KCAL/MOL
REMARK 927      BINDING AFFINITY PREDICTED BY RF-SCORE:    0.00 PKD
ROOT
HETATM    1  C   UNL     1      -8.329  15.909  66.215  1.00  0.00    -0.235 C  
HETATM    2  C   UNL     1      -8.957  15.012  67.299  1.00  0.00    -0.199 C  
HETATM    3  C   UNL     1      -9.922  13.893  66.673  1.00  0.00    -0.279 C  
HETATM    4  C   UNL     1      -9.745  11.081  69.293  1.00  0.00    -0.033 A  
HETATM    5  O   UNL     1      -9.060  13.152  65.744  1.00  0.00    -0.409 OA 
HETATM    6  C   UNL     1     -11.041  11.068  69.788  1.00  0.00    -0.235 A  
HETATM    7  C   UNL     1     -10.347  12.905  67.770  1.00  0.00    -0.223 A  
HETATM    8  C   UNL     1     -11.041  14.494  65.774  1.00  0.00    -0.324 C  
HETATM    9  C   UNL     1      -9.401  11.992  68.292  1.00  0.00    -0.197 A  
HETATM   10  C   UNL     1     -11.628  12.888  68.340  1.00  0.00    -0.333 A  
HETATM   11  F   UNL     1     -11.372  10.189  70.742  1.00  0.00    -0.328 F  
HETATM   12  H   UNL     1      -9.631  12.490  65.373  1.00  0.00     0.000 HD 
HETATM   13  F   UNL     1     -12.549  13.792  67.988  1.00  0.00    -0.244 F  
HETATM   14  C   UNL     1     -11.986  11.965  69.321  1.00  0.00    -0.342 A  
ENDROOT
BRANCH   2  15
HETATM   15  N   UNL     1      -9.413  15.707  68.524  1.00  0.00    -0.195 NA 
HETATM   16  C   UNL     1      -9.695  18.669  68.586  1.00  0.00    -0.418 C  
HETATM   17  C   UNL     1      -8.336  18.025  68.704  1.00  0.00    -0.282 C  
HETATM   18  C   UNL     1      -9.930  19.934  68.973  1.00  0.00    -0.386 C  
HETATM   19  C   UNL     1      -8.397  16.558  69.173  1.00  0.00    -0.157 C  
HETATM   20  C   UNL     1     -10.780  17.796  68.007  1.00  0.00    -0.317 C  
HETATM   21  C   UNL     1     -10.722  16.364  68.560  1.00  0.00    -0.320 C  
ENDBRANCH   2  15
BRANCH   8  22
HETATM   22  N   UNL     1     -11.722  13.529  64.924  1.00  0.00    -0.343 NA 
HETATM   23  C   UNL     1     -12.025  12.004  63.546  1.00  0.00    -0.507 A  
HETATM   24  C   UNL     1     -13.026  13.138  64.994  1.00  0.00    -0.150 A  
HETATM   25  N   UNL     1     -13.249  12.184  64.120  1.00  0.00    -0.732 NA 
HETATM   26  N   UNL     1     -11.057  12.797  64.011  1.00  0.00    -0.387 NA 
ENDBRANCH   8  22
TORSDOF 2
ENDMDL
MODEL        4
REMARK 921   NORMALIZED FREE ENERGY PREDICTED BY IDOCK:   -6.65 KCAL/MOL
REMARK 922        TOTAL FREE ENERGY PREDICTED BY IDOCK:   -7.93 KCAL/MOL
REMARK 923 INTER-LIGAND FREE ENERGY PREDICTED BY IDOCK:   -7.32 KCAL/MOL
REMARK 924 INTRA-LIGAND FREE ENERGY PREDICTED BY IDOCK:   -0.62 KCAL/MOL
REMARK 927      BINDING AFFINITY PREDICTED BY RF-SCORE:    0.00 PKD
ROOT
HETATM    1  C   UNL     1     -11.030  16.339  68.925  1.00  0.00    -0.334 C  
HETATM    2  C   UNL     1     -11.075  15.586  67.581  1.00  0.00    -0.311 C  
HETATM    3  C   UNL     1     -11.267  14.005  67.781  1.00  0.00    -0.281 C  
HETATM    4  C   UNL     1     -13.014  12.961  64.516  1.00  0.00    -0.168 A  
HETATM    5  O   UNL     1     -12.513  13.886  68.547  1.00  0.00    -0.442 OA 
HETATM    6  C   UNL     1     -12.050  12.165  63.916  1.00  0.00    -0.488 A  
HETATM    7  C   UNL     1     -11.516  13.340  66.419  1.00  0.00    -0.364 A  
HETATM    8  C   UNL     1     -10.180  13.376  68.700  1.00  0.00    -0.182 C  
HETATM    9  C   UNL     1     -12.750  13.544  65.756  1.00  0.00    -0.433 A  
HETATM   10  C   UNL     1     -10.555  12.571  65.746  1.00  0.00    -0.270 A  
HETATM   11  F   UNL     1     -12.306  11.601  62.729  1.00  0.00    -0.378 F  
HETATM   12  H   UNL     1     -12.627  12.951  68.664  1.00  0.00     0.000 HD 
HETATM   13  F   UNL     1      -9.322  12.423  66.246  1.00  0.00    -0.221 F  
HETATM   14  C   UNL     1     -10.820  11.965  64.520  1.00  0.00    -0.368 A  
ENDROOT
BRANCH   2  15
HETATM   15  N   UNL     1     -10.105  16.039  66.558  1.00  0.00    -0.273 NA 
HETATM   16  C   UNL     1      -8.958  18.783  66.648  1.00  0.00    -0.315 C  
HETATM   17  C   UNL     1     -10.354  18.552  66.125  1.00  0.00    -0.457 C  
HETATM   18  C   UNL     1      -8.262  19.898  66.375  1.00  0.00    -0.365 C  
HETATM   19  C   UNL     1     -10.598  17.102  65.661  1.00  0.00    -0.179 C  
HETATM   20  C   UNL     1      -8.391  17.674  67.498  1.00  0.00    -0.221 C  
HETATM   21  C   UNL     1      -8.708  16.287  66.920  1.00  0.00    -0.208 C  
ENDBRANCH   2  15
BRANCH   8  22
HETATM   22  N   UNL     1     -10.493  12.039  69.182  1.00  0.00    -0.049 NA 
HETATM   23  C   UNL     1     -11.534  10.463  70.047  1.00  0.00    -0.308 A  
HETATM   24  C   UNL     1      -9.840  10.878  68.889  1.00  0.00    -0.192 A  
HETATM   25  N   UNL     1     -10.469   9.866  69.439  1.00  0.00    -0.216 NA 
HETATM   26  N   UNL     1     -11.597  11.789  69.911  1.00  0.00    -0.296 NA 
ENDBRANCH   8  22
TORSDOF 2
ENDMDL
MODEL        5
REMARK 921   NORMALIZED FREE ENERGY PREDICTED BY IDOCK:   -6.63 KCAL/MOL
REMARK 922        TOTAL FREE ENERGY PREDICTED BY IDOCK:   -7.91 KCAL/MOL
REMARK 923 INTER-LIGAND FREE ENERGY PREDICTED BY IDOCK:   -7.34 KCAL/MOL
REMARK 924 INTRA-LIGAND FREE ENERGY PREDICTED BY IDOCK:   -0.57 KCAL/MOL
REMARK 927      BINDING AFFINITY PREDICTED BY RF-SCORE:    0.00 PKD
ROOT
HETATM    1  C   UNL     1     -11.550  11.651  67.719  1.00  0.00    -0.359 C  
HETATM    2  C   UNL     1     -11.837  12.371  69.052  1.00  0.00    -0.300 C  
HETATM    3  C   UNL     1     -11.605  13.955  68.944  1.00  0.00    -0.316 C  
HETATM    4  C   UNL     1     -13.992  15.328  71.631  1.00  0.00    -0.627 A  
HETATM    5  O   UNL     1     -12.499  14.378  67.860  1.00  0.00    -0.586 OA 
HETATM    6  C   UNL     1     -13.107  15.864  72.556  1.00  0.00    -0.456 A  
HETATM    7  C   UNL     1     -12.106  14.638  70.226  1.00  0.00    -0.380 A  
HETATM    8  C   UNL     1     -10.179  14.325  68.443  1.00  0.00    -0.245 C  
HETATM    9  C   UNL     1     -13.496  14.720  70.477  1.00  0.00     0.004 A  
HETATM   10  C   UNL     1     -11.252  15.146  71.216  1.00  0.00    -0.275 A  
HETATM   11  F   UNL     1     -13.583  16.453  73.660  1.00  0.00    -0.598 F  
HETATM   12  H   UNL     1     -12.362  15.316  67.797  1.00  0.00     0.000 HD 
HETATM   13  F   UNL     1      -9.925  15.007  71.115  1.00  0.00     0.225 F  
HETATM   14  C   UNL     1     -11.739  15.777  72.358  1.00  0.00    -0.577 A  
ENDROOT
BRANCH   2  15
HETATM   15  N   UNL     1     -11.351  11.684  70.270  1.00  0.00    -0.029 NA 
HETATM   16  C   UNL     1     -12.199   8.901  70.898  1.00  0.00    -0.177 C  
HETATM   17  C   UNL     1     -13.124  10.064  71.163  1.00  0.00    -0.472 C  
HETATM   18  C   UNL     1     -12.359   7.705  71.485  1.00  0.00    -0.356 C  
HETATM   19  C   UNL     1     -12.387  11.412  71.286  1.00  0.00    -0.239 C  
HETATM   20  C   UNL     1     -11.076   9.174  69.929  1.00  0.00    -0.175 C  
HETATM   21  C   UNL     1     -10.433  10.548  70.165  1.00  0.00    -0.026 C  
ENDBRANCH   2  15
BRANCH   8  22
HETATM   22  N   UNL     1     -10.026  15.705  68.010  1.00  0.00    -0.221 NA 
HETATM   23  C   UNL     1     -10.303  17.463  66.937  1.00  0.00    -0.317 A  
HETATM   24  C   UNL     1      -9.405  16.719  68.677  1.00  0.00    -0.252 A  
HETATM   25  N   UNL     1      -9.550  17.841  68.011  1.00  0.00    -0.281 NA 
HETATM   26  N   UNL     1     -10.626  16.169  66.898  1.00  0.00    -0.306 NA 
ENDBRANCH   8  22
TORSDOF 2
ENDMDL
MODEL        6
REMARK 921   NORMALIZED FREE ENERGY PREDICTED BY IDOCK:   -6.47 KCAL/MOL
REMARK 922        TOTAL FREE ENERGY PREDICTED BY IDOCK:   -7.73 KCAL/MOL
REMARK 923 INTER-LIGAND FREE ENERGY PREDICTED BY IDOCK:   -7.77 KCAL/MOL
REMARK 924 INTRA-LIGAND FREE ENERGY PREDICTED BY IDOCK:    0.04 KCAL/MOL
REMARK 927      BINDING AFFINITY PREDICTED BY RF-SCORE:    0.00 PKD
ROOT
HETATM    1  C   UNL     1     -11.208  16.586  68.557  1.00  0.00    -0.296 C  
HETATM    2  C   UNL     1     -10.607  15.174  68.706  1.00  0.00    -0.236 C  
HETATM    3  C   UNL     1     -10.702  14.330  67.345  1.00  0.00    -0.282 C  
HETATM    4  C   UNL     1      -7.728  11.909  67.659  1.00  0.00    -0.141 A  
HETATM    5  O   UNL     1      -9.994  15.154  66.358  1.00  0.00    -0.248 OA 
HETATM    6  C   UNL     1      -8.367  10.681  67.764  1.00  0.00    -0.115 A  
HETATM    7  C   UNL     1      -9.904  13.025  67.490  1.00  0.00    -0.209 A  
HETATM    8  C   UNL     1     -12.156  14.227  66.798  1.00  0.00    -0.417 C  
HETATM    9  C   UNL     1      -8.490  13.070  67.524  1.00  0.00    -0.190 A  
HETATM   10  C   UNL     1     -10.503  11.767  67.654  1.00  0.00    -0.197 A  
HETATM   11  F   UNL     1      -7.636   9.567  67.887  1.00  0.00    -0.084 F  
HETATM   12  H   UNL     1     -10.050  14.654  65.553  1.00  0.00     0.000 HD 
HETATM   13  F   UNL     1     -11.832  11.647  67.750  1.00  0.00    -0.369 F  
HETATM   14  C   UNL     1      -9.749  10.601  67.764  1.00  0.00    -0.179 A  
ENDROOT
BRANCH   2  15
HETATM   15  N   UNL     1     -10.915  14.475  69.974  1.00  0.00    -0.126 NA 
HETATM   16  C   UNL     1     -13.050  15.475  71.792  1.00  0.00    -0.548 C  
HETATM   17  C   UNL     1     -11.696  16.140  71.759  1.00  0.00    -0.568 C  
HETATM   18  C   UNL     1     -13.902  15.625  72.818  1.00  0.00    -0.628 C  
HETATM   19  C   UNL     1     -10.584  15.230  71.198  1.00  0.00     0.233 C  
HETATM   20  C   UNL     1     -13.384  14.624  70.592  1.00  0.00    -0.181 C  
HETATM   21  C   UNL     1     -12.189  13.771  70.141  1.00  0.00    -0.356 C  
ENDBRANCH   2  15
BRANCH   8  22
HETATM   22  N   UNL     1     -12.255  13.775  65.419  1.00  0.00    -0.412 NA 
HETATM   23  C   UNL     1     -12.633  12.555  63.781  1.00  0.00    -0.390 A  
HETATM   24  C   UNL     1     -12.194  14.538  64.291  1.00  0.00    -0.415 A  
HETATM   25  N   UNL     1     -12.414  13.786  63.236  1.00  0.00    -0.762 NA 
HETATM   26  N   UNL     1     -12.555  12.499  65.112  1.00  0.00    -0.650 NA 
ENDBRANCH   8  22
TORSDOF 2
ENDMDL
MODEL        7
REMARK 921   NORMALIZED FREE ENERGY PREDICTED BY IDOCK:   -6.43 KCAL/MOL
REMARK 922        TOTAL FREE ENERGY PREDICTED BY IDOCK:   -7.68 KCAL/MOL
REMARK 923 INTER-LIGAND FREE ENERGY PREDICTED BY IDOCK:   -7.52 KCAL/MOL
REMARK 924 INTRA-LIGAND FREE ENERGY PREDICTED BY IDOCK:   -0.16 KCAL/MOL
REMARK 927      BINDING AFFINITY PREDICTED BY RF-SCORE:    0.00 PKD
ROOT
HETATM    1  C   UNL     1     -11.169  15.352  71.516  1.00  0.00    -0.401 C  
HETATM    2  C   UNL     1     -11.099  14.449  70.269  1.00  0.00     0.030 C  
HETATM    3  C   UNL     1     -10.422  15.195  69.020  1.00  0.00    -0.248 C  
HETATM    4  C   UNL     1      -8.935  12.271  67.010  1.00  0.00    -0.204 A  
HETATM    5  O   UNL     1      -9.099  15.597  69.512  1.00  0.00    -0.267 OA 
HETATM    6  C   UNL     1      -9.698  12.301  65.851  1.00  0.00    -0.235 A  
HETATM    7  C   UNL     1     -10.187  14.189  67.883  1.00  0.00    -0.235 A  
HETATM    8  C   UNL     1     -11.130  16.534  68.660  1.00  0.00    -0.329 C  
HETATM    9  C   UNL     1      -9.178  13.206  68.017  1.00  0.00    -0.211 A  
HETATM   10  C   UNL     1     -10.965  14.144  66.717  1.00  0.00    -0.300 A  
HETATM   11  F   UNL     1      -9.461  11.409  64.882  1.00  0.00    -0.230 F  
HETATM   12  H   UNL     1      -8.699  16.039  68.773  1.00  0.00     0.000 HD 
HETATM   13  F   UNL     1     -12.014  14.961  66.560  1.00  0.00    -0.333 F  
HETATM   14  C   UNL     1     -10.713  13.230  65.696  1.00  0.00    -0.292 A  
ENDROOT
BRANCH   2  15
HETATM   15  N   UNL     1     -12.296  13.617  70.009  1.00  0.00    -0.309 NA 
HETATM   16  C   UNL     1     -12.797  11.129  71.564  1.00  0.00    -0.542 C  
HETATM   17  C   UNL     1     -11.790  11.142  70.440  1.00  0.00    -0.462 C  
HETATM   18  C   UNL     1     -13.330   9.993  72.041  1.00  0.00    -0.513 C  
HETATM   19  C   UNL     1     -12.018  12.288  69.433  1.00  0.00    -0.259 C  
HETATM   20  C   UNL     1     -13.169  12.482  72.118  1.00  0.00    -0.508 C  
HETATM   21  C   UNL     1     -13.365  13.525  71.007  1.00  0.00     0.008 C  
ENDBRANCH   2  15
BRANCH   8  22
HETATM   22  N   UNL     1     -10.370  17.403  67.775  1.00  0.00    -0.344 NA 
HETATM   23  C   UNL     1      -8.867  18.654  67.075  1.00  0.00    -0.281 A  
HETATM   24  C   UNL     1     -10.531  17.560  66.430  1.00  0.00    -0.277 A  
HETATM   25  N   UNL     1      -9.602  18.362  65.964  1.00  0.00    -0.507 NA 
HETATM   26  N   UNL     1      -9.292  18.084  68.205  1.00  0.00    -0.275 NA 
ENDBRANCH   8  22
TORSDOF 2
ENDMDL
MODEL        8
REMARK 921   NORMALIZED FREE ENERGY PREDICTED BY IDOCK:   -6.41 KCAL/MOL
REMARK 922        TOTAL FREE ENERGY PREDICTED BY IDOCK:   -7.67 KCAL/MOL
REMARK 923 INTER-LIGAND FREE ENERGY PREDICTED BY IDOCK:   -7.17 KCAL/MOL
REMARK 924 INTRA-LIGAND FREE ENERGY PREDICTED BY IDOCK:   -0.49 KCAL/MOL
REMARK 927      BINDING AFFINITY PREDICTED BY RF-SCORE:    0.00 PKD
ROOT
HETATM    1  C   UNL     1     -10.527  13.039  64.479  1.00  0.00    -0.413 C  
HETATM    2  C   UNL     1     -10.573  13.206  66.010  1.00  0.00    -0.281 C  
HETATM    3  C   UNL     1     -10.627  14.748  66.449  1.00  0.00    -0.300 C  
HETATM    4  C   UNL     1     -12.433  14.585  69.843  1.00  0.00    -0.300 A  
HETATM    5  O   UNL     1     -11.823  15.273  65.779  1.00  0.00    -0.038 OA 
HETATM    6  C   UNL     1     -11.436  14.990  70.718  1.00  0.00    -0.292 A  
HETATM    7  C   UNL     1     -10.884  14.847  67.960  1.00  0.00    -0.263 A  
HETATM    8  C   UNL     1      -9.452  15.585  65.864  1.00  0.00    -0.342 C  
HETATM    9  C   UNL     1     -12.160  14.514  68.475  1.00  0.00    -0.257 A  
HETATM   10  C   UNL     1      -9.896  15.198  68.891  1.00  0.00    -0.229 A  
HETATM   11  F   UNL     1     -11.700  15.065  72.029  1.00  0.00    -0.386 F  
HETATM   12  H   UNL     1     -11.855  16.186  66.039  1.00  0.00     0.000 HD 
HETATM   13  F   UNL     1      -8.634  15.415  68.504  1.00  0.00    -0.150 F  
HETATM   14  C   UNL     1     -10.168  15.296  70.254  1.00  0.00    -0.098 A  
ENDROOT
BRANCH   2  15
HETATM   15  N   UNL     1      -9.691  12.301  66.782  1.00  0.00    -0.208 NA 
HETATM   16  C   UNL     1     -10.078   9.351  66.698  1.00  0.00    -0.332 C  
HETATM   17  C   UNL     1     -10.976  10.219  67.545  1.00  0.00    -0.344 C  
HETATM   18  C   UNL     1      -9.956   8.029  66.898  1.00  0.00    -0.338 C  
HETATM   19  C   UNL     1     -10.350  11.585  67.891  1.00  0.00    -0.183 C  
HETATM   20  C   UNL     1      -9.322  10.068  65.608  1.00  0.00    -0.257 C  
HETATM   21  C   UNL     1      -8.754  11.412  66.090  1.00  0.00    -0.153 C  
ENDBRANCH   2  15
BRANCH   8  22
HETATM   22  N   UNL     1      -9.633  17.026  65.945  1.00  0.00    -0.526 NA 
HETATM   23  C   UNL     1     -10.488  18.907  65.731  1.00  0.00    -0.290 A  
HETATM   24  C   UNL     1      -8.937  17.906  66.719  1.00  0.00    -0.261 A  
HETATM   25  N   UNL     1      -9.448  19.109  66.590  1.00  0.00    -0.329 NA 
HETATM   26  N   UNL     1     -10.648  17.649  65.317  1.00  0.00    -0.601 NA 
ENDBRANCH   8  22
TORSDOF 2
ENDMDL
MODEL        9
REMARK 921   NORMALIZED FREE ENERGY PREDICTED BY IDOCK:   -6.40 KCAL/MOL
REMARK 922        TOTAL FREE ENERGY PREDICTED BY IDOCK:   -7.66 KCAL/MOL
REMARK 923 INTER-LIGAND FREE ENERGY PREDICTED BY IDOCK:   -7.42 KCAL/MOL
REMARK 924 INTRA-LIGAND FREE ENERGY PREDICTED BY IDOCK:   -0.23 KCAL/MOL
REMARK 927      BINDING AFFINITY PREDICTED BY RF-SCORE:    0.00 PKD
ROOT
HETATM    1  C   UNL     1     -10.495  12.247  67.880  1.00  0.00    -0.227 C  
HETATM    2  C   UNL     1     -10.140  13.716  67.580  1.00  0.00    -0.237 C  
HETATM    3  C   UNL     1     -10.463  14.682  68.820  1.00  0.00    -0.246 C  
HETATM    4  C   UNL     1      -7.941  17.545  68.324  1.00  0.00    -0.259 A  
HETATM    5  O   UNL     1      -9.684  14.119  69.929  1.00  0.00     0.079 OA 
HETATM    6  C   UNL     1      -8.775  18.617  68.041  1.00  0.00    -0.303 A  
HETATM    7  C   UNL     1      -9.896  16.083  68.545  1.00  0.00    -0.216 A  
HETATM    8  C   UNL     1     -11.943  14.585  69.291  1.00  0.00    -0.319 C  
HETATM    9  C   UNL     1      -8.496  16.289  68.573  1.00  0.00    -0.206 A  
HETATM   10  C   UNL     1     -10.693  17.185  68.202  1.00  0.00    -0.366 A  
HETATM   11  F   UNL     1      -8.242  19.823  67.809  1.00  0.00    -0.313 F  
HETATM   12  H   UNL     1      -9.875  14.690  70.663  1.00  0.00     0.000 HD 
HETATM   13  F   UNL     1     -12.014  17.053  68.038  1.00  0.00     0.262 F  
HETATM   14  C   UNL     1     -10.148  18.448  67.977  1.00  0.00    -0.392 A  
ENDROOT
BRANCH   2  15
HETATM   15  N   UNL     1     -10.487  14.197  66.223  1.00  0.00    -0.281 NA 
HETATM   16  C   UNL     1     -11.971  12.458  64.318  1.00  0.00    -0.489 C  
HETATM   17  C   UNL     1     -10.493  12.257  64.549  1.00  0.00    -0.339 C  
HETATM   18  C   UNL     1     -12.602  11.979  63.234  1.00  0.00    -0.512 C  
HETATM   19  C   UNL     1      -9.791  13.505  65.121  1.00  0.00    -0.075 C  
HETATM   20  C   UNL     1     -12.695  13.238  65.386  1.00  0.00    -0.460 C  
HETATM   21  C   UNL     1     -11.883  14.452  65.862  1.00  0.00    -0.367 C  
ENDBRANCH   2  15
BRANCH   8  22
HETATM   22  N   UNL     1     -12.203  15.169  70.598  1.00  0.00    -0.322 NA 
HETATM   23  C   UNL     1     -11.964  16.318  72.312  1.00  0.00    -0.520 A  
HETATM   24  C   UNL     1     -13.377  15.156  71.293  1.00  0.00    -0.477 A  
HETATM   25  N   UNL     1     -13.248  15.864  72.391  1.00  0.00    -0.451 NA 
HETATM   26  N   UNL     1     -11.289  15.928  71.230  1.00  0.00    -0.389 NA 
ENDBRANCH   8  22
TORSDOF 2
ENDMDL
MODEL       10
REMARK 921   NORMALIZED FREE ENERGY PREDICTED BY IDOCK:   -6.37 KCAL/MOL
REMARK 922        TOTAL FREE ENERGY PREDICTED BY IDOCK:   -7.62 KCAL/MOL
REMARK 923 INTER-LIGAND FREE ENERGY PREDICTED BY IDOCK:   -7.27 KCAL/MOL
REMARK 924 INTRA-LIGAND FREE ENERGY PREDICTED BY IDOCK:   -0.35 KCAL/MOL
REMARK 927      BINDING AFFINITY PREDICTED BY RF-SCORE:    0.00 PKD
ROOT
HETATM    1  C   UNL     1     -12.117  13.398  70.636  1.00  0.00    -0.374 C  
HETATM    2  C   UNL     1     -11.315  12.468  69.705  1.00  0.00    -0.112 C  
HETATM    3  C   UNL     1     -10.758  13.239  68.413  1.00  0.00    -0.257 C  
HETATM    4  C   UNL     1      -7.624  11.196  67.512  1.00  0.00    -0.108 A  
HETATM    5  O   UNL     1      -9.949  14.332  68.966  1.00  0.00    -0.352 OA 
HETATM    6  C   UNL     1      -7.982  10.646  66.290  1.00  0.00    -0.149 A  
HETATM    7  C   UNL     1      -9.798  12.323  67.639  1.00  0.00    -0.196 A  
HETATM    8  C   UNL     1     -11.880  13.953  67.604  1.00  0.00    -0.386 C  
HETATM    9  C   UNL     1      -8.524  12.028  68.181  1.00  0.00    -0.171 A  
HETATM   10  C   UNL     1     -10.132  11.700  66.428  1.00  0.00    -0.214 A  
HETATM   11  F   UNL     1      -7.116   9.854  65.645  1.00  0.00    -0.091 F  
HETATM   12  H   UNL     1      -9.619  14.789  68.202  1.00  0.00     0.000 HD 
HETATM   13  F   UNL     1     -11.356  11.831  65.903  1.00  0.00    -0.360 F  
HETATM   14  C   UNL     1      -9.230  10.890  65.742  1.00  0.00    -0.224 A  
ENDROOT
BRANCH   2  15
HETATM   15  N   UNL     1     -11.880  11.113  69.508  1.00  0.00    -0.323 NA 
HETATM   16  C   UNL     1     -11.853   9.110  71.709  1.00  0.00    -0.453 C  
HETATM   17  C   UNL     1     -10.605   9.388  70.908  1.00  0.00    -0.390 C  
HETATM   18  C   UNL     1     -12.010   7.992  72.436  1.00  0.00    -0.405 C  
HETATM   19  C   UNL     1     -10.893  10.017  69.531  1.00  0.00    -0.253 C  
HETATM   20  C   UNL     1     -12.920  10.174  71.637  1.00  0.00    -0.561 C  
HETATM   21  C   UNL     1     -13.102  10.711  70.209  1.00  0.00     0.033 C  
ENDBRANCH   2  15
BRANCH   8  22
HETATM   22  N   UNL     1     -11.404  14.930  66.637  1.00  0.00    -0.347 NA 
HETATM   23  C   UNL     1     -10.393  16.557  65.833  1.00  0.00    -0.350 A  
HETATM   24  C   UNL     1     -11.479  14.855  65.278  1.00  0.00    -0.336 A  
HETATM   25  N   UNL     1     -10.861  15.882  64.743  1.00  0.00    -0.583 NA 
HETATM   26  N   UNL     1     -10.692  16.009  67.012  1.00  0.00    -0.308 NA 
ENDBRANCH   8  22
TORSDOF 2
ENDMDL
MODEL       11
REMARK 921   NORMALIZED FREE ENERGY PREDICTED BY IDOCK:   -6.33 KCAL/MOL
REMARK 922        TOTAL FREE ENERGY PREDICTED BY IDOCK:   -7.58 KCAL/MOL
REMARK 923 INTER-LIGAND FREE ENERGY PREDICTED BY IDOCK:   -6.92 KCAL/MOL
REMARK 924 INTRA-LIGAND FREE ENERGY PREDICTED BY IDOCK:   -0.66 KCAL/MOL
REMARK 927      BINDING AFFINITY PREDICTED BY RF-SCORE:    0.00 PKD
ROOT
HETATM    1  C   UNL     1      -9.756  15.217  69.124  1.00  0.00    -0.232 C  
HETATM    2  C   UNL     1     -10.156  14.715  67.722  1.00  0.00    -0.228 C  
HETATM    3  C   UNL     1     -10.369  13.125  67.688  1.00  0.00    -0.223 C  
HETATM    4  C   UNL     1     -12.892  12.686  64.817  1.00  0.00    -0.349 A  
HETATM    5  O   UNL     1     -11.401  12.877  68.702  1.00  0.00    -0.249 OA 
HETATM    6  C   UNL     1     -12.137  12.005  63.873  1.00  0.00    -0.457 A  
HETATM    7  C   UNL     1     -10.967  12.713  66.334  1.00  0.00    -0.304 A  
HETATM    8  C   UNL     1      -9.126  12.337  68.194  1.00  0.00    -0.196 C  
HETATM    9  C   UNL     1     -12.312  13.038  66.037  1.00  0.00    -0.387 A  
HETATM   10  C   UNL     1     -10.231  12.072  65.327  1.00  0.00    -0.271 A  
HETATM   11  F   UNL     1     -12.696  11.662  62.705  1.00  0.00    -0.525 F  
HETATM   12  H   UNL     1     -11.528  11.936  68.681  1.00  0.00     0.000 HD 
HETATM   13  F   UNL     1      -8.924  11.832  65.479  1.00  0.00    -0.169 F  
HETATM   14  C   UNL     1     -10.810  11.696  64.117  1.00  0.00    -0.433 A  
ENDROOT
BRANCH   2  15
HETATM   15  N   UNL     1      -9.438  15.338  66.588  1.00  0.00    -0.242 NA 
HETATM   16  C   UNL     1      -8.909  18.267  66.536  1.00  0.00    -0.284 C  
HETATM   17  C   UNL     1     -10.275  17.727  66.189  1.00  0.00    -0.339 C  
HETATM   18  C   UNL     1      -8.509  19.498  66.179  1.00  0.00    -0.329 C  
HETATM   19  C   UNL     1     -10.253  16.247  65.758  1.00  0.00    -0.367 C  
HETATM   20  C   UNL     1      -8.018  17.328  67.310  1.00  0.00    -0.207 C  
HETATM   21  C   UNL     1      -8.094  15.890  66.774  1.00  0.00    -0.266 C  
ENDBRANCH   2  15
BRANCH   8  22
HETATM   22  N   UNL     1      -9.377  10.937  68.501  1.00  0.00    -0.174 NA 
HETATM   23  C   UNL     1     -10.189   9.242  69.386  1.00  0.00    -0.210 A  
HETATM   24  C   UNL     1      -9.000   9.848  67.772  1.00  0.00    -0.131 A  
HETATM   25  N   UNL     1      -9.487   8.759  68.320  1.00  0.00    -0.140 NA 
HETATM   26  N   UNL     1     -10.159  10.568  69.532  1.00  0.00    -0.210 NA 
ENDBRANCH   8  22
TORSDOF 2
ENDMDL
MODEL       12
REMARK 921   NORMALIZED FREE ENERGY PREDICTED BY IDOCK:   -6.33 KCAL/MOL
REMARK 922        TOTAL FREE ENERGY PREDICTED BY IDOCK:   -7.57 KCAL/MOL
REMARK 923 INTER-LIGAND FREE ENERGY PREDICTED BY IDOCK:   -6.94 KCAL/MOL
REMARK 924 INTRA-LIGAND FREE ENERGY PREDICTED BY IDOCK:   -0.64 KCAL/MOL
REMARK 927      BINDING AFFINITY PREDICTED BY RF-SCORE:    0.00 PKD
ROOT
HETATM    1  C   UNL     1     -10.698  10.346  66.456  1.00  0.00    -0.162 C  
HETATM    2  C   UNL     1     -10.611  11.313  67.653  1.00  0.00    -0.213 C  
HETATM    3  C   UNL     1     -10.926  12.828  67.229  1.00  0.00    -0.262 C  
HETATM    4  C   UNL     1     -12.287  14.339  70.496  1.00  0.00    -0.430 A  
HETATM    5  O   UNL     1     -12.268  12.767  66.638  1.00  0.00    -0.481 OA 
HETATM    6  C   UNL     1     -11.302  15.263  70.816  1.00  0.00    -0.331 A  
HETATM    7  C   UNL     1     -11.034  13.704  68.487  1.00  0.00    -0.289 A  
HETATM    8  C   UNL     1     -10.013  13.336  66.076  1.00  0.00    -0.292 C  
HETATM    9  C   UNL     1     -12.153  13.566  69.341  1.00  0.00    -0.340 A  
HETATM   10  C   UNL     1     -10.041  14.613  68.883  1.00  0.00    -0.234 A  
HETATM   11  F   UNL     1     -11.434  16.009  71.920  1.00  0.00    -0.437 F  
HETATM   12  H   UNL     1     -12.455  13.664  66.387  1.00  0.00     0.000 HD 
HETATM   13  F   UNL     1      -8.898  14.723  68.197  1.00  0.00    -0.153 F  
HETATM   14  C   UNL     1     -10.179  15.406  70.020  1.00  0.00    -0.265 A  
ENDROOT
BRANCH   2  15
HETATM   15  N   UNL     1      -9.488  11.078  68.588  1.00  0.00    -0.191 NA 
HETATM   16  C   UNL     1      -8.189   8.407  68.777  1.00  0.00    -0.119 C  
HETATM   17  C   UNL     1      -9.516   8.664  69.447  1.00  0.00    -0.161 C  
HETATM   18  C   UNL     1      -7.392   7.383  69.124  1.00  0.00    -0.090 C  
HETATM   19  C   UNL     1      -9.789  10.160  69.704  1.00  0.00    -0.225 C  
HETATM   20  C   UNL     1      -7.811   9.382  67.689  1.00  0.00    -0.095 C  
HETATM   21  C   UNL     1      -8.138  10.832  68.078  1.00  0.00    -0.114 C  
ENDBRANCH   2  15
BRANCH   8  22
HETATM   22  N   UNL     1     -10.470  14.558  65.432  1.00  0.00    -0.353 NA 
HETATM   23  C   UNL     1     -11.657  15.877  64.352  1.00  0.00    -0.234 A  
HETATM   24  C   UNL     1      -9.991  15.821  65.619  1.00  0.00    -0.345 A  
HETATM   25  N   UNL     1     -10.715  16.675  64.933  1.00  0.00    -0.717 NA 
HETATM   26  N   UNL     1     -11.554  14.576  64.635  1.00  0.00    -0.407 NA 
ENDBRANCH   8  22
TORSDOF 2
ENDMDL
MODEL       13
REMARK 921   NORMALIZED FREE ENERGY PREDICTED BY IDOCK:   -6.29 KCAL/MOL
REMARK 922        TOTAL FREE ENERGY PREDICTED BY IDOCK:   -7.52 KCAL/MOL
REMARK 923 INTER-LIGAND FREE ENERGY PREDICTED BY IDOCK:   -6.92 KCAL/MOL
REMARK 924 INTRA-LIGAND FREE ENERGY PREDICTED BY IDOCK:   -0.61 KCAL/MOL
REMARK 927      BINDING AFFINITY PREDICTED BY RF-SCORE:    0.00 PKD
ROOT
HETATM    1  C   UNL     1     -10.547  16.814  69.105  1.00  0.00    -0.343 C  
HETATM    2  C   UNL     1     -10.616  15.943  67.836  1.00  0.00    -0.300 C  
HETATM    3  C   UNL     1     -11.228  14.490  68.133  1.00  0.00    -0.284 C  
HETATM    4  C   UNL     1     -12.766  13.526  64.740  1.00  0.00    -0.284 A  
HETATM    5  O   UNL     1     -12.549  14.766  68.711  1.00  0.00    -0.519 OA 
HETATM    6  C   UNL     1     -11.970  12.456  64.358  1.00  0.00    -0.407 A  
HETATM    7  C   UNL     1     -11.469  13.750  66.808  1.00  0.00    -0.367 A  
HETATM    8  C   UNL     1     -10.461  13.728  69.253  1.00  0.00     0.067 C  
HETATM    9  C   UNL     1     -12.517  14.168  65.954  1.00  0.00    -0.479 A  
HETATM   10  C   UNL     1     -10.660  12.699  66.352  1.00  0.00    -0.251 A  
HETATM   11  F   UNL     1     -12.213  11.836  63.196  1.00  0.00    -0.572 F  
HETATM   12  H   UNL     1     -12.911  13.906  68.887  1.00  0.00     0.000 HD 
HETATM   13  F   UNL     1      -9.578  12.317  67.040  1.00  0.00    -0.192 F  
HETATM   14  C   UNL     1     -10.917  12.037  65.153  1.00  0.00    -0.359 A  
ENDROOT
BRANCH   2  15
HETATM   15  N   UNL     1      -9.444  16.026  66.935  1.00  0.00    -0.220 NA 
HETATM   16  C   UNL     1      -7.471  18.239  67.193  1.00  0.00    -0.227 C  
HETATM   17  C   UNL     1      -8.798  18.469  66.512  1.00  0.00    -0.301 C  
HETATM   18  C   UNL     1      -6.419  19.055  67.016  1.00  0.00    -0.198 C  
HETATM   19  C   UNL     1      -9.454  17.170  66.003  1.00  0.00    -0.137 C  
HETATM   20  C   UNL     1      -7.401  17.026  68.086  1.00  0.00    -0.192 C  
HETATM   21  C   UNL     1      -8.092  15.807  67.456  1.00  0.00    -0.159 C  
ENDBRANCH   2  15
BRANCH   8  22
HETATM   22  N   UNL     1     -11.163  12.572  69.790  1.00  0.00    -0.030 NA 
HETATM   23  C   UNL     1     -12.604  11.433  70.759  1.00  0.00    -0.316 A  
HETATM   24  C   UNL     1     -10.945  11.259  69.493  1.00  0.00    -0.191 A  
HETATM   25  N   UNL     1     -11.835  10.514  70.107  1.00  0.00    -0.296 NA 
HETATM   26  N   UNL     1     -12.238  12.705  70.588  1.00  0.00    -0.358 NA 
ENDBRANCH   8  22
TORSDOF 2
ENDMDL
MODEL       14
REMARK 921   NORMALIZED FREE ENERGY PREDICTED BY IDOCK:   -6.09 KCAL/MOL
REMARK 922        TOTAL FREE ENERGY PREDICTED BY IDOCK:   -7.31 KCAL/MOL
REMARK 923 INTER-LIGAND FREE ENERGY PREDICTED BY IDOCK:   -6.66 KCAL/MOL
REMARK 924 INTRA-LIGAND FREE ENERGY PREDICTED BY IDOCK:   -0.64 KCAL/MOL
REMARK 927      BINDING AFFINITY PREDICTED BY RF-SCORE:    0.00 PKD
ROOT
HETATM    1  C   UNL     1     -12.174  12.037  70.624  1.00  0.00    -0.409 C  
HETATM    2  C   UNL     1     -12.119  13.047  69.461  1.00  0.00    -0.230 C  
HETATM    3  C   UNL     1     -11.228  12.514  68.239  1.00  0.00    -0.266 C  
HETATM    4  C   UNL     1     -12.784  14.324  65.221  1.00  0.00    -0.358 A  
HETATM    5  O   UNL     1     -11.854  11.240  67.863  1.00  0.00    -0.597 OA 
HETATM    6  C   UNL     1     -11.753  15.164  64.827  1.00  0.00    -0.331 A  
HETATM    7  C   UNL     1     -11.383  13.457  67.036  1.00  0.00    -0.346 A  
HETATM    8  C   UNL     1      -9.782  12.128  68.668  1.00  0.00    -0.081 C  
HETATM    9  C   UNL     1     -12.601  13.478  66.317  1.00  0.00    -0.298 A  
HETATM   10  C   UNL     1     -10.391  14.362  66.631  1.00  0.00    -0.275 A  
HETATM   11  F   UNL     1     -11.927  15.970  63.772  1.00  0.00    -0.316 F  
HETATM   12  H   UNL     1     -11.326  10.924  67.140  1.00  0.00     0.000 HD 
HETATM   13  F   UNL     1      -9.254  14.491  67.325  1.00  0.00    -0.181 F  
HETATM   14  C   UNL     1     -10.557  15.191  65.523  1.00  0.00    -0.383 A  
ENDROOT
BRANCH   2  15
HETATM   15  N   UNL     1     -11.975  14.468  69.850  1.00  0.00    -0.308 NA 
HETATM   16  C   UNL     1     -12.924  15.431  72.502  1.00  0.00    -0.500 C  
HETATM   17  C   UNL     1     -13.902  15.188  71.379  1.00  0.00    -0.587 C  
HETATM   18  C   UNL     1     -13.221  16.198  73.564  1.00  0.00    -0.526 C  
HETATM   19  C   UNL     1     -13.244  15.209  69.984  1.00  0.00     0.244 C  
HETATM   20  C   UNL     1     -11.583  14.757  72.352  1.00  0.00    -0.081 C  
HETATM   21  C   UNL     1     -11.047  14.854  70.916  1.00  0.00    -0.103 C  
ENDBRANCH   2  15
BRANCH   8  22
HETATM   22  N   UNL     1      -9.051  11.334  67.692  1.00  0.00    -0.147 NA 
HETATM   23  C   UNL     1      -8.546   9.768  66.425  1.00  0.00    -0.124 A  
HETATM   24  C   UNL     1      -8.048  11.753  66.868  1.00  0.00    -0.160 A  
HETATM   25  N   UNL     1      -7.698  10.775  66.065  1.00  0.00    -0.154 NA 
HETATM   26  N   UNL     1      -9.397  10.065  67.408  1.00  0.00    -0.147 NA 
ENDBRANCH   8  22
TORSDOF 2
ENDMDL
MODEL       15
REMARK 921   NORMALIZED FREE ENERGY PREDICTED BY IDOCK:   -5.98 KCAL/MOL
REMARK 922        TOTAL FREE ENERGY PREDICTED BY IDOCK:   -7.18 KCAL/MOL
REMARK 923 INTER-LIGAND FREE ENERGY PREDICTED BY IDOCK:   -6.54 KCAL/MOL
REMARK 924 INTRA-LIGAND FREE ENERGY PREDICTED BY IDOCK:   -0.64 KCAL/MOL
REMARK 927      BINDING AFFINITY PREDICTED BY RF-SCORE:    0.00 PKD
ROOT
HETATM    1  C   UNL     1      -7.241  15.519  67.287  1.00  0.00    -0.242 C  
HETATM    2  C   UNL     1      -8.514  15.868  68.082  1.00  0.00    -0.167 C  
HETATM    3  C   UNL     1      -9.429  14.579  68.355  1.00  0.00    -0.209 C  
HETATM    4  C   UNL     1     -11.267  15.534  71.598  1.00  0.00    -0.388 A  
HETATM    5  O   UNL     1      -8.543  13.652  69.070  1.00  0.00    -0.357 OA 
HETATM    6  C   UNL     1     -12.581  15.635  71.164  1.00  0.00    -0.453 A  
HETATM    7  C   UNL     1     -10.563  14.946  69.324  1.00  0.00    -0.248 A  
HETATM    8  C   UNL     1      -9.815  13.824  67.050  1.00  0.00    -0.251 C  
HETATM    9  C   UNL     1     -10.267  15.193  70.686  1.00  0.00     0.270 A  
HETATM   10  C   UNL     1     -11.897  15.112  68.925  1.00  0.00    -0.310 A  
HETATM   11  F   UNL     1     -13.542  15.955  72.040  1.00  0.00    -0.521 F  
HETATM   12  H   UNL     1      -9.085  12.889  69.232  1.00  0.00     0.000 HD 
HETATM   13  F   UNL     1     -12.246  15.012  67.637  1.00  0.00    -0.304 F  
HETATM   14  C   UNL     1     -12.905  15.428  69.834  1.00  0.00    -0.011 A  
ENDROOT
BRANCH   2  15
HETATM   15  N   UNL     1      -9.193  17.124  67.689  1.00  0.00    -0.236 NA 
HETATM   16  C   UNL     1      -7.638  19.614  67.199  1.00  0.00    -0.282 C  
HETATM   17  C   UNL     1      -7.935  19.159  68.606  1.00  0.00    -0.398 C  
HETATM   18  C   UNL     1      -7.285  20.876  66.909  1.00  0.00    -0.308 C  
HETATM   19  C   UNL     1      -9.140  18.202  68.696  1.00  0.00    -0.277 C  
HETATM   20  C   UNL     1      -7.769  18.554  66.133  1.00  0.00    -0.253 C  
HETATM   21  C   UNL     1      -9.011  17.675  66.345  1.00  0.00    -0.231 C  
ENDBRANCH   2  15
BRANCH   8  22
HETATM   22  N   UNL     1     -10.346  12.485  67.257  1.00  0.00    -0.219 NA 
HETATM   23  C   UNL     1     -10.448  10.480  67.791  1.00  0.00    -0.224 A  
HETATM   24  C   UNL     1     -11.654  12.101  67.239  1.00  0.00    -0.334 A  
HETATM   25  N   UNL     1     -11.746  10.830  67.557  1.00  0.00    -0.423 NA 
HETATM   26  N   UNL     1      -9.557  11.460  67.629  1.00  0.00    -0.167 NA 
ENDBRANCH   8  22
TORSDOF 2
ENDMDL
MODEL       16
REMARK 921   NORMALIZED FREE ENERGY PREDICTED BY IDOCK:   -5.91 KCAL/MOL
REMARK 922        TOTAL FREE ENERGY PREDICTED BY IDOCK:   -7.10 KCAL/MOL
REMARK 923 INTER-LIGAND FREE ENERGY PREDICTED BY IDOCK:   -6.83 KCAL/MOL
REMARK 924 INTRA-LIGAND FREE ENERGY PREDICTED BY IDOCK:   -0.27 KCAL/MOL
REMARK 927      BINDING AFFINITY PREDICTED BY RF-SCORE:    0.00 PKD
ROOT
HETATM    1  C   UNL     1     -11.278  16.336  68.370  1.00  0.00    -0.349 C  
HETATM    2  C   UNL     1     -10.609  14.986  68.696  1.00  0.00    -0.237 C  
HETATM    3  C   UNL     1     -10.501  14.038  67.406  1.00  0.00    -0.263 C  
HETATM    4  C   UNL     1      -7.434  11.864  68.226  1.00  0.00    -0.104 A  
HETATM    5  O   UNL     1      -9.741  14.835  66.435  1.00  0.00    -0.261 OA 
HETATM    6  C   UNL     1      -8.003  10.606  68.363  1.00  0.00    -0.120 A  
HETATM    7  C   UNL     1      -9.644  12.808  67.740  1.00  0.00    -0.204 A  
HETATM    8  C   UNL     1     -11.876  13.792  66.720  1.00  0.00    -0.420 C  
HETATM    9  C   UNL     1      -8.248  12.956  67.917  1.00  0.00    -0.165 A  
HETATM   10  C   UNL     1     -10.177  11.526  67.942  1.00  0.00    -0.184 A  
HETATM   11  F   UNL     1      -7.221   9.558  68.653  1.00  0.00    -0.070 F  
HETATM   12  H   UNL     1      -9.677  14.273  65.672  1.00  0.00     0.000 HD 
HETATM   13  F   UNL     1     -11.498  11.319  67.908  1.00  0.00    -0.298 F  
HETATM   14  C   UNL     1      -9.368  10.427  68.225  1.00  0.00    -0.150 A  
ENDROOT
BRANCH   2  15
HETATM   15  N   UNL     1     -11.011  14.363  69.978  1.00  0.00    -0.077 NA 
HETATM   16  C   UNL     1     -13.140  15.576  71.667  1.00  0.00    -0.561 C  
HETATM   17  C   UNL     1     -11.744  16.149  71.663  1.00  0.00    -0.558 C  
HETATM   18  C   UNL     1     -14.018  15.825  72.652  1.00  0.00    -0.557 C  
HETATM   19  C   UNL     1     -10.676  15.145  71.183  1.00  0.00     0.118 C  
HETATM   20  C   UNL     1     -13.485  14.699  70.490  1.00  0.00     0.052 C  
HETATM   21  C   UNL     1     -12.334  13.751  70.121  1.00  0.00    -0.323 C  
ENDBRANCH   2  15
BRANCH   8  22
HETATM   22  N   UNL     1     -11.794  13.232  65.380  1.00  0.00    -0.341 NA 
HETATM   23  C   UNL     1     -10.995  12.551  63.587  1.00  0.00    -0.456 A  
HETATM   24  C   UNL     1     -12.766  12.556  64.704  1.00  0.00    -0.349 A  
HETATM   25  N   UNL     1     -12.291  12.127  63.557  1.00  0.00    -0.574 NA 
HETATM   26  N   UNL     1     -10.642  13.223  64.685  1.00  0.00    -0.383 NA 
ENDBRANCH   8  22
TORSDOF 2
ENDMDL
MODEL       17
REMARK 921   NORMALIZED FREE ENERGY PREDICTED BY IDOCK:   -5.88 KCAL/MOL
REMARK 922        TOTAL FREE ENERGY PREDICTED BY IDOCK:   -7.07 KCAL/MOL
REMARK 923 INTER-LIGAND FREE ENERGY PREDICTED BY IDOCK:   -6.55 KCAL/MOL
REMARK 924 INTRA-LIGAND FREE ENERGY PREDICTED BY IDOCK:   -0.52 KCAL/MOL
REMARK 927      BINDING AFFINITY PREDICTED BY RF-SCORE:    0.00 PKD
ROOT
HETATM    1  C   UNL     1     -12.192  11.395  70.805  1.00  0.00    -0.475 C  
HETATM    2  C   UNL     1     -11.005  10.762  70.053  1.00  0.00    -0.211 C  
HETATM    3  C   UNL     1     -10.749  11.461  68.632  1.00  0.00    -0.206 C  
HETATM    4  C   UNL     1      -6.986  10.871  68.082  1.00  0.00    -0.069 A  
HETATM    5  O   UNL     1     -10.532  12.875  68.959  1.00  0.00    -0.417 OA 
HETATM    6  C   UNL     1      -6.986  10.015  66.990  1.00  0.00    -0.088 A  
HETATM    7  C   UNL     1      -9.436  10.937  68.028  1.00  0.00    -0.167 A  
HETATM    8  C   UNL     1     -12.010  11.458  67.720  1.00  0.00     0.005 C  
HETATM    9  C   UNL     1      -8.201  11.328  68.597  1.00  0.00    -0.146 A  
HETATM   10  C   UNL     1      -9.384  10.030  66.960  1.00  0.00    -0.154 A  
HETATM   11  F   UNL     1      -5.821   9.583  66.492  1.00  0.00    -0.050 F  
HETATM   12  H   UNL     1     -10.380  13.289  68.117  1.00  0.00     0.000 HD 
HETATM   13  F   UNL     1     -10.506   9.519  66.438  1.00  0.00    -0.310 F  
HETATM   14  C   UNL     1      -8.176   9.589  66.425  1.00  0.00    -0.115 A  
ENDROOT
BRANCH   2  15
HETATM   15  N   UNL     1     -10.915   9.286  70.121  1.00  0.00    -0.241 NA 
HETATM   16  C   UNL     1     -10.600   7.892  72.732  1.00  0.00    -0.418 C  
HETATM   17  C   UNL     1      -9.419   8.559  72.071  1.00  0.00    -0.364 C  
HETATM   18  C   UNL     1     -10.459   6.956  73.684  1.00  0.00    -0.400 C  
HETATM   19  C   UNL     1      -9.605   8.761  70.554  1.00  0.00    -0.191 C  
HETATM   20  C   UNL     1     -11.955   8.344  72.249  1.00  0.00    -0.455 C  
HETATM   21  C   UNL     1     -11.998   8.504  70.722  1.00  0.00    -0.112 C  
ENDBRANCH   2  15
BRANCH   8  22
HETATM   22  N   UNL     1     -11.938  12.360  66.581  1.00  0.00    -0.596 NA 
HETATM   23  C   UNL     1     -11.814  14.116  65.478  1.00  0.00    -0.364 A  
HETATM   24  C   UNL     1     -11.665  12.036  65.284  1.00  0.00    -0.252 A  
HETATM   25  N   UNL     1     -11.597  13.130  64.560  1.00  0.00    -0.346 NA 
HETATM   26  N   UNL     1     -12.018  13.695  66.728  1.00  0.00    -0.405 NA 
ENDBRANCH   8  22
TORSDOF 2
ENDMDL
MODEL       18
REMARK 921   NORMALIZED FREE ENERGY PREDICTED BY IDOCK:   -5.82 KCAL/MOL
REMARK 922        TOTAL FREE ENERGY PREDICTED BY IDOCK:   -7.01 KCAL/MOL
REMARK 923 INTER-LIGAND FREE ENERGY PREDICTED BY IDOCK:   -6.38 KCAL/MOL
REMARK 924 INTRA-LIGAND FREE ENERGY PREDICTED BY IDOCK:   -0.63 KCAL/MOL
REMARK 927      BINDING AFFINITY PREDICTED BY RF-SCORE:    0.00 PKD
ROOT
HETATM    1  C   UNL     1      -7.816   9.990  68.358  1.00  0.00    -0.089 C  
HETATM    2  C   UNL     1      -9.224   9.607  68.855  1.00  0.00    -0.147 C  
HETATM    3  C   UNL     1      -9.171   8.625  70.123  1.00  0.00    -0.159 C  
HETATM    4  C   UNL     1     -12.482   9.409  71.920  1.00  0.00    -0.468 A  
HETATM    5  O   UNL     1      -8.393   9.367  71.122  1.00  0.00    -0.310 OA 
HETATM    6  C   UNL     1     -13.175   8.216  71.778  1.00  0.00    -0.341 A  
HETATM    7  C   UNL     1     -10.584   8.450  70.700  1.00  0.00    -0.234 A  
HETATM    8  C   UNL     1      -8.339   7.337  69.856  1.00  0.00    -0.135 C  
HETATM    9  C   UNL     1     -11.198   9.526  71.386  1.00  0.00    -0.452 A  
HETATM   10  C   UNL     1     -11.347   7.285  70.537  1.00  0.00    -0.280 A  
HETATM   11  F   UNL     1     -14.404   8.103  72.297  1.00  0.00    -0.434 F  
HETATM   12  H   UNL     1      -8.362   8.786  71.873  1.00  0.00     0.000 HD 
HETATM   13  F   UNL     1     -10.891   6.263  69.803  1.00  0.00    -0.259 F  
HETATM   14  C   UNL     1     -12.619   7.152  71.089  1.00  0.00    -0.384 A  
ENDROOT
BRANCH   2  15
HETATM   15  N   UNL     1     -10.221   9.315  67.799  1.00  0.00    -0.205 NA 
HETATM   16  C   UNL     1     -10.147  10.746  65.190  1.00  0.00    -0.363 C  
HETATM   17  C   UNL     1     -10.716  11.416  66.417  1.00  0.00    -0.325 C  
HETATM   18  C   UNL     1     -10.418  11.172  63.946  1.00  0.00    -0.445 C  
HETATM   19  C   UNL     1     -11.158  10.417  67.506  1.00  0.00    -0.267 C  
HETATM   20  C   UNL     1      -9.254   9.560  65.454  1.00  0.00    -0.306 C  
HETATM   21  C   UNL     1      -9.814   8.651  66.559  1.00  0.00    -0.278 C  
ENDBRANCH   2  15
BRANCH   8  22
HETATM   22  N   UNL     1      -7.979   6.589  71.051  1.00  0.00    -0.110 NA 
HETATM   23  C   UNL     1      -7.249   6.162  72.949  1.00  0.00    -0.092 A  
HETATM   24  C   UNL     1      -8.389   5.335  71.398  1.00  0.00    -0.121 A  
HETATM   25  N   UNL     1      -7.927   5.033  72.590  1.00  0.00    -0.097 NA 
HETATM   26  N   UNL     1      -7.261   7.144  72.044  1.00  0.00    -0.075 NA 
ENDBRANCH   8  22
TORSDOF 2
ENDMDL
MODEL       19
REMARK 921   NORMALIZED FREE ENERGY PREDICTED BY IDOCK:   -5.81 KCAL/MOL
REMARK 922        TOTAL FREE ENERGY PREDICTED BY IDOCK:   -6.99 KCAL/MOL
REMARK 923 INTER-LIGAND FREE ENERGY PREDICTED BY IDOCK:   -6.37 KCAL/MOL
REMARK 924 INTRA-LIGAND FREE ENERGY PREDICTED BY IDOCK:   -0.62 KCAL/MOL
REMARK 927      BINDING AFFINITY PREDICTED BY RF-SCORE:    0.00 PKD
ROOT
HETATM    1  C   UNL     1      -7.652   8.713  68.368  1.00  0.00    -0.096 C  
HETATM    2  C   UNL     1      -9.094   8.736  68.912  1.00  0.00    -0.141 C  
HETATM    3  C   UNL     1      -9.273   7.782  70.189  1.00  0.00    -0.153 C  
HETATM    4  C   UNL     1     -12.177   9.456  72.078  1.00  0.00    -0.396 A  
HETATM    5  O   UNL     1      -8.288   8.282  71.155  1.00  0.00    -0.110 OA 
HETATM    6  C   UNL     1     -13.177   8.501  71.972  1.00  0.00    -0.369 A  
HETATM    7  C   UNL     1     -10.660   8.006  70.811  1.00  0.00    -0.228 A  
HETATM    8  C   UNL     1      -8.839   6.313  69.912  1.00  0.00    -0.141 C  
HETATM    9  C   UNL     1     -10.929   9.211  71.503  1.00  0.00    -0.434 A  
HETATM   10  C   UNL     1     -11.720   7.096  70.685  1.00  0.00    -0.307 A  
HETATM   11  F   UNL     1     -14.372   8.733  72.529  1.00  0.00    -0.483 F  
HETATM   12  H   UNL     1      -8.394   7.717  71.911  1.00  0.00     0.000 HD 
HETATM   13  F   UNL     1     -11.588   5.986  69.950  1.00  0.00    -0.467 F  
HETATM   14  C   UNL     1     -12.960   7.322  71.278  1.00  0.00    -0.377 A  
ENDROOT
BRANCH   2  15
HETATM   15  N   UNL     1     -10.166   8.729  67.891  1.00  0.00    -0.207 NA 
HETATM   16  C   UNL     1      -9.911  10.329  65.395  1.00  0.00    -0.371 C  
HETATM   17  C   UNL     1     -10.292  10.992  66.695  1.00  0.00    -0.288 C  
HETATM   18  C   UNL     1     -10.139  10.900  64.201  1.00  0.00    -0.416 C  
HETATM   19  C   UNL     1     -10.880  10.010  67.729  1.00  0.00    -0.282 C  
HETATM   20  C   UNL     1      -9.257   8.976  65.523  1.00  0.00    -0.262 C  
HETATM   21  C   UNL     1      -9.942   8.104  66.585  1.00  0.00    -0.269 C  
ENDBRANCH   2  15
BRANCH   8  22
HETATM   22  N   UNL     1      -8.660   5.497  71.103  1.00  0.00    -0.125 NA 
HETATM   23  C   UNL     1      -8.061   4.913  73.005  1.00  0.00    -0.101 A  
HETATM   24  C   UNL     1      -9.332   4.357  71.435  1.00  0.00    -0.145 A  
HETATM   25  N   UNL     1      -8.959   3.956  72.629  1.00  0.00    -0.104 NA 
HETATM   26  N   UNL     1      -7.853   5.880  72.109  1.00  0.00    -0.102 NA 
ENDBRANCH   8  22
TORSDOF 2
ENDMDL
MODEL       20
REMARK 921   NORMALIZED FREE ENERGY PREDICTED BY IDOCK:   -5.78 KCAL/MOL
REMARK 922        TOTAL FREE ENERGY PREDICTED BY IDOCK:   -6.96 KCAL/MOL
REMARK 923 INTER-LIGAND FREE ENERGY PREDICTED BY IDOCK:   -6.73 KCAL/MOL
REMARK 924 INTRA-LIGAND FREE ENERGY PREDICTED BY IDOCK:   -0.23 KCAL/MOL
REMARK 927      BINDING AFFINITY PREDICTED BY RF-SCORE:    0.00 PKD
ROOT
HETATM    1  C   UNL     1     -12.276  14.185  66.380  1.00  0.00    -0.473 C  
HETATM    2  C   UNL     1     -10.796  14.259  66.801  1.00  0.00    -0.298 C  
HETATM    3  C   UNL     1     -10.357  15.748  67.207  1.00  0.00    -0.290 C  
HETATM    4  C   UNL     1      -7.483  15.121  69.688  1.00  0.00    -0.181 A  
HETATM    5  O   UNL     1     -11.279  16.115  68.288  1.00  0.00    -0.352 OA 
HETATM    6  C   UNL     1      -6.392  15.628  68.997  1.00  0.00    -0.123 A  
HETATM    7  C   UNL     1      -8.946  15.723  67.815  1.00  0.00    -0.176 A  
HETATM    8  C   UNL     1     -10.637  16.788  66.084  1.00  0.00    -0.210 C  
HETATM    9  C   UNL     1      -8.749  15.167  69.102  1.00  0.00    -0.216 A  
HETATM   10  C   UNL     1      -7.804  16.173  67.137  1.00  0.00    -0.200 A  
HETATM   11  F   UNL     1      -5.179  15.590  69.563  1.00  0.00    -0.097 F  
HETATM   12  H   UNL     1     -11.019  16.996  68.529  1.00  0.00     0.000 HD 
HETATM   13  F   UNL     1      -7.882  16.606  65.873  1.00  0.00    -0.331 F  
HETATM   14  C   UNL     1      -6.541  16.154  67.725  1.00  0.00    -0.172 A  
ENDROOT
BRANCH   2  15
HETATM   15  N   UNL     1      -9.854  13.462  65.982  1.00  0.00    -0.284 NA 
HETATM   16  C   UNL     1     -10.056  10.495  65.872  1.00  0.00    -0.323 C  
HETATM   17  C   UNL     1      -9.425  11.178  67.061  1.00  0.00    -0.193 C  
HETATM   18  C   UNL     1      -9.848   9.199  65.591  1.00  0.00    -0.164 C  
HETATM   19  C   UNL     1      -8.931  12.605  66.751  1.00  0.00    -0.197 C  
HETATM   20  C   UNL     1     -10.938  11.368  65.015  1.00  0.00    -0.271 C  
HETATM   21  C   UNL     1     -10.324  12.758  64.787  1.00  0.00    -0.322 C  
ENDBRANCH   2  15
BRANCH   8  22
HETATM   22  N   UNL     1     -10.577  18.177  66.513  1.00  0.00    -0.323 NA 
HETATM   23  C   UNL     1     -10.480  19.841  67.754  1.00  0.00    -0.416 A  
HETATM   24  C   UNL     1     -10.295  19.270  65.748  1.00  0.00    -0.316 A  
HETATM   25  N   UNL     1     -10.244  20.340  66.507  1.00  0.00    -0.411 NA 
HETATM   26  N   UNL     1     -10.680  18.522  67.810  1.00  0.00    -0.389 NA 
ENDBRANCH   8  22
TORSDOF 2
ENDMDL
MODEL       21
REMARK 921   NORMALIZED FREE ENERGY PREDICTED BY IDOCK:   -5.76 KCAL/MOL
REMARK 922        TOTAL FREE ENERGY PREDICTED BY IDOCK:   -6.94 KCAL/MOL
REMARK 923 INTER-LIGAND FREE ENERGY PREDICTED BY IDOCK:   -6.30 KCAL/MOL
REMARK 924 INTRA-LIGAND FREE ENERGY PREDICTED BY IDOCK:   -0.64 KCAL/MOL
REMARK 927      BINDING AFFINITY PREDICTED BY RF-SCORE:    0.00 PKD
ROOT
HETATM    1  C   UNL     1     -11.290  10.028  70.771  1.00  0.00    -0.439 C  
HETATM    2  C   UNL     1     -10.156   9.873  69.739  1.00  0.00    -0.242 C  
HETATM    3  C   UNL     1     -10.242  10.975  68.577  1.00  0.00    -0.192 C  
HETATM    4  C   UNL     1      -6.572  11.305  67.470  1.00  0.00    -0.073 A  
HETATM    5  O   UNL     1     -10.196  12.257  69.290  1.00  0.00    -0.409 OA 
HETATM    6  C   UNL     1      -6.615  10.804  66.177  1.00  0.00    -0.127 A  
HETATM    7  C   UNL     1      -8.979  10.906  67.704  1.00  0.00    -0.140 A  
HETATM    8  C   UNL     1     -11.618  10.981  67.849  1.00  0.00    -0.226 C  
HETATM    9  C   UNL     1      -7.743  11.356  68.227  1.00  0.00    -0.124 A  
HETATM   10  C   UNL     1      -8.960  10.359  66.413  1.00  0.00    -0.149 A  
HETATM   11  F   UNL     1      -5.493  10.762  65.448  1.00  0.00    -0.100 F  
HETATM   12  H   UNL     1     -10.247  12.910  68.602  1.00  0.00     0.000 HD 
HETATM   13  F   UNL     1     -10.058   9.806  65.886  1.00  0.00    -0.313 F  
HETATM   14  C   UNL     1      -7.800  10.329  65.642  1.00  0.00    -0.151 A  
ENDROOT
BRANCH   2  15
HETATM   15  N   UNL     1      -9.830   8.483  69.348  1.00  0.00    -0.181 NA 
HETATM   16  C   UNL     1     -10.352   6.211  71.197  1.00  0.00    -0.257 C  
HETATM   17  C   UNL     1      -9.150   7.101  71.396  1.00  0.00    -0.143 C  
HETATM   18  C   UNL     1     -10.439   4.987  71.742  1.00  0.00    -0.246 C  
HETATM   19  C   UNL     1      -8.737   7.859  70.118  1.00  0.00    -0.136 C  
HETATM   20  C   UNL     1     -11.451   6.786  70.340  1.00  0.00    -0.419 C  
HETATM   21  C   UNL     1     -10.898   7.511  69.104  1.00  0.00    -0.088 C  
ENDBRANCH   2  15
BRANCH   8  22
HETATM   22  N   UNL     1     -11.869  12.160  67.034  1.00  0.00    -0.594 NA 
HETATM   23  C   UNL     1     -12.124  14.150  66.496  1.00  0.00    -0.454 A  
HETATM   24  C   UNL     1     -11.874  12.241  65.673  1.00  0.00    -0.360 A  
HETATM   25  N   UNL     1     -12.050  13.489  65.305  1.00  0.00    -0.386 NA 
HETATM   26  N   UNL     1     -12.009  13.382  67.581  1.00  0.00    -0.344 NA 
ENDBRANCH   8  22
TORSDOF 2
ENDMDL
MODEL       22
REMARK 921   NORMALIZED FREE ENERGY PREDICTED BY IDOCK:   -5.73 KCAL/MOL
REMARK 922        TOTAL FREE ENERGY PREDICTED BY IDOCK:   -6.90 KCAL/MOL
REMARK 923 INTER-LIGAND FREE ENERGY PREDICTED BY IDOCK:   -6.25 KCAL/MOL
REMARK 924 INTRA-LIGAND FREE ENERGY PREDICTED BY IDOCK:   -0.65 KCAL/MOL
REMARK 927      BINDING AFFINITY PREDICTED BY RF-SCORE:    0.00 PKD
ROOT
HETATM    1  C   UNL     1     -11.979  14.491  67.985  1.00  0.00    -0.305 C  
HETATM    2  C   UNL     1     -11.070  13.793  66.954  1.00  0.00    -0.302 C  
HETATM    3  C   UNL     1     -10.784  12.262  67.340  1.00  0.00    -0.230 C  
HETATM    4  C   UNL     1     -10.136  10.645  63.910  1.00  0.00    -0.356 A  
HETATM    5  O   UNL     1     -12.117  11.656  67.432  1.00  0.00    -0.605 OA 
HETATM    6  C   UNL     1      -8.797  10.297  64.004  1.00  0.00    -0.221 A  
HETATM    7  C   UNL     1     -10.057  11.564  66.181  1.00  0.00    -0.266 A  
HETATM    8  C   UNL     1     -10.181  12.102  68.767  1.00  0.00    -0.116 C  
HETATM    9  C   UNL     1     -10.761  11.274  64.988  1.00  0.00    -0.322 A  
HETATM   10  C   UNL     1      -8.692  11.241  66.206  1.00  0.00    -0.184 A  
HETATM   11  F   UNL     1      -8.200   9.688  62.972  1.00  0.00    -0.126 F  
HETATM   12  H   UNL     1     -11.947  10.750  67.661  1.00  0.00     0.000 HD 
HETATM   13  F   UNL     1      -7.925  11.584  67.247  1.00  0.00    -0.125 F  
HETATM   14  C   UNL     1      -8.068  10.591  65.144  1.00  0.00    -0.112 A  
ENDROOT
BRANCH   2  15
HETATM   15  N   UNL     1      -9.938  14.599  66.445  1.00  0.00    -0.271 NA 
HETATM   16  C   UNL     1     -10.086  17.571  66.375  1.00  0.00    -0.346 C  
HETATM   17  C   UNL     1     -10.784  16.742  65.324  1.00  0.00    -0.183 C  
HETATM   18  C   UNL     1      -9.804  18.871  66.196  1.00  0.00    -0.346 C  
HETATM   19  C   UNL     1     -10.203  15.320  65.186  1.00  0.00    -0.339 C  
HETATM   20  C   UNL     1      -9.723  16.839  67.642  1.00  0.00    -0.251 C  
HETATM   21  C   UNL     1      -9.158  15.439  67.357  1.00  0.00    -0.197 C  
ENDBRANCH   2  15
BRANCH   8  22
HETATM   22  N   UNL     1     -10.218  10.745  69.292  1.00  0.00    -0.215 NA 
HETATM   23  C   UNL     1     -10.960   8.931  69.980  1.00  0.00    -0.206 A  
HETATM   24  C   UNL     1      -9.185   9.858  69.366  1.00  0.00    -0.214 A  
HETATM   25  N   UNL     1      -9.624   8.704  69.815  1.00  0.00    -0.169 NA 
HETATM   26  N   UNL     1     -11.371  10.161  69.664  1.00  0.00    -0.248 NA 
ENDBRANCH   8  22
TORSDOF 2
ENDMDL
MODEL       23
REMARK 921   NORMALIZED FREE ENERGY PREDICTED BY IDOCK:   -5.72 KCAL/MOL
REMARK 922        TOTAL FREE ENERGY PREDICTED BY IDOCK:   -6.89 KCAL/MOL
REMARK 923 INTER-LIGAND FREE ENERGY PREDICTED BY IDOCK:   -6.96 KCAL/MOL
REMARK 924 INTRA-LIGAND FREE ENERGY PREDICTED BY IDOCK:    0.07 KCAL/MOL
REMARK 927      BINDING AFFINITY PREDICTED BY RF-SCORE:    0.00 PKD
ROOT
HETATM    1  C   UNL     1     -10.197  16.303  68.898  1.00  0.00    -0.256 C  
HETATM    2  C   UNL     1     -10.400  15.444  67.635  1.00  0.00    -0.262 C  
HETATM    3  C   UNL     1     -11.272  14.130  67.931  1.00  0.00    -0.279 C  
HETATM    4  C   UNL     1     -12.897  13.422  64.516  1.00  0.00    -0.075 A  
HETATM    5  O   UNL     1     -12.531  14.648  68.481  1.00  0.00    -0.587 OA 
HETATM    6  C   UNL     1     -12.302  12.221  64.159  1.00  0.00    -0.451 A  
HETATM    7  C   UNL     1     -11.618  13.431  66.608  1.00  0.00    -0.399 A  
HETATM    8  C   UNL     1     -10.677  13.255  69.072  1.00  0.00    -0.121 C  
HETATM    9  C   UNL     1     -12.558  14.022  65.730  1.00  0.00    -0.512 A  
HETATM   10  C   UNL     1     -11.006  12.245  66.177  1.00  0.00    -0.293 A  
HETATM   11  F   UNL     1     -12.633  11.642  62.998  1.00  0.00    -0.639 F  
HETATM   12  H   UNL     1     -13.047  13.870  68.656  1.00  0.00     0.000 HD 
HETATM   13  F   UNL     1     -10.024  11.681  66.889  1.00  0.00    -0.205 F  
HETATM   14  C   UNL     1     -11.358  11.627  64.979  1.00  0.00    -0.237 A  
ENDROOT
BRANCH   2  15
HETATM   15  N   UNL     1      -9.216  15.302  66.757  1.00  0.00    -0.232 NA 
HETATM   16  C   UNL     1      -6.647  16.646  67.427  1.00  0.00    -0.199 C  
HETATM   17  C   UNL     1      -7.785  17.427  66.818  1.00  0.00    -0.273 C  
HETATM   18  C   UNL     1      -5.378  17.085  67.404  1.00  0.00    -0.161 C  
HETATM   19  C   UNL     1      -8.800  16.539  66.069  1.00  0.00    -0.232 C  
HETATM   20  C   UNL     1      -7.028  15.333  68.063  1.00  0.00    -0.144 C  
HETATM   21  C   UNL     1      -8.042  14.554  67.212  1.00  0.00    -0.196 C  
ENDBRANCH   2  15
BRANCH   8  22
HETATM   22  N   UNL     1     -11.586  12.252  69.605  1.00  0.00    -0.295 NA 
HETATM   23  C   UNL     1     -12.635  10.470  69.808  1.00  0.00     0.029 A  
HETATM   24  C   UNL     1     -12.167  12.232  70.839  1.00  0.00    -0.197 A  
HETATM   25  N   UNL     1     -12.851  11.121  70.988  1.00  0.00    -0.352 NA 
HETATM   26  N   UNL     1     -11.861  11.117  68.935  1.00  0.00    -0.393 NA 
ENDBRANCH   8  22
TORSDOF 2
ENDMDL
MODEL       24
REMARK 921   NORMALIZED FREE ENERGY PREDICTED BY IDOCK:   -5.68 KCAL/MOL
REMARK 922        TOTAL FREE ENERGY PREDICTED BY IDOCK:   -6.85 KCAL/MOL
REMARK 923 INTER-LIGAND FREE ENERGY PREDICTED BY IDOCK:   -6.66 KCAL/MOL
REMARK 924 INTRA-LIGAND FREE ENERGY PREDICTED BY IDOCK:   -0.19 KCAL/MOL
REMARK 927      BINDING AFFINITY PREDICTED BY RF-SCORE:    0.00 PKD
ROOT
HETATM    1  C   UNL     1      -7.780  10.900  68.209  1.00  0.00    -0.111 C  
HETATM    2  C   UNL     1      -8.660  11.609  67.161  1.00  0.00    -0.164 C  
HETATM    3  C   UNL     1      -9.811  12.496  67.840  1.00  0.00    -0.207 C  
HETATM    4  C   UNL     1     -10.435  15.218  65.192  1.00  0.00    -0.438 A  
HETATM    5  O   UNL     1      -9.084  13.432  68.705  1.00  0.00    -0.382 OA 
HETATM    6  C   UNL     1     -11.728  14.928  64.782  1.00  0.00    -0.402 A  
HETATM    7  C   UNL     1     -10.515  13.339  66.765  1.00  0.00    -0.270 A  
HETATM    8  C   UNL     1     -10.709  11.679  68.813  1.00  0.00    -0.219 C  
HETATM    9  C   UNL     1      -9.833  14.430  66.175  1.00  0.00    -0.340 A  
HETATM   10  C   UNL     1     -11.799  13.055  66.278  1.00  0.00    -0.408 A  
HETATM   11  F   UNL     1     -12.307  15.688  63.844  1.00  0.00    -0.411 F  
HETATM   12  H   UNL     1      -9.766  13.957  69.107  1.00  0.00     0.000 HD 
HETATM   13  F   UNL     1     -12.469  11.975  66.696  1.00  0.00    -0.047 F  
HETATM   14  C   UNL     1     -12.416  13.852  65.316  1.00  0.00    -0.504 A  
ENDROOT
BRANCH   2  15
HETATM   15  N   UNL     1      -9.021  10.802  65.973  1.00  0.00    -0.174 NA 
HETATM   16  C   UNL     1      -8.425   7.889  65.865  1.00  0.00    -0.147 C  
HETATM   17  C   UNL     1      -7.336   8.904  65.621  1.00  0.00    -0.085 C  
HETATM   18  C   UNL     1      -8.317   6.609  65.472  1.00  0.00    -0.144 C  
HETATM   19  C   UNL     1      -7.876  10.286  65.199  1.00  0.00    -0.138 C  
HETATM   20  C   UNL     1      -9.648   8.407  66.578  1.00  0.00    -0.304 C  
HETATM   21  C   UNL     1     -10.075   9.789  66.058  1.00  0.00    -0.251 C  
ENDBRANCH   2  15
BRANCH   8  22
HETATM   22  N   UNL     1     -11.537  12.485  69.698  1.00  0.00    -0.277 NA 
HETATM   23  C   UNL     1     -12.598  14.104  70.450  1.00  0.00    -0.332 A  
HETATM   24  C   UNL     1     -12.309  12.050  70.735  1.00  0.00    -0.308 A  
HETATM   25  N   UNL     1     -12.980  13.059  71.240  1.00  0.00    -0.293 NA 
HETATM   26  N   UNL     1     -11.725  13.801  69.488  1.00  0.00    -0.303 NA 
ENDBRANCH   8  22
TORSDOF 2
ENDMDL
MODEL       25
REMARK 921   NORMALIZED FREE ENERGY PREDICTED BY IDOCK:   -5.65 KCAL/MOL
REMARK 922        TOTAL FREE ENERGY PREDICTED BY IDOCK:   -6.81 KCAL/MOL
REMARK 923 INTER-LIGAND FREE ENERGY PREDICTED BY IDOCK:   -6.17 KCAL/MOL
REMARK 924 INTRA-LIGAND FREE ENERGY PREDICTED BY IDOCK:   -0.65 KCAL/MOL
REMARK 927      BINDING AFFINITY PREDICTED BY RF-SCORE:    0.00 PKD
ROOT
HETATM    1  C   UNL     1      -8.425  11.732  68.369  1.00  0.00    -0.155 C  
HETATM    2  C   UNL     1      -9.543  10.792  68.860  1.00  0.00    -0.195 C  
HETATM    3  C   UNL     1      -8.959   9.467  69.550  1.00  0.00    -0.164 C  
HETATM    4  C   UNL     1     -11.766   8.497  71.997  1.00  0.00    -0.431 A  
HETATM    5  O   UNL     1      -8.113   9.969  70.639  1.00  0.00    -0.411 OA 
HETATM    6  C   UNL     1     -12.214   7.299  71.459  1.00  0.00    -0.352 A  
HETATM    7  C   UNL     1     -10.103   8.677  70.204  1.00  0.00    -0.196 A  
HETATM    8  C   UNL     1      -7.983   8.683  68.626  1.00  0.00    -0.115 C  
HETATM    9  C   UNL     1     -10.720   9.180  71.375  1.00  0.00    -0.414 A  
HETATM   10  C   UNL     1     -10.628   7.491  69.671  1.00  0.00    -0.239 A  
HETATM   11  F   UNL     1     -13.213   6.640  72.060  1.00  0.00    -0.359 F  
HETATM   12  H   UNL     1      -7.767   9.185  71.048  1.00  0.00     0.000 HD 
HETATM   13  F   UNL     1     -10.183   7.007  68.505  1.00  0.00    -0.151 F  
HETATM   14  C   UNL     1     -11.655   6.790  70.300  1.00  0.00    -0.417 A  
ENDROOT
BRANCH   2  15
HETATM   15  N   UNL     1     -10.702  10.642  67.951  1.00  0.00    -0.227 NA 
HETATM   16  C   UNL     1     -11.676  12.935  66.323  1.00  0.00    -0.457 C  
HETATM   17  C   UNL     1     -12.017  12.835  67.789  1.00  0.00    -0.316 C  
HETATM   18  C   UNL     1     -12.369  13.710  65.473  1.00  0.00    -0.519 C  
HETATM   19  C   UNL     1     -11.905  11.400  68.344  1.00  0.00    -0.274 C  
HETATM   20  C   UNL     1     -10.503  12.102  65.871  1.00  0.00    -0.288 C  
HETATM   21  C   UNL     1     -10.517  10.700  66.499  1.00  0.00    -0.224 C  
ENDBRANCH   2  15
BRANCH   8  22
HETATM   22  N   UNL     1      -7.175   7.681  69.304  1.00  0.00    -0.080 NA 
HETATM   23  C   UNL     1      -5.863   6.815  70.662  1.00  0.00    -0.027 A  
HETATM   24  C   UNL     1      -7.265   6.326  69.186  1.00  0.00    -0.087 A  
HETATM   25  N   UNL     1      -6.432   5.752  70.023  1.00  0.00    -0.037 NA 
HETATM   26  N   UNL     1      -6.292   8.014  70.263  1.00  0.00    -0.036 NA 
ENDBRANCH   8  22
TORSDOF 2
ENDMDL
MODEL       26
REMARK 921   NORMALIZED FREE ENERGY PREDICTED BY IDOCK:   -5.54 KCAL/MOL
REMARK 922        TOTAL FREE ENERGY PREDICTED BY IDOCK:   -6.69 KCAL/MOL
REMARK 923 INTER-LIGAND FREE ENERGY PREDICTED BY IDOCK:   -6.06 KCAL/MOL
REMARK 924 INTRA-LIGAND FREE ENERGY PREDICTED BY IDOCK:   -0.64 KCAL/MOL
REMARK 927      BINDING AFFINITY PREDICTED BY RF-SCORE:    0.00 PKD
ROOT
HETATM    1  C   UNL     1     -11.968  11.101  69.550  1.00  0.00    -0.425 C  
HETATM    2  C   UNL     1     -11.160   9.986  68.857  1.00  0.00    -0.176 C  
HETATM    3  C   UNL     1     -10.777   8.801  69.868  1.00  0.00    -0.223 C  
HETATM    4  C   UNL     1     -10.475   5.768  67.519  1.00  0.00    -0.310 A  
HETATM    5  O   UNL     1     -12.068   8.335  70.387  1.00  0.00    -0.482 OA 
HETATM    6  C   UNL     1      -9.122   5.473  67.603  1.00  0.00    -0.107 A  
HETATM    7  C   UNL     1     -10.165   7.630  69.083  1.00  0.00    -0.204 A  
HETATM    8  C   UNL     1     -10.008   9.303  71.124  1.00  0.00    -0.286 C  
HETATM    9  C   UNL     1     -10.992   6.838  68.252  1.00  0.00    -0.270 A  
HETATM   10  C   UNL     1      -8.796   7.325  69.092  1.00  0.00    -0.136 A  
HETATM   11  F   UNL     1      -8.627   4.444  66.905  1.00  0.00    -0.105 F  
HETATM   12  H   UNL     1     -11.841   7.634  70.985  1.00  0.00     0.000 HD 
HETATM   13  F   UNL     1      -7.926   8.093  69.758  1.00  0.00    -0.100 F  
HETATM   14  C   UNL     1      -8.277   6.244  68.383  1.00  0.00    -0.116 A  
ENDROOT
BRANCH   2  15
HETATM   15  N   UNL     1     -10.124  10.441  67.903  1.00  0.00    -0.166 NA 
HETATM   16  C   UNL     1     -10.377  13.054  66.501  1.00  0.00    -0.278 C  
HETATM   17  C   UNL     1     -11.167  11.854  66.038  1.00  0.00    -0.377 C  
HETATM   18  C   UNL     1     -10.161  14.121  65.715  1.00  0.00    -0.352 C  
HETATM   19  C   UNL     1     -10.561  10.513  66.496  1.00  0.00    -0.174 C  
HETATM   20  C   UNL     1      -9.841  12.974  67.908  1.00  0.00    -0.224 C  
HETATM   21  C   UNL     1      -9.269  11.585  68.228  1.00  0.00    -0.186 C  
ENDBRANCH   2  15
BRANCH   8  22
HETATM   22  N   UNL     1      -9.935   8.344  72.216  1.00  0.00    -0.291 NA 
HETATM   23  C   UNL     1     -10.528   6.992  73.678  1.00  0.00    -0.376 A  
HETATM   24  C   UNL     1      -8.830   7.685  72.667  1.00  0.00    -0.149 A  
HETATM   25  N   UNL     1      -9.174   6.834  73.606  1.00  0.00    -0.145 NA 
HETATM   26  N   UNL     1     -11.040   7.897  72.841  1.00  0.00    -0.402 NA 
ENDBRANCH   8  22
TORSDOF 2
ENDMDL
MODEL       27
REMARK 921   NORMALIZED FREE ENERGY PREDICTED BY IDOCK:   -5.46 KCAL/MOL
REMARK 922        TOTAL FREE ENERGY PREDICTED BY IDOCK:   -6.60 KCAL/MOL
REMARK 923 INTER-LIGAND FREE ENERGY PREDICTED BY IDOCK:   -6.21 KCAL/MOL
REMARK 924 INTRA-LIGAND FREE ENERGY PREDICTED BY IDOCK:   -0.40 KCAL/MOL
REMARK 927      BINDING AFFINITY PREDICTED BY RF-SCORE:    0.00 PKD
ROOT
HETATM    1  C   UNL     1     -10.289   7.930  67.921  1.00  0.00    -0.281 C  
HETATM    2  C   UNL     1     -10.435   9.459  67.794  1.00  0.00    -0.254 C  
HETATM    3  C   UNL     1      -9.594  10.046  66.560  1.00  0.00    -0.187 C  
HETATM    4  C   UNL     1     -11.570  13.217  65.640  1.00  0.00    -0.371 A  
HETATM    5  O   UNL     1     -10.112   9.322  65.393  1.00  0.00    -0.379 OA 
HETATM    6  C   UNL     1     -10.667  14.220  65.960  1.00  0.00    -0.304 A  
HETATM    7  C   UNL     1      -9.943  11.528  66.356  1.00  0.00    -0.241 A  
HETATM    8  C   UNL     1      -8.086   9.664  66.621  1.00  0.00    -0.119 C  
HETATM    9  C   UNL     1     -11.211  11.882  65.837  1.00  0.00    -0.373 A  
HETATM   10  C   UNL     1      -9.088  12.580  66.713  1.00  0.00    -0.214 A  
HETATM   11  F   UNL     1     -11.008  15.500  65.765  1.00  0.00    -0.320 F  
HETATM   12  H   UNL     1      -9.614   9.669  64.663  1.00  0.00     0.000 HD 
HETATM   13  F   UNL     1      -7.918  12.339  67.317  1.00  0.00    -0.144 F  
HETATM   14  C   UNL     1      -9.428  13.914  66.496  1.00  0.00    -0.288 A  
ENDROOT
BRANCH   2  15
HETATM   15  N   UNL     1     -10.409  10.214  69.067  1.00  0.00    -0.199 NA 
HETATM   16  C   UNL     1     -12.431   9.703  71.190  1.00  0.00    -0.421 C  
HETATM   17  C   UNL     1     -12.783  10.533  69.980  1.00  0.00    -0.125 C  
HETATM   18  C   UNL     1     -13.147   9.746  72.326  1.00  0.00    -0.445 C  
HETATM   19  C   UNL     1     -11.549  11.129  69.272  1.00  0.00    -0.318 C  
HETATM   20  C   UNL     1     -11.217   8.821  71.043  1.00  0.00    -0.329 C  
HETATM   21  C   UNL     1     -10.067   9.541  70.322  1.00  0.00    -0.262 C  
ENDBRANCH   2  15
BRANCH   8  22
HETATM   22  N   UNL     1      -7.357   9.875  65.380  1.00  0.00    -0.122 NA 
HETATM   23  C   UNL     1      -6.954  10.036  63.348  1.00  0.00    -0.131 A  
HETATM   24  C   UNL     1      -6.127  10.444  65.228  1.00  0.00    -0.130 A  
HETATM   25  N   UNL     1      -5.840  10.543  63.950  1.00  0.00    -0.115 NA 
HETATM   26  N   UNL     1      -7.912   9.623  64.180  1.00  0.00    -0.134 NA 
ENDBRANCH   8  22
TORSDOF 2
ENDMDL
MODEL       28
REMARK 921   NORMALIZED FREE ENERGY PREDICTED BY IDOCK:   -5.46 KCAL/MOL
REMARK 922        TOTAL FREE ENERGY PREDICTED BY IDOCK:   -6.60 KCAL/MOL
REMARK 923 INTER-LIGAND FREE ENERGY PREDICTED BY IDOCK:   -5.94 KCAL/MOL
REMARK 924 INTRA-LIGAND FREE ENERGY PREDICTED BY IDOCK:   -0.66 KCAL/MOL
REMARK 927      BINDING AFFINITY PREDICTED BY RF-SCORE:    0.00 PKD
ROOT
HETATM    1  C   UNL     1     -12.149  13.491  68.808  1.00  0.00    -0.305 C  
HETATM    2  C   UNL     1     -11.113  12.498  68.246  1.00  0.00    -0.257 C  
HETATM    3  C   UNL     1     -11.209  11.060  68.951  1.00  0.00    -0.265 C  
HETATM    4  C   UNL     1      -9.883   8.701  66.216  1.00  0.00    -0.320 A  
HETATM    5  O   UNL     1     -12.594  10.635  68.719  1.00  0.00    -0.733 OA 
HETATM    6  C   UNL     1      -8.705   8.237  66.783  1.00  0.00    -0.133 A  
HETATM    7  C   UNL     1     -10.307  10.061  68.211  1.00  0.00    -0.224 A  
HETATM    8  C   UNL     1     -11.077  11.137  70.500  1.00  0.00     0.429 C  
HETATM    9  C   UNL     1     -10.677   9.605  66.924  1.00  0.00    -0.185 A  
HETATM   10  C   UNL     1      -9.081   9.603  68.718  1.00  0.00    -0.134 A  
HETATM   11  F   UNL     1      -7.947   7.365  66.107  1.00  0.00    -0.096 F  
HETATM   12  H   UNL     1     -12.651   9.784  69.136  1.00  0.00     0.000 HD 
HETATM   13  F   UNL     1      -8.599  10.071  69.875  1.00  0.00    -0.176 F  
HETATM   14  C   UNL     1      -8.296   8.682  68.029  1.00  0.00    -0.123 A  
ENDROOT
BRANCH   2  15
HETATM   15  N   UNL     1      -9.763  13.052  67.993  1.00  0.00    -0.219 NA 
HETATM   16  C   UNL     1      -9.421  15.708  66.694  1.00  0.00    -0.282 C  
HETATM   17  C   UNL     1      -9.759  14.490  65.871  1.00  0.00    -0.324 C  
HETATM   18  C   UNL     1      -8.898  16.821  66.154  1.00  0.00    -0.298 C  
HETATM   19  C   UNL     1      -9.393  13.164  66.569  1.00  0.00    -0.216 C  
HETATM   20  C   UNL     1      -9.707  15.594  68.171  1.00  0.00    -0.204 C  
HETATM   21  C   UNL     1      -9.294  14.226  68.733  1.00  0.00    -0.119 C  
ENDBRANCH   2  15
BRANCH   8  22
HETATM   22  N   UNL     1     -11.489   9.932  71.205  1.00  0.00    -0.375 NA 
HETATM   23  C   UNL     1     -12.688   8.389  71.909  1.00  0.00    -0.355 A  
HETATM   24  C   UNL     1     -10.685   8.980  71.758  1.00  0.00    -0.367 A  
HETATM   25  N   UNL     1     -11.420   7.998  72.227  1.00  0.00    -0.333 NA 
HETATM   26  N   UNL     1     -12.780   9.560  71.276  1.00  0.00    -0.330 NA 
ENDBRANCH   8  22
TORSDOF 2
ENDMDL
MODEL       29
REMARK 921   NORMALIZED FREE ENERGY PREDICTED BY IDOCK:   -5.36 KCAL/MOL
REMARK 922        TOTAL FREE ENERGY PREDICTED BY IDOCK:   -6.49 KCAL/MOL
REMARK 923 INTER-LIGAND FREE ENERGY PREDICTED BY IDOCK:   -6.12 KCAL/MOL
REMARK 924 INTRA-LIGAND FREE ENERGY PREDICTED BY IDOCK:   -0.37 KCAL/MOL
REMARK 927      BINDING AFFINITY PREDICTED BY RF-SCORE:    0.00 PKD
ROOT
HETATM    1  C   UNL     1      -6.934  13.580  67.126  1.00  0.00     0.275 C  
HETATM    2  C   UNL     1      -8.029  13.272  68.166  1.00  0.00    -0.150 C  
HETATM    3  C   UNL     1      -9.388  12.766  67.481  1.00  0.00    -0.189 C  
HETATM    4  C   UNL     1     -10.951  10.590  70.242  1.00  0.00    -0.306 A  
HETATM    5  O   UNL     1      -8.985  11.586  66.707  1.00  0.00    -0.169 OA 
HETATM    6  C   UNL     1     -12.088  11.315  70.570  1.00  0.00    -0.387 A  
HETATM    7  C   UNL     1     -10.362  12.277  68.564  1.00  0.00    -0.234 A  
HETATM    8  C   UNL     1      -9.937  13.762  66.418  1.00  0.00    -0.297 C  
HETATM    9  C   UNL     1     -10.095  11.067  69.248  1.00  0.00    -0.121 A  
HETATM   10  C   UNL     1     -11.494  12.998  68.969  1.00  0.00    -0.303 A  
HETATM   11  F   UNL     1     -12.913  10.853  71.519  1.00  0.00    -0.443 F  
HETATM   12  H   UNL     1      -9.790  11.286  66.302  1.00  0.00     0.000 HD 
HETATM   13  F   UNL     1     -11.757  14.206  68.457  1.00  0.00    -0.297 F  
HETATM   14  C   UNL     1     -12.367  12.517  69.942  1.00  0.00    -0.119 A  
ENDROOT
BRANCH   2  15
HETATM   15  N   UNL     1      -8.138  14.234  69.287  1.00  0.00     0.077 NA 
HETATM   16  C   UNL     1      -6.816  16.897  69.152  1.00  0.00    -0.238 C  
HETATM   17  C   UNL     1      -6.016  15.658  69.469  1.00  0.00    -0.130 C  
HETATM   18  C   UNL     1      -6.375  18.132  69.437  1.00  0.00    -0.249 C  
HETATM   19  C   UNL     1      -6.878  14.498  70.007  1.00  0.00    -0.070 C  
HETATM   20  C   UNL     1      -8.151  16.656  68.493  1.00  0.00    -0.226 C  
HETATM   21  C   UNL     1      -8.901  15.474  69.127  1.00  0.00    -0.253 C  
ENDBRANCH   2  15
BRANCH   8  22
HETATM   22  N   UNL     1     -10.958  13.211  65.540  1.00  0.00    -0.276 NA 
HETATM   23  C   UNL     1     -11.861  12.043  64.079  1.00  0.00    -0.408 A  
HETATM   24  C   UNL     1     -12.310  13.355  65.648  1.00  0.00    -0.470 A  
HETATM   25  N   UNL     1     -12.906  12.639  64.723  1.00  0.00    -0.830 NA 
HETATM   26  N   UNL     1     -10.651  12.355  64.548  1.00  0.00    -0.303 NA 
ENDBRANCH   8  22
TORSDOF 2
ENDMDL
MODEL       30
REMARK 921   NORMALIZED FREE ENERGY PREDICTED BY IDOCK:   -5.27 KCAL/MOL
REMARK 922        TOTAL FREE ENERGY PREDICTED BY IDOCK:   -6.39 KCAL/MOL
REMARK 923 INTER-LIGAND FREE ENERGY PREDICTED BY IDOCK:   -5.89 KCAL/MOL
REMARK 924 INTRA-LIGAND FREE ENERGY PREDICTED BY IDOCK:   -0.51 KCAL/MOL
REMARK 927      BINDING AFFINITY PREDICTED BY RF-SCORE:    0.00 PKD
ROOT
HETATM    1  C   UNL     1     -10.386   8.816  68.074  1.00  0.00    -0.273 C  
HETATM    2  C   UNL     1     -10.267  10.181  68.780  1.00  0.00    -0.186 C  
HETATM    3  C   UNL     1     -10.880  11.372  67.898  1.00  0.00    -0.225 C  
HETATM    4  C   UNL     1     -11.932  13.930  70.573  1.00  0.00    -0.384 A  
HETATM    5  O   UNL     1     -12.271  10.969  67.662  1.00  0.00    -0.360 OA 
HETATM    6  C   UNL     1     -11.069  14.985  70.317  1.00  0.00    -0.229 A  
HETATM    7  C   UNL     1     -10.926  12.662  68.733  1.00  0.00    -0.289 A  
HETATM    8  C   UNL     1     -10.251  11.459  66.477  1.00  0.00    -0.221 C  
HETATM    9  C   UNL     1     -11.861  12.778  69.788  1.00  0.00    -0.380 A  
HETATM   10  C   UNL     1     -10.040  13.734  68.549  1.00  0.00    -0.225 A  
HETATM   11  F   UNL     1     -11.142  16.093  71.066  1.00  0.00    -0.337 F  
HETATM   12  H   UNL     1     -12.634  11.675  67.141  1.00  0.00     0.000 HD 
HETATM   13  F   UNL     1      -9.050  13.660  67.652  1.00  0.00    -0.176 F  
HETATM   14  C   UNL     1     -10.121  14.897  69.312  1.00  0.00    -0.201 A  
ENDROOT
BRANCH   2  15
HETATM   15  N   UNL     1      -8.988  10.431  69.483  1.00  0.00    -0.154 NA 
HETATM   16  C   UNL     1      -6.679   8.580  69.162  1.00  0.00    -0.047 C  
HETATM   17  C   UNL     1      -7.830   8.221  70.070  1.00  0.00    -0.104 C  
HETATM   18  C   UNL     1      -5.476   7.992  69.258  1.00  0.00    -0.030 C  
HETATM   19  C   UNL     1      -8.648   9.446  70.528  1.00  0.00    -0.223 C  
HETATM   20  C   UNL     1      -6.969   9.649  68.138  1.00  0.00    -0.077 C  
HETATM   21  C   UNL     1      -7.789  10.805  68.729  1.00  0.00    -0.129 C  
ENDBRANCH   2  15
BRANCH   8  22
HETATM   22  N   UNL     1     -10.990  12.284  65.535  1.00  0.00    -0.289 NA 
HETATM   23  C   UNL     1     -12.525  12.961  64.309  1.00  0.00    -0.349 A  
HETATM   24  C   UNL     1     -10.697  13.555  65.138  1.00  0.00    -0.341 A  
HETATM   25  N   UNL     1     -11.645  14.002  64.348  1.00  0.00    -0.384 NA 
HETATM   26  N   UNL     1     -12.173  11.892  65.026  1.00  0.00    -0.272 NA 
ENDBRANCH   8  22
TORSDOF 2
ENDMDL
MODEL       31
REMARK 921   NORMALIZED FREE ENERGY PREDICTED BY IDOCK:   -5.22 KCAL/MOL
REMARK 922        TOTAL FREE ENERGY PREDICTED BY IDOCK:   -6.33 KCAL/MOL
REMARK 923 INTER-LIGAND FREE ENERGY PREDICTED BY IDOCK:   -6.39 KCAL/MOL
REMARK 924 INTRA-LIGAND FREE ENERGY PREDICTED BY IDOCK:    0.06 KCAL/MOL
REMARK 927      BINDING AFFINITY PREDICTED BY RF-SCORE:    0.00 PKD
ROOT
HETATM    1  C   UNL     1      -7.432  13.530  67.543  1.00  0.00    -0.177 C  
HETATM    2  C   UNL     1      -8.544  13.992  68.506  1.00  0.00    -0.147 C  
HETATM    3  C   UNL     1      -9.992  13.962  67.815  1.00  0.00    -0.241 C  
HETATM    4  C   UNL     1     -12.335  13.433  70.820  1.00  0.00    -0.433 A  
HETATM    5  O   UNL     1     -10.155  12.571  67.377  1.00  0.00    -0.207 OA 
HETATM    6  C   UNL     1     -13.035  14.631  70.854  1.00  0.00    -0.365 A  
HETATM    7  C   UNL     1     -11.074  14.225  68.873  1.00  0.00    -0.283 A  
HETATM    8  C   UNL     1     -10.053  14.796  66.502  1.00  0.00    -0.273 C  
HETATM    9  C   UNL     1     -11.363  13.232  69.839  1.00  0.00    -0.067 A  
HETATM   10  C   UNL     1     -11.770  15.438  68.982  1.00  0.00    -0.361 A  
HETATM   11  F   UNL     1     -13.972  14.821  71.791  1.00  0.00    -0.392 F  
HETATM   12  H   UNL     1     -11.012  12.553  66.969  1.00  0.00     0.000 HD 
HETATM   13  F   UNL     1     -11.478  16.471  68.184  1.00  0.00    -0.338 F  
HETATM   14  C   UNL     1     -12.760  15.637  69.943  1.00  0.00     0.006 A  
ENDROOT
BRANCH   2  15
HETATM   15  N   UNL     1      -8.212  15.155  69.360  1.00  0.00    -0.217 NA 
HETATM   16  C   UNL     1      -6.017  17.022  68.616  1.00  0.00    -0.148 C  
HETATM   17  C   UNL     1      -5.707  15.682  69.237  1.00  0.00    -0.109 C  
HETATM   18  C   UNL     1      -5.133  18.033  68.604  1.00  0.00    -0.151 C  
HETATM   19  C   UNL     1      -6.894  15.086  70.020  1.00  0.00    -0.126 C  
HETATM   20  C   UNL     1      -7.391  17.154  68.008  1.00  0.00    -0.191 C  
HETATM   21  C   UNL     1      -8.474  16.518  68.892  1.00  0.00    -0.235 C  
ENDBRANCH   2  15
BRANCH   8  22
HETATM   22  N   UNL     1     -11.218  14.534  65.670  1.00  0.00    -0.327 NA 
HETATM   23  C   UNL     1     -13.036  13.755  65.036  1.00  0.00    -0.162 A  
HETATM   24  C   UNL     1     -11.631  15.239  64.579  1.00  0.00    -0.312 A  
HETATM   25  N   UNL     1     -12.773  14.756  64.147  1.00  0.00    -0.715 NA 
HETATM   26  N   UNL     1     -12.119  13.588  65.991  1.00  0.00    -0.421 NA 
ENDBRANCH   8  22
TORSDOF 2
ENDMDL
MODEL       32
REMARK 921   NORMALIZED FREE ENERGY PREDICTED BY IDOCK:   -5.20 KCAL/MOL
REMARK 922        TOTAL FREE ENERGY PREDICTED BY IDOCK:   -6.32 KCAL/MOL
REMARK 923 INTER-LIGAND FREE ENERGY PREDICTED BY IDOCK:   -5.82 KCAL/MOL
REMARK 924 INTRA-LIGAND FREE ENERGY PREDICTED BY IDOCK:   -0.49 KCAL/MOL
REMARK 927      BINDING AFFINITY PREDICTED BY RF-SCORE:    0.00 PKD
ROOT
HETATM    1  C   UNL     1      -9.986   7.685  67.823  1.00  0.00    -0.219 C  
HETATM    2  C   UNL     1     -10.158   9.217  67.790  1.00  0.00    -0.203 C  
HETATM    3  C   UNL     1      -9.427   9.880  66.525  1.00  0.00    -0.181 C  
HETATM    4  C   UNL     1     -11.506  13.064  65.940  1.00  0.00    -0.374 A  
HETATM    5  O   UNL     1     -10.031   9.211  65.367  1.00  0.00    -0.428 OA 
HETATM    6  C   UNL     1     -10.591  14.064  66.238  1.00  0.00    -0.281 A  
HETATM    7  C   UNL     1      -9.808  11.365  66.429  1.00  0.00    -0.242 A  
HETATM    8  C   UNL     1      -7.916   9.519  66.442  1.00  0.00    -0.111 C  
HETATM    9  C   UNL     1     -11.118  11.727  66.035  1.00  0.00    -0.363 A  
HETATM   10  C   UNL     1      -8.937  12.410  66.771  1.00  0.00    -0.205 A  
HETATM   11  F   UNL     1     -10.961  15.347  66.141  1.00  0.00    -0.317 F  
HETATM   12  H   UNL     1      -9.599   9.604  64.618  1.00  0.00     0.000 HD 
HETATM   13  F   UNL     1      -7.720  12.156  67.264  1.00  0.00    -0.135 F  
HETATM   14  C   UNL     1      -9.309  13.748  66.655  1.00  0.00    -0.277 A  
ENDROOT
BRANCH   2  15
HETATM   15  N   UNL     1     -10.036   9.904  69.096  1.00  0.00    -0.187 NA 
HETATM   16  C   UNL     1     -10.299   8.398  71.649  1.00  0.00    -0.312 C  
HETATM   17  C   UNL     1     -11.523   8.781  70.854  1.00  0.00    -0.330 C  
HETATM   18  C   UNL     1     -10.359   8.065  72.948  1.00  0.00    -0.397 C  
HETATM   19  C   UNL     1     -11.278   9.959  69.889  1.00  0.00    -0.250 C  
HETATM   20  C   UNL     1      -8.998   8.417  70.886  1.00  0.00    -0.188 C  
HETATM   21  C   UNL     1      -8.888   9.643  69.967  1.00  0.00    -0.232 C  
ENDBRANCH   2  15
BRANCH   8  22
HETATM   22  N   UNL     1      -7.293   9.805  65.159  1.00  0.00    -0.116 NA 
HETATM   23  C   UNL     1      -7.057  10.068  63.111  1.00  0.00    -0.130 A  
HETATM   24  C   UNL     1      -6.093  10.415  64.938  1.00  0.00    -0.108 A  
HETATM   25  N   UNL     1      -5.911  10.579  63.648  1.00  0.00    -0.106 NA 
HETATM   26  N   UNL     1      -7.936   9.592  63.996  1.00  0.00    -0.132 NA 
ENDBRANCH   8  22
TORSDOF 2
ENDMDL
MODEL       33
REMARK 921   NORMALIZED FREE ENERGY PREDICTED BY IDOCK:   -5.19 KCAL/MOL
REMARK 922        TOTAL FREE ENERGY PREDICTED BY IDOCK:   -6.29 KCAL/MOL
REMARK 923 INTER-LIGAND FREE ENERGY PREDICTED BY IDOCK:   -6.09 KCAL/MOL
REMARK 924 INTRA-LIGAND FREE ENERGY PREDICTED BY IDOCK:   -0.20 KCAL/MOL
REMARK 927      BINDING AFFINITY PREDICTED BY RF-SCORE:    0.00 PKD
ROOT
HETATM    1  C   UNL     1     -11.221   9.462  71.487  1.00  0.00    -0.457 C  
HETATM    2  C   UNL     1     -10.360   8.802  70.391  1.00  0.00    -0.199 C  
HETATM    3  C   UNL     1     -10.255   9.713  69.075  1.00  0.00    -0.199 C  
HETATM    4  C   UNL     1      -6.876   8.632  67.584  1.00  0.00    -0.071 A  
HETATM    5  O   UNL     1      -9.695  10.981  69.557  1.00  0.00    -0.428 OA 
HETATM    6  C   UNL     1      -7.267   8.018  66.403  1.00  0.00    -0.079 A  
HETATM    7  C   UNL     1      -9.223   9.109  68.110  1.00  0.00    -0.137 A  
HETATM    8  C   UNL     1     -11.646  10.096  68.492  1.00  0.00     0.087 C  
HETATM    9  C   UNL     1      -7.846   9.173  68.431  1.00  0.00    -0.102 A  
HETATM   10  C   UNL     1      -9.569   8.432  66.932  1.00  0.00    -0.202 A  
HETATM   11  F   UNL     1      -6.337   7.506  65.588  1.00  0.00    -0.039 F  
HETATM   12  H   UNL     1      -9.632  11.520  68.778  1.00  0.00     0.000 HD 
HETATM   13  F   UNL     1     -10.852   8.224  66.612  1.00  0.00    -0.344 F  
HETATM   14  C   UNL     1      -8.606   7.912  66.070  1.00  0.00    -0.166 A  
ENDROOT
BRANCH   2  15
HETATM   15  N   UNL     1     -10.560   7.346  70.208  1.00  0.00    -0.226 NA 
HETATM   16  C   UNL     1     -10.820   5.530  72.552  1.00  0.00    -0.302 C  
HETATM   17  C   UNL     1      -9.465   6.034  72.118  1.00  0.00    -0.158 C  
HETATM   18  C   UNL     1     -10.970   4.450  73.334  1.00  0.00    -0.375 C  
HETATM   19  C   UNL     1      -9.432   6.502  70.649  1.00  0.00    -0.166 C  
HETATM   20  C   UNL     1     -12.000   6.321  72.045  1.00  0.00    -0.353 C  
HETATM   21  C   UNL     1     -11.834   6.721  70.570  1.00  0.00    -0.362 C  
ENDBRANCH   2  15
BRANCH   8  22
HETATM   22  N   UNL     1     -11.620  11.178  67.520  1.00  0.00    -0.561 NA 
HETATM   23  C   UNL     1     -11.742  13.088  66.712  1.00  0.00    -0.382 A  
HETATM   24  C   UNL     1     -11.102  11.147  66.258  1.00  0.00    -0.111 A  
HETATM   25  N   UNL     1     -11.182  12.340  65.718  1.00  0.00    -0.323 NA 
HETATM   26  N   UNL     1     -12.019  12.424  67.836  1.00  0.00    -0.440 NA 
ENDBRANCH   8  22
TORSDOF 2
ENDMDL
MODEL       34
REMARK 921   NORMALIZED FREE ENERGY PREDICTED BY IDOCK:   -5.13 KCAL/MOL
REMARK 922        TOTAL FREE ENERGY PREDICTED BY IDOCK:   -6.23 KCAL/MOL
REMARK 923 INTER-LIGAND FREE ENERGY PREDICTED BY IDOCK:   -5.61 KCAL/MOL
REMARK 924 INTRA-LIGAND FREE ENERGY PREDICTED BY IDOCK:   -0.63 KCAL/MOL
REMARK 927      BINDING AFFINITY PREDICTED BY RF-SCORE:    0.00 PKD
ROOT
HETATM    1  C   UNL     1     -10.464   7.078  69.063  1.00  0.00    -0.219 C  
HETATM    2  C   UNL     1     -10.486   8.616  69.165  1.00  0.00    -0.211 C  
HETATM    3  C   UNL     1      -9.944   9.318  67.828  1.00  0.00    -0.190 C  
HETATM    4  C   UNL     1     -11.768  12.705  67.870  1.00  0.00    -0.412 A  
HETATM    5  O   UNL     1     -10.819   8.801  66.769  1.00  0.00    -0.188 OA 
HETATM    6  C   UNL     1     -10.719  13.595  68.048  1.00  0.00    -0.247 A  
HETATM    7  C   UNL     1     -10.187  10.833  67.906  1.00  0.00    -0.203 A  
HETATM    8  C   UNL     1      -8.519   8.838  67.428  1.00  0.00    -0.116 C  
HETATM    9  C   UNL     1     -11.505  11.336  67.799  1.00  0.00    -0.350 A  
HETATM   10  C   UNL     1      -9.167  11.768  68.139  1.00  0.00    -0.186 A  
HETATM   11  F   UNL     1     -10.971  14.908  68.109  1.00  0.00    -0.245 F  
HETATM   12  H   UNL     1     -10.499   9.217  65.977  1.00  0.00     0.000 HD 
HETATM   13  F   UNL     1      -7.910  11.371  68.367  1.00  0.00    -0.105 F  
HETATM   14  C   UNL     1      -9.419  13.138  68.185  1.00  0.00    -0.222 A  
ENDROOT
BRANCH   2  15
HETATM   15  N   UNL     1     -10.052   9.180  70.464  1.00  0.00    -0.216 NA 
HETATM   16  C   UNL     1     -10.060   7.517  72.932  1.00  0.00    -0.315 C  
HETATM   17  C   UNL     1     -11.344   8.101  72.396  1.00  0.00    -0.456 C  
HETATM   18  C   UNL     1      -9.936   7.091  74.199  1.00  0.00    -0.305 C  
HETATM   19  C   UNL     1     -11.121   9.315  71.472  1.00  0.00    -0.373 C  
HETATM   20  C   UNL     1      -8.919   7.446  71.948  1.00  0.00    -0.140 C  
HETATM   21  C   UNL     1      -8.814   8.719  71.095  1.00  0.00    -0.219 C  
ENDBRANCH   2  15
BRANCH   8  22
HETATM   22  N   UNL     1      -8.123   9.176  66.069  1.00  0.00    -0.109 NA 
HETATM   23  C   UNL     1      -8.128   9.268  63.994  1.00  0.00    -0.150 A  
HETATM   24  C   UNL     1      -7.241  10.140  65.679  1.00  0.00    -0.137 A  
HETATM   25  N   UNL     1      -7.212  10.208  64.368  1.00  0.00    -0.135 NA 
HETATM   26  N   UNL     1      -8.718   8.618  64.999  1.00  0.00    -0.158 NA 
ENDBRANCH   8  22
TORSDOF 2
ENDMDL
MODEL       35
REMARK 921   NORMALIZED FREE ENERGY PREDICTED BY IDOCK:   -5.12 KCAL/MOL
REMARK 922        TOTAL FREE ENERGY PREDICTED BY IDOCK:   -6.22 KCAL/MOL
REMARK 923 INTER-LIGAND FREE ENERGY PREDICTED BY IDOCK:   -6.81 KCAL/MOL
REMARK 924 INTRA-LIGAND FREE ENERGY PREDICTED BY IDOCK:    0.59 KCAL/MOL
REMARK 927      BINDING AFFINITY PREDICTED BY RF-SCORE:    0.00 PKD
ROOT
HETATM    1  C   UNL     1     -11.200  14.783  65.683  1.00  0.00    -0.343 C  
HETATM    2  C   UNL     1     -11.439  13.595  66.635  1.00  0.00    -0.343 C  
HETATM    3  C   UNL     1     -10.394  13.576  67.852  1.00  0.00    -0.249 C  
HETATM    4  C   UNL     1     -12.368  11.766  70.615  1.00  0.00    -0.421 A  
HETATM    5  O   UNL     1     -10.576  14.879  68.504  1.00  0.00    -0.234 OA 
HETATM    6  C   UNL     1     -11.646  10.591  70.761  1.00  0.00    -0.338 A  
HETATM    7  C   UNL     1     -10.810  12.506  68.873  1.00  0.00    -0.238 A  
HETATM    8  C   UNL     1      -8.912  13.579  67.378  1.00  0.00    -0.219 C  
HETATM    9  C   UNL     1     -11.954  12.716  69.679  1.00  0.00    -0.352 A  
HETATM   10  C   UNL     1     -10.146  11.280  69.021  1.00  0.00    -0.128 A  
HETATM   11  F   UNL     1     -12.040   9.683  71.663  1.00  0.00    -0.390 F  
HETATM   12  H   UNL     1      -9.958  14.868  69.225  1.00  0.00     0.000 HD 
HETATM   13  F   UNL     1      -9.125  10.950  68.221  1.00  0.00    -0.135 F  
HETATM   14  C   UNL     1     -10.538  10.338  69.971  1.00  0.00    -0.321 A  
ENDROOT
BRANCH   2  15
HETATM   15  N   UNL     1     -11.761  12.305  65.984  1.00  0.00    -0.489 NA 
HETATM   16  C   UNL     1     -10.322  11.427  63.531  1.00  0.00    -0.476 C  
HETATM   17  C   UNL     1     -11.420  12.459  63.449  1.00  0.00    -0.526 C  
HETATM   18  C   UNL     1      -9.905  10.732  62.461  1.00  0.00    -0.080 C  
HETATM   19  C   UNL     1     -12.385  12.418  64.651  1.00  0.00    -0.441 C  
HETATM   20  C   UNL     1      -9.723  11.225  64.900  1.00  0.00    -0.297 C  
HETATM   21  C   UNL     1     -10.795  11.204  66.000  1.00  0.00    -0.166 C  
ENDBRANCH   2  15
BRANCH   8  22
HETATM   22  N   UNL     1      -7.943  13.901  68.414  1.00  0.00    -0.139 NA 
HETATM   23  C   UNL     1      -7.011  14.891  69.985  1.00  0.00    -0.095 A  
HETATM   24  C   UNL     1      -6.968  13.091  68.916  1.00  0.00    -0.088 A  
HETATM   25  N   UNL     1      -6.351  13.701  69.902  1.00  0.00    -0.114 NA 
HETATM   26  N   UNL     1      -7.999  15.056  69.102  1.00  0.00    -0.186 NA 
ENDBRANCH   8  22
TORSDOF 2
ENDMDL
MODEL       36
REMARK 921   NORMALIZED FREE ENERGY PREDICTED BY IDOCK:   -5.07 KCAL/MOL
REMARK 922        TOTAL FREE ENERGY PREDICTED BY IDOCK:   -6.17 KCAL/MOL
REMARK 923 INTER-LIGAND FREE ENERGY PREDICTED BY IDOCK:   -5.55 KCAL/MOL
REMARK 924 INTRA-LIGAND FREE ENERGY PREDICTED BY IDOCK:   -0.62 KCAL/MOL
REMARK 927      BINDING AFFINITY PREDICTED BY RF-SCORE:    0.00 PKD
ROOT
HETATM    1  C   UNL     1     -10.832  16.456  64.900  1.00  0.00    -0.268 C  
HETATM    2  C   UNL     1     -11.028  15.835  66.297  1.00  0.00    -0.163 C  
HETATM    3  C   UNL     1     -10.233  16.641  67.433  1.00  0.00    -0.286 C  
HETATM    4  C   UNL     1     -12.327  15.924  70.581  1.00  0.00    -0.311 A  
HETATM    5  O   UNL     1     -10.753  18.010  67.336  1.00  0.00    -0.390 OA 
HETATM    6  C   UNL     1     -11.449  15.167  71.343  1.00  0.00    -0.354 A  
HETATM    7  C   UNL     1     -10.633  16.110  68.819  1.00  0.00    -0.279 A  
HETATM    8  C   UNL     1      -8.713  16.777  67.127  1.00  0.00    -0.200 C  
HETATM    9  C   UNL     1     -11.923  16.391  69.329  1.00  0.00     0.239 A  
HETATM   10  C   UNL     1      -9.803  15.297  69.604  1.00  0.00    -0.216 A  
HETATM   11  F   UNL     1     -11.835  14.724  72.547  1.00  0.00    -0.395 F  
HETATM   12  H   UNL     1     -10.283  18.487  68.009  1.00  0.00     0.000 HD 
HETATM   13  F   UNL     1      -8.613  14.887  69.148  1.00  0.00    -0.175 F  
HETATM   14  C   UNL     1     -10.190  14.848  70.865  1.00  0.00     0.804 A  
ENDROOT
BRANCH   2  15
HETATM   15  N   UNL     1     -10.998  14.356  66.352  1.00  0.00    -0.314 NA 
HETATM   16  C   UNL     1     -11.978  12.719  64.068  1.00  0.00    -0.522 C  
HETATM   17  C   UNL     1     -12.952  13.360  65.027  1.00  0.00    -0.220 C  
HETATM   18  C   UNL     1     -12.321  11.696  63.270  1.00  0.00    -0.274 C  
HETATM   19  C   UNL     1     -12.323  13.707  66.391  1.00  0.00    -0.389 C  
HETATM   20  C   UNL     1     -10.588  13.304  64.067  1.00  0.00    -0.217 C  
HETATM   21  C   UNL     1     -10.087  13.600  65.489  1.00  0.00    -0.275 C  
ENDBRANCH   2  15
BRANCH   8  22
HETATM   22  N   UNL     1      -8.018  17.769  67.933  1.00  0.00    -0.228 NA 
HETATM   23  C   UNL     1      -7.583  19.565  68.883  1.00  0.00    -0.348 A  
HETATM   24  C   UNL     1      -7.000  17.555  68.814  1.00  0.00    -0.237 A  
HETATM   25  N   UNL     1      -6.693  18.680  69.418  1.00  0.00    -0.239 NA 
HETATM   26  N   UNL     1      -8.419  19.053  67.977  1.00  0.00    -0.292 NA 
ENDBRANCH   8  22
TORSDOF 2
ENDMDL
MODEL       37
REMARK 921   NORMALIZED FREE ENERGY PREDICTED BY IDOCK:   -5.04 KCAL/MOL
REMARK 922        TOTAL FREE ENERGY PREDICTED BY IDOCK:   -6.13 KCAL/MOL
REMARK 923 INTER-LIGAND FREE ENERGY PREDICTED BY IDOCK:   -5.90 KCAL/MOL
REMARK 924 INTRA-LIGAND FREE ENERGY PREDICTED BY IDOCK:   -0.24 KCAL/MOL
REMARK 927      BINDING AFFINITY PREDICTED BY RF-SCORE:    0.00 PKD
ROOT
HETATM    1  C   UNL     1      -8.113  12.495  66.881  1.00  0.00    -0.039 C  
HETATM    2  C   UNL     1      -8.515  13.983  66.838  1.00  0.00    -0.078 C  
HETATM    3  C   UNL     1      -7.594  14.884  67.793  1.00  0.00    -0.156 C  
HETATM    4  C   UNL     1      -7.740  18.327  66.081  1.00  0.00    -0.255 A  
HETATM    5  O   UNL     1      -6.228  14.645  67.310  1.00  0.00    -0.305 OA 
HETATM    6  C   UNL     1      -8.422  19.086  67.021  1.00  0.00    -0.285 A  
HETATM    7  C   UNL     1      -7.897  16.371  67.550  1.00  0.00    -0.167 A  
HETATM    8  C   UNL     1      -7.581  14.386  69.267  1.00  0.00    -0.029 C  
HETATM    9  C   UNL     1      -7.480  16.981  66.343  1.00  0.00    -0.336 A  
HETATM   10  C   UNL     1      -8.629  17.167  68.443  1.00  0.00    -0.246 A  
HETATM   11  F   UNL     1      -8.666  20.379  66.772  1.00  0.00    -0.359 F  
HETATM   12  H   UNL     1      -5.683  15.179  67.876  1.00  0.00     0.000 HD 
HETATM   13  F   UNL     1      -9.161  16.642  69.553  1.00  0.00    -0.172 F  
HETATM   14  C   UNL     1      -8.871  18.517  68.200  1.00  0.00    -0.327 A  
ENDROOT
BRANCH   2  15
HETATM   15  N   UNL     1      -9.970  14.256  66.826  1.00  0.00    -0.258 NA 
HETATM   16  C   UNL     1     -11.789  12.769  64.999  1.00  0.00    -0.423 C  
HETATM   17  C   UNL     1     -10.938  13.902  64.480  1.00  0.00    -0.379 C  
HETATM   18  C   UNL     1     -12.871  12.321  64.342  1.00  0.00    -0.294 C  
HETATM   19  C   UNL     1     -10.477  14.873  65.586  1.00  0.00    -0.349 C  
HETATM   20  C   UNL     1     -11.346  12.173  66.312  1.00  0.00    -0.411 C  
HETATM   21  C   UNL     1     -10.916  13.251  67.317  1.00  0.00    -0.268 C  
ENDBRANCH   2  15
BRANCH   8  22
HETATM   22  N   UNL     1      -6.519  14.946  70.089  1.00  0.00    -0.171 NA 
HETATM   23  C   UNL     1      -5.136  16.299  70.847  1.00  0.00    -0.182 A  
HETATM   24  C   UNL     1      -6.029  14.450  71.261  1.00  0.00    -0.093 A  
HETATM   25  N   UNL     1      -5.138  15.280  71.754  1.00  0.00    -0.145 NA 
HETATM   26  N   UNL     1      -5.970  16.145  69.816  1.00  0.00    -0.169 NA 
ENDBRANCH   8  22
TORSDOF 2
ENDMDL
MODEL       38
REMARK 921   NORMALIZED FREE ENERGY PREDICTED BY IDOCK:   -5.03 KCAL/MOL
REMARK 922        TOTAL FREE ENERGY PREDICTED BY IDOCK:   -6.12 KCAL/MOL
REMARK 923 INTER-LIGAND FREE ENERGY PREDICTED BY IDOCK:   -5.98 KCAL/MOL
REMARK 924 INTRA-LIGAND FREE ENERGY PREDICTED BY IDOCK:   -0.14 KCAL/MOL
REMARK 927      BINDING AFFINITY PREDICTED BY RF-SCORE:    0.00 PKD
ROOT
HETATM    1  C   UNL     1     -11.902  11.552  68.705  1.00  0.00    -0.394 C  
HETATM    2  C   UNL     1     -11.045  10.520  67.946  1.00  0.00    -0.304 C  
HETATM    3  C   UNL     1     -10.404   9.426  68.929  1.00  0.00    -0.213 C  
HETATM    4  C   UNL     1      -9.992   6.375  66.621  1.00  0.00    -0.207 A  
HETATM    5  O   UNL     1     -11.561   8.825  69.603  1.00  0.00    -0.409 OA 
HETATM    6  C   UNL     1      -8.612   6.250  66.553  1.00  0.00    -0.128 A  
HETATM    7  C   UNL     1      -9.743   8.313  68.101  1.00  0.00    -0.178 A  
HETATM    8  C   UNL     1      -9.567  10.061  70.077  1.00  0.00    -0.156 C  
HETATM    9  C   UNL     1     -10.553   7.397  67.388  1.00  0.00    -0.371 A  
HETATM   10  C   UNL     1      -8.354   8.177  67.958  1.00  0.00    -0.129 A  
HETATM   11  F   UNL     1      -8.074   5.265  65.823  1.00  0.00    -0.102 F  
HETATM   12  H   UNL     1     -11.181   8.177  70.185  1.00  0.00     0.000 HD 
HETATM   13  F   UNL     1      -7.517   9.068  68.502  1.00  0.00    -0.079 F  
HETATM   14  C   UNL     1      -7.787   7.144  67.215  1.00  0.00    -0.111 A  
ENDROOT
BRANCH   2  15
HETATM   15  N   UNL     1     -10.187  11.066  66.869  1.00  0.00    -0.213 NA 
HETATM   16  C   UNL     1     -10.736  13.739  65.683  1.00  0.00    -0.288 C  
HETATM   17  C   UNL     1     -11.555  12.538  65.280  1.00  0.00    -0.406 C  
HETATM   18  C   UNL     1     -10.679  14.855  64.939  1.00  0.00    -0.426 C  
HETATM   19  C   UNL     1     -10.845  11.197  65.555  1.00  0.00    -0.136 C  
HETATM   20  C   UNL     1      -9.980  13.604  66.981  1.00  0.00    -0.248 C  
HETATM   21  C   UNL     1      -9.324  12.222  67.123  1.00  0.00    -0.196 C  
ENDBRANCH   2  15
BRANCH   8  22
HETATM   22  N   UNL     1      -9.252   9.156  71.171  1.00  0.00    -0.252 NA 
HETATM   23  C   UNL     1      -8.157   8.100  72.586  1.00  0.00    -0.160 A  
HETATM   24  C   UNL     1     -10.122   8.596  72.060  1.00  0.00    -0.331 A  
HETATM   25  N   UNL     1      -9.455   7.907  72.958  1.00  0.00    -0.244 NA 
HETATM   26  N   UNL     1      -7.982   8.863  71.505  1.00  0.00    -0.299 NA 
ENDBRANCH   8  22
TORSDOF 2
ENDMDL
MODEL       39
REMARK 921   NORMALIZED FREE ENERGY PREDICTED BY IDOCK:   -5.02 KCAL/MOL
REMARK 922        TOTAL FREE ENERGY PREDICTED BY IDOCK:   -6.11 KCAL/MOL
REMARK 923 INTER-LIGAND FREE ENERGY PREDICTED BY IDOCK:   -5.71 KCAL/MOL
REMARK 924 INTRA-LIGAND FREE ENERGY PREDICTED BY IDOCK:   -0.40 KCAL/MOL
REMARK 927      BINDING AFFINITY PREDICTED BY RF-SCORE:    0.00 PKD
ROOT
HETATM    1  C   UNL     1      -9.606  11.992  68.280  1.00  0.00    -0.204 C  
HETATM    2  C   UNL     1      -9.437  10.468  68.122  1.00  0.00    -0.151 C  
HETATM    3  C   UNL     1     -10.508   9.649  68.991  1.00  0.00    -0.213 C  
HETATM    4  C   UNL     1     -10.850   6.368  67.010  1.00  0.00    -0.464 A  
HETATM    5  O   UNL     1     -11.808  10.133  68.513  1.00  0.00    -0.655 OA 
HETATM    6  C   UNL     1     -10.315   5.442  67.893  1.00  0.00    -0.160 A  
HETATM    7  C   UNL     1     -10.430   8.156  68.633  1.00  0.00    -0.195 A  
HETATM    8  C   UNL     1     -10.479  10.027  70.500  1.00  0.00    -0.198 C  
HETATM    9  C   UNL     1     -10.907   7.714  67.376  1.00  0.00    -0.240 A  
HETATM   10  C   UNL     1      -9.850   7.190  69.468  1.00  0.00    -0.162 A  
HETATM   11  F   UNL     1     -10.267   4.150  67.544  1.00  0.00    -0.166 F  
HETATM   12  H   UNL     1     -12.442   9.648  69.028  1.00  0.00     0.000 HD 
HETATM   13  F   UNL     1      -9.271   7.539  70.622  1.00  0.00    -0.155 F  
HETATM   14  C   UNL     1      -9.813   5.841  69.120  1.00  0.00    -0.211 A  
ENDROOT
BRANCH   2  15
HETATM   15  N   UNL     1      -8.041   9.975  68.105  1.00  0.00    -0.107 NA 
HETATM   16  C   UNL     1      -6.218  10.622  65.843  1.00  0.00    -0.134 C  
HETATM   17  C   UNL     1      -7.263   9.543  65.702  1.00  0.00    -0.094 C  
HETATM   18  C   UNL     1      -5.154  10.705  65.029  1.00  0.00    -0.144 C  
HETATM   19  C   UNL     1      -7.744   8.981  67.055  1.00  0.00    -0.098 C  
HETATM   20  C   UNL     1      -6.447  11.605  66.964  1.00  0.00    -0.148 C  
HETATM   21  C   UNL     1      -6.923  10.911  68.249  1.00  0.00    -0.069 C  
ENDBRANCH   2  15
BRANCH   8  22
HETATM   22  N   UNL     1     -11.633   9.576  71.262  1.00  0.00    -0.344 NA 
HETATM   23  C   UNL     1     -13.594   9.399  71.926  1.00  0.00    -0.410 A  
HETATM   24  C   UNL     1     -11.721   8.472  72.058  1.00  0.00    -0.362 A  
HETATM   25  N   UNL     1     -12.948   8.345  72.506  1.00  0.00    -0.250 NA 
HETATM   26  N   UNL     1     -12.834  10.174  71.150  1.00  0.00    -0.372 NA 
ENDBRANCH   8  22
TORSDOF 2
ENDMDL
MODEL       40
REMARK 921   NORMALIZED FREE ENERGY PREDICTED BY IDOCK:   -5.02 KCAL/MOL
REMARK 922        TOTAL FREE ENERGY PREDICTED BY IDOCK:   -6.11 KCAL/MOL
REMARK 923 INTER-LIGAND FREE ENERGY PREDICTED BY IDOCK:   -5.63 KCAL/MOL
REMARK 924 INTRA-LIGAND FREE ENERGY PREDICTED BY IDOCK:   -0.48 KCAL/MOL
REMARK 927      BINDING AFFINITY PREDICTED BY RF-SCORE:    0.00 PKD
ROOT
HETATM    1  C   UNL     1     -11.465   6.424  70.117  1.00  0.00    -0.484 C  
HETATM    2  C   UNL     1     -10.606   7.369  69.254  1.00  0.00    -0.213 C  
HETATM    3  C   UNL     1     -10.319   6.764  67.797  1.00  0.00    -0.198 C  
HETATM    4  C   UNL     1      -9.829   9.927  65.663  1.00  0.00    -0.368 A  
HETATM    5  O   UNL     1     -11.654   6.528  67.233  1.00  0.00    -0.737 OA 
HETATM    6  C   UNL     1      -8.490   9.833  65.311  1.00  0.00    -0.145 A  
HETATM    7  C   UNL     1      -9.647   7.830  66.917  1.00  0.00    -0.256 A  
HETATM    8  C   UNL     1      -9.660   5.354  67.847  1.00  0.00    -0.129 C  
HETATM    9  C   UNL     1     -10.403   8.935  66.459  1.00  0.00    -0.267 A  
HETATM   10  C   UNL     1      -8.286   7.808  66.580  1.00  0.00    -0.124 A  
HETATM   11  F   UNL     1      -7.942  10.781  64.542  1.00  0.00    -0.110 F  
HETATM   12  H   UNL     1     -11.483   6.169  66.371  1.00  0.00     0.000 HD 
HETATM   13  F   UNL     1      -7.473   6.863  67.066  1.00  0.00    -0.079 F  
HETATM   14  C   UNL     1      -7.712   8.781  65.764  1.00  0.00    -0.094 A  
ENDROOT
BRANCH   2  15
HETATM   15  N   UNL     1      -9.487   8.040  69.955  1.00  0.00    -0.160 NA 
HETATM   16  C   UNL     1      -9.097   7.703  72.886  1.00  0.00    -0.231 C  
HETATM   17  C   UNL     1     -10.153   8.641  72.355  1.00  0.00    -0.321 C  
HETATM   18  C   UNL     1      -8.627   7.783  74.141  1.00  0.00    -0.307 C  
HETATM   19  C   UNL     1      -9.890   9.094  70.905  1.00  0.00    -0.291 C  
HETATM   20  C   UNL     1      -8.601   6.666  71.910  1.00  0.00    -0.124 C  
HETATM   21  C   UNL     1      -8.382   7.253  70.508  1.00  0.00    -0.133 C  
ENDBRANCH   2  15
BRANCH   8  22
HETATM   22  N   UNL     1      -9.688   4.626  66.588  1.00  0.00    -0.180 NA 
HETATM   23  C   UNL     1     -10.343   3.924  64.745  1.00  0.00    -0.173 A  
HETATM   24  C   UNL     1      -8.647   3.996  65.971  1.00  0.00    -0.110 A  
HETATM   25  N   UNL     1      -9.040   3.528  64.809  1.00  0.00    -0.128 NA 
HETATM   26  N   UNL     1     -10.783   4.606  65.805  1.00  0.00    -0.265 NA 
ENDBRANCH   8  22
TORSDOF 2
ENDMDL
MODEL       41
REMARK 921   NORMALIZED FREE ENERGY PREDICTED BY IDOCK:   -4.98 KCAL/MOL
REMARK 922        TOTAL FREE ENERGY PREDICTED BY IDOCK:   -6.07 KCAL/MOL
REMARK 923 INTER-LIGAND FREE ENERGY PREDICTED BY IDOCK:   -5.88 KCAL/MOL
REMARK 924 INTRA-LIGAND FREE ENERGY PREDICTED BY IDOCK:   -0.18 KCAL/MOL
REMARK 927      BINDING AFFINITY PREDICTED BY RF-SCORE:    0.00 PKD
ROOT
HETATM    1  C   UNL     1      -8.932   9.087  67.251  1.00  0.00    -0.139 C  
HETATM    2  C   UNL     1      -9.600   9.808  68.438  1.00  0.00    -0.148 C  
HETATM    3  C   UNL     1     -10.734  10.836  67.960  1.00  0.00    -0.228 C  
HETATM    4  C   UNL     1     -13.100  10.934  70.993  1.00  0.00    -0.296 A  
HETATM    5  O   UNL     1     -11.671  10.010  67.190  1.00  0.00     0.034 OA 
HETATM    6  C   UNL     1     -12.944  12.239  71.437  1.00  0.00    -0.256 A  
HETATM    7  C   UNL     1     -11.504  11.361  69.182  1.00  0.00    -0.365 A  
HETATM    8  C   UNL     1     -10.207  11.886  66.939  1.00  0.00    -0.208 C  
HETATM    9  C   UNL     1     -12.386  10.499  69.875  1.00  0.00    -0.247 A  
HETATM   10  C   UNL     1     -11.341  12.653  69.702  1.00  0.00    -0.104 A  
HETATM   11  F   UNL     1     -13.634  12.659  72.505  1.00  0.00    -0.622 F  
HETATM   12  H   UNL     1     -12.343  10.619  66.908  1.00  0.00     0.000 HD 
HETATM   13  F   UNL     1     -10.442  13.495  69.179  1.00  0.00    -0.212 F  
HETATM   14  C   UNL     1     -12.069  13.103  70.801  1.00  0.00    -0.290 A  
ENDROOT
BRANCH   2  15
HETATM   15  N   UNL     1      -8.689  10.240  69.522  1.00  0.00    -0.167 NA 
HETATM   16  C   UNL     1      -6.293   8.628  70.241  1.00  0.00    -0.038 C  
HETATM   17  C   UNL     1      -7.666   8.213  70.709  1.00  0.00    -0.080 C  
HETATM   18  C   UNL     1      -5.168   8.180  70.821  1.00  0.00    -0.025 C  
HETATM   19  C   UNL     1      -8.683   9.372  70.715  1.00  0.00    -0.157 C  
HETATM   20  C   UNL     1      -6.266   9.586  69.076  1.00  0.00    -0.042 C  
HETATM   21  C   UNL     1      -7.329  10.687  69.213  1.00  0.00    -0.119 C  
ENDBRANCH   2  15
BRANCH   8  22
HETATM   22  N   UNL     1     -11.245  12.615  66.226  1.00  0.00    -0.296 NA 
HETATM   23  C   UNL     1     -12.496  14.165  65.637  1.00  0.00    -0.469 A  
HETATM   24  C   UNL     1     -11.875  12.246  65.075  1.00  0.00    -0.357 A  
HETATM   25  N   UNL     1     -12.687  13.203  64.688  1.00  0.00    -0.699 NA 
HETATM   26  N   UNL     1     -11.618  13.855  66.593  1.00  0.00    -0.355 NA 
ENDBRANCH   8  22
TORSDOF 2
ENDMDL
MODEL       42
REMARK 921   NORMALIZED FREE ENERGY PREDICTED BY IDOCK:   -4.96 KCAL/MOL
REMARK 922        TOTAL FREE ENERGY PREDICTED BY IDOCK:   -6.04 KCAL/MOL
REMARK 923 INTER-LIGAND FREE ENERGY PREDICTED BY IDOCK:   -5.47 KCAL/MOL
REMARK 924 INTRA-LIGAND FREE ENERGY PREDICTED BY IDOCK:   -0.57 KCAL/MOL
REMARK 927      BINDING AFFINITY PREDICTED BY RF-SCORE:    0.00 PKD
ROOT
HETATM    1  C   UNL     1      -8.578  11.678  68.400  1.00  0.00    -0.156 C  
HETATM    2  C   UNL     1      -9.585  10.741  69.094  1.00  0.00    -0.151 C  
HETATM    3  C   UNL     1      -9.051   9.230  69.169  1.00  0.00    -0.145 C  
HETATM    4  C   UNL     1     -10.850   7.867  72.285  1.00  0.00    -0.353 A  
HETATM    5  O   UNL     1      -7.775   9.333  69.887  1.00  0.00    -0.078 OA 
HETATM    6  C   UNL     1     -11.692   6.910  71.735  1.00  0.00    -0.302 A  
HETATM    7  C   UNL     1      -9.992   8.393  70.050  1.00  0.00    -0.188 A  
HETATM    8  C   UNL     1      -8.670   8.653  67.775  1.00  0.00    -0.137 C  
HETATM    9  C   UNL     1     -10.008   8.602  71.450  1.00  0.00    -0.324 A  
HETATM   10  C   UNL     1     -10.898   7.454  69.538  1.00  0.00    -0.189 A  
HETATM   11  F   UNL     1     -12.495   6.200  72.537  1.00  0.00    -0.260 F  
HETATM   12  H   UNL     1      -7.459   8.438  69.932  1.00  0.00     0.000 HD 
HETATM   13  F   UNL     1     -11.032   7.276  68.219  1.00  0.00    -0.218 F  
HETATM   14  C   UNL     1     -11.724   6.698  70.368  1.00  0.00    -0.446 A  
ENDROOT
BRANCH   2  15
HETATM   15  N   UNL     1     -11.008  10.952  68.741  1.00  0.00    -0.217 NA 
HETATM   16  C   UNL     1     -11.809  13.094  66.836  1.00  0.00    -0.444 C  
HETATM   17  C   UNL     1     -11.464  13.429  68.266  1.00  0.00    -0.350 C  
HETATM   18  C   UNL     1     -12.518  13.922  66.053  1.00  0.00    -0.501 C  
HETATM   19  C   UNL     1     -11.585  12.223  69.220  1.00  0.00    -0.324 C  
HETATM   20  C   UNL     1     -11.307  11.760  66.342  1.00  0.00    -0.361 C  
HETATM   21  C   UNL     1     -11.489  10.652  67.391  1.00  0.00     0.064 C  
ENDBRANCH   2  15
BRANCH   8  22
HETATM   22  N   UNL     1      -7.877   7.434  67.818  1.00  0.00    -0.112 NA 
HETATM   23  C   UNL     1      -6.315   6.128  68.232  1.00  0.00    -0.043 A  
HETATM   24  C   UNL     1      -8.290   6.165  67.537  1.00  0.00    -0.109 A  
HETATM   25  N   UNL     1      -7.315   5.319  67.775  1.00  0.00    -0.075 NA 
HETATM   26  N   UNL     1      -6.614   7.427  68.285  1.00  0.00    -0.048 NA 
ENDBRANCH   8  22
TORSDOF 2
ENDMDL
MODEL       43
REMARK 921   NORMALIZED FREE ENERGY PREDICTED BY IDOCK:   -4.95 KCAL/MOL
REMARK 922        TOTAL FREE ENERGY PREDICTED BY IDOCK:   -6.03 KCAL/MOL
REMARK 923 INTER-LIGAND FREE ENERGY PREDICTED BY IDOCK:   -6.06 KCAL/MOL
REMARK 924 INTRA-LIGAND FREE ENERGY PREDICTED BY IDOCK:    0.03 KCAL/MOL
REMARK 927      BINDING AFFINITY PREDICTED BY RF-SCORE:    0.00 PKD
ROOT
HETATM    1  C   UNL     1      -8.802   7.596  69.626  1.00  0.00    -0.140 C  
HETATM    2  C   UNL     1      -8.922   8.774  68.640  1.00  0.00    -0.138 C  
HETATM    3  C   UNL     1      -9.788   9.982  69.244  1.00  0.00    -0.214 C  
HETATM    4  C   UNL     1      -8.358  13.038  67.396  1.00  0.00    -0.194 A  
HETATM    5  O   UNL     1      -9.091  10.341  70.485  1.00  0.00    -0.231 OA 
HETATM    6  C   UNL     1      -9.439  13.438  66.624  1.00  0.00    -0.260 A  
HETATM    7  C   UNL     1      -9.696  11.200  68.313  1.00  0.00    -0.190 A  
HETATM    8  C   UNL     1     -11.206   9.536  69.706  1.00  0.00    -0.144 C  
HETATM    9  C   UNL     1      -8.485  11.928  68.233  1.00  0.00    -0.161 A  
HETATM   10  C   UNL     1     -10.741  11.613  67.474  1.00  0.00    -0.215 A  
HETATM   11  F   UNL     1      -9.319  14.507  65.826  1.00  0.00    -0.298 F  
HETATM   12  H   UNL     1      -9.604  11.056  70.843  1.00  0.00     0.000 HD 
HETATM   13  F   UNL     1     -11.879  10.913  67.400  1.00  0.00    -0.271 F  
HETATM   14  C   UNL     1     -10.630  12.734  66.655  1.00  0.00    -0.272 A  
ENDROOT
BRANCH   2  15
HETATM   15  N   UNL     1      -9.147   8.406  67.224  1.00  0.00    -0.135 NA 
HETATM   16  C   UNL     1      -9.833   5.613  66.459  1.00  0.00    -0.195 C  
HETATM   17  C   UNL     1      -8.410   5.991  66.788  1.00  0.00    -0.106 C  
HETATM   18  C   UNL     1     -10.143   4.506  65.766  1.00  0.00    -0.274 C  
HETATM   19  C   UNL     1      -8.133   7.501  66.647  1.00  0.00    -0.123 C  
HETATM   20  C   UNL     1     -10.890   6.565  66.960  1.00  0.00    -0.465 C  
HETATM   21  C   UNL     1     -10.484   8.033  66.758  1.00  0.00    -0.248 C  
ENDBRANCH   2  15
BRANCH   8  22
HETATM   22  N   UNL     1     -11.896  10.494  70.557  1.00  0.00    -0.319 NA 
HETATM   23  C   UNL     1     -12.636  12.297  71.276  1.00  0.00    -0.234 A  
HETATM   24  C   UNL     1     -12.803  10.227  71.540  1.00  0.00    -0.452 A  
HETATM   25  N   UNL     1     -13.275  11.352  72.025  1.00  0.00    -0.455 NA 
HETATM   26  N   UNL     1     -11.790  11.821  70.360  1.00  0.00    -0.325 NA 
ENDBRANCH   8  22
TORSDOF 2
ENDMDL
MODEL       44
REMARK 921   NORMALIZED FREE ENERGY PREDICTED BY IDOCK:   -4.89 KCAL/MOL
REMARK 922        TOTAL FREE ENERGY PREDICTED BY IDOCK:   -5.96 KCAL/MOL
REMARK 923 INTER-LIGAND FREE ENERGY PREDICTED BY IDOCK:   -5.34 KCAL/MOL
REMARK 924 INTRA-LIGAND FREE ENERGY PREDICTED BY IDOCK:   -0.62 KCAL/MOL
REMARK 927      BINDING AFFINITY PREDICTED BY RF-SCORE:    0.00 PKD
ROOT
HETATM    1  C   UNL     1      -9.338   4.493  69.197  1.00  0.00    -0.214 C  
HETATM    2  C   UNL     1     -10.140   5.339  70.205  1.00  0.00    -0.259 C  
HETATM    3  C   UNL     1     -10.611   6.739  69.579  1.00  0.00    -0.232 C  
HETATM    4  C   UNL     1     -13.788   7.528  71.601  1.00  0.00    -0.486 A  
HETATM    5  O   UNL     1     -11.395   6.361  68.397  1.00  0.00    -0.525 OA 
HETATM    6  C   UNL     1     -13.404   8.656  72.311  1.00  0.00    -0.375 A  
HETATM    7  C   UNL     1     -11.576   7.440  70.548  1.00  0.00    -0.256 A  
HETATM    8  C   UNL     1      -9.428   7.577  69.013  1.00  0.00    -0.145 C  
HETATM    9  C   UNL     1     -12.882   6.924  70.727  1.00  0.00    -0.033 A  
HETATM   10  C   UNL     1     -11.219   8.549  71.328  1.00  0.00    -0.265 A  
HETATM   11  F   UNL     1     -14.275   9.238  73.144  1.00  0.00    -0.248 F  
HETATM   12  H   UNL     1     -11.674   7.190  68.026  1.00  0.00     0.000 HD 
HETATM   13  F   UNL     1      -9.970   9.029  71.307  1.00  0.00    -0.269 F  
HETATM   14  C   UNL     1     -12.126   9.172  72.183  1.00  0.00    -0.389 A  
ENDROOT
BRANCH   2  15
HETATM   15  N   UNL     1      -9.625   5.344  71.593  1.00  0.00    -0.148 NA 
HETATM   16  C   UNL     1      -8.261   2.953  72.726  1.00  0.00    -0.071 C  
HETATM   17  C   UNL     1      -9.765   2.999  72.618  1.00  0.00    -0.194 C  
HETATM   18  C   UNL     1      -7.622   2.100  73.543  1.00  0.00    -0.041 C  
HETATM   19  C   UNL     1     -10.324   4.433  72.520  1.00  0.00    -0.188 C  
HETATM   20  C   UNL     1      -7.517   3.934  71.853  1.00  0.00    -0.060 C  
HETATM   21  C   UNL     1      -8.182   5.318  71.848  1.00  0.00    -0.118 C  
ENDBRANCH   2  15
BRANCH   8  22
HETATM   22  N   UNL     1      -9.822   8.677  68.146  1.00  0.00    -0.160 NA 
HETATM   23  C   UNL     1     -10.779   9.732  66.633  1.00  0.00    -0.036 A  
HETATM   24  C   UNL     1      -9.605  10.008  68.345  1.00  0.00    -0.145 A  
HETATM   25  N   UNL     1     -10.187  10.699  67.392  1.00  0.00    -0.194 NA 
HETATM   26  N   UNL     1     -10.592   8.481  67.060  1.00  0.00    -0.290 NA 
ENDBRANCH   8  22
TORSDOF 2
ENDMDL
MODEL       45
REMARK 921   NORMALIZED FREE ENERGY PREDICTED BY IDOCK:   -4.84 KCAL/MOL
REMARK 922        TOTAL FREE ENERGY PREDICTED BY IDOCK:   -5.90 KCAL/MOL
REMARK 923 INTER-LIGAND FREE ENERGY PREDICTED BY IDOCK:   -5.50 KCAL/MOL
REMARK 924 INTRA-LIGAND FREE ENERGY PREDICTED BY IDOCK:   -0.41 KCAL/MOL
REMARK 927      BINDING AFFINITY PREDICTED BY RF-SCORE:    0.00 PKD
ROOT
HETATM    1  C   UNL     1     -12.019   6.505  70.701  1.00  0.00    -0.345 C  
HETATM    2  C   UNL     1     -11.210   7.497  69.843  1.00  0.00    -0.108 C  
HETATM    3  C   UNL     1     -10.172   6.751  68.874  1.00  0.00    -0.175 C  
HETATM    4  C   UNL     1      -9.822   9.237  65.958  1.00  0.00    -0.363 A  
HETATM    5  O   UNL     1     -11.009   5.850  68.073  1.00  0.00    -0.274 OA 
HETATM    6  C   UNL     1      -8.500   9.639  66.080  1.00  0.00    -0.120 A  
HETATM    7  C   UNL     1      -9.553   7.766  67.900  1.00  0.00    -0.167 A  
HETATM    8  C   UNL     1      -9.201   5.806  69.640  1.00  0.00    -0.138 C  
HETATM    9  C   UNL     1     -10.344   8.309  66.860  1.00  0.00    -0.391 A  
HETATM   10  C   UNL     1      -8.240   8.244  68.014  1.00  0.00    -0.128 A  
HETATM   11  F   UNL     1      -7.997  10.524  65.211  1.00  0.00    -0.146 F  
HETATM   12  H   UNL     1     -10.394   5.408  67.499  1.00  0.00     0.000 HD 
HETATM   13  F   UNL     1      -7.460   7.873  69.036  1.00  0.00    -0.086 F  
HETATM   14  C   UNL     1      -7.703   9.151  67.102  1.00  0.00    -0.098 A  
ENDROOT
BRANCH   2  15
HETATM   15  N   UNL     1     -10.748   8.720  70.538  1.00  0.00    -0.215 NA 
HETATM   16  C   UNL     1     -12.683  10.801  71.423  1.00  0.00    -0.544 C  
HETATM   17  C   UNL     1     -12.263  10.709  69.976  1.00  0.00    -0.373 C  
HETATM   18  C   UNL     1     -13.236  11.908  71.943  1.00  0.00    -0.467 C  
HETATM   19  C   UNL     1     -10.922   9.973  69.778  1.00  0.00    -0.276 C  
HETATM   20  C   UNL     1     -12.437   9.564  72.250  1.00  0.00    -0.299 C  
HETATM   21  C   UNL     1     -11.068   8.935  71.951  1.00  0.00    -0.372 C  
ENDBRANCH   2  15
BRANCH   8  22
HETATM   22  N   UNL     1      -8.479   4.865  68.799  1.00  0.00    -0.086 NA 
HETATM   23  C   UNL     1      -8.107   3.311  67.471  1.00  0.00    -0.081 A  
HETATM   24  C   UNL     1      -7.175   4.936  68.405  1.00  0.00    -0.062 A  
HETATM   25  N   UNL     1      -6.909   3.954  67.577  1.00  0.00    -0.053 NA 
HETATM   26  N   UNL     1      -9.100   3.836  68.192  1.00  0.00    -0.130 NA 
ENDBRANCH   8  22
TORSDOF 2
ENDMDL
MODEL       46
REMARK 921   NORMALIZED FREE ENERGY PREDICTED BY IDOCK:   -4.80 KCAL/MOL
REMARK 922        TOTAL FREE ENERGY PREDICTED BY IDOCK:   -5.87 KCAL/MOL
REMARK 923 INTER-LIGAND FREE ENERGY PREDICTED BY IDOCK:   -5.44 KCAL/MOL
REMARK 924 INTRA-LIGAND FREE ENERGY PREDICTED BY IDOCK:   -0.43 KCAL/MOL
REMARK 927      BINDING AFFINITY PREDICTED BY RF-SCORE:    0.00 PKD
ROOT
HETATM    1  C   UNL     1      -7.323  11.130  69.759  1.00  0.00     0.126 C  
HETATM    2  C   UNL     1      -7.918  10.599  68.440  1.00  0.00    -0.120 C  
HETATM    3  C   UNL     1      -8.259  11.783  67.412  1.00  0.00    -0.160 C  
HETATM    4  C   UNL     1      -7.959  10.033  63.999  1.00  0.00    -0.151 A  
HETATM    5  O   UNL     1      -6.981  12.480  67.225  1.00  0.00    -0.194 OA 
HETATM    6  C   UNL     1      -9.269  10.066  63.543  1.00  0.00    -0.277 A  
HETATM    7  C   UNL     1      -8.645  11.188  66.049  1.00  0.00    -0.154 A  
HETATM    8  C   UNL     1      -9.206  12.858  68.021  1.00  0.00    -0.212 C  
HETATM    9  C   UNL     1      -7.650  10.589  65.241  1.00  0.00    -0.074 A  
HETATM   10  C   UNL     1      -9.962  11.148  65.568  1.00  0.00    -0.249 A  
HETATM   11  F   UNL     1      -9.565   9.538  62.348  1.00  0.00    -0.253 F  
HETATM   12  H   UNL     1      -7.183  13.180  66.617  1.00  0.00     0.000 HD 
HETATM   13  F   UNL     1     -10.980  11.587  66.317  1.00  0.00    -0.302 F  
HETATM   14  C   UNL     1     -10.275  10.618  64.318  1.00  0.00    -0.391 A  
ENDROOT
BRANCH   2  15
HETATM   15  N   UNL     1      -8.899   9.499  68.574  1.00  0.00    -0.124 NA 
HETATM   16  C   UNL     1      -9.989   8.737  71.237  1.00  0.00    -0.333 C  
HETATM   17  C   UNL     1      -8.608   8.295  70.818  1.00  0.00    -0.147 C  
HETATM   18  C   UNL     1     -10.668   8.138  72.228  1.00  0.00    -0.381 C  
HETATM   19  C   UNL     1      -8.404   8.307  69.289  1.00  0.00    -0.122 C  
HETATM   20  C   UNL     1     -10.560   9.900  70.465  1.00  0.00    -0.359 C  
HETATM   21  C   UNL     1     -10.284   9.783  68.959  1.00  0.00    -0.203 C  
ENDBRANCH   2  15
BRANCH   8  22
HETATM   22  N   UNL     1      -9.276  14.102  67.270  1.00  0.00    -0.210 NA 
HETATM   23  C   UNL     1      -8.714  15.919  66.435  1.00  0.00    -0.327 A  
HETATM   24  C   UNL     1     -10.217  14.465  66.353  1.00  0.00    -0.289 A  
HETATM   25  N   UNL     1      -9.895  15.621  65.820  1.00  0.00    -0.340 NA 
HETATM   26  N   UNL     1      -8.290  15.017  67.322  1.00  0.00    -0.190 NA 
ENDBRANCH   8  22
TORSDOF 2
ENDMDL
MODEL       47
REMARK 921   NORMALIZED FREE ENERGY PREDICTED BY IDOCK:   -4.79 KCAL/MOL
REMARK 922        TOTAL FREE ENERGY PREDICTED BY IDOCK:   -5.85 KCAL/MOL
REMARK 923 INTER-LIGAND FREE ENERGY PREDICTED BY IDOCK:   -5.51 KCAL/MOL
REMARK 924 INTRA-LIGAND FREE ENERGY PREDICTED BY IDOCK:   -0.34 KCAL/MOL
REMARK 927      BINDING AFFINITY PREDICTED BY RF-SCORE:    0.00 PKD
ROOT
HETATM    1  C   UNL     1     -10.510   7.312  67.269  1.00  0.00    -0.380 C  
HETATM    2  C   UNL     1      -9.857   6.884  68.597  1.00  0.00    -0.145 C  
HETATM    3  C   UNL     1     -10.708   7.361  69.870  1.00  0.00    -0.243 C  
HETATM    4  C   UNL     1      -9.786   4.729  72.522  1.00  0.00    -0.204 A  
HETATM    5  O   UNL     1     -12.033   6.764  69.664  1.00  0.00    -0.650 OA 
HETATM    6  C   UNL     1      -9.090   5.489  73.451  1.00  0.00    -0.129 A  
HETATM    7  C   UNL     1     -10.129   6.729  71.145  1.00  0.00    -0.198 A  
HETATM    8  C   UNL     1     -10.967   8.896  69.884  1.00  0.00    -0.182 C  
HETATM    9  C   UNL     1     -10.301   5.344  71.379  1.00  0.00    -0.294 A  
HETATM   10  C   UNL     1      -9.373   7.442  72.087  1.00  0.00    -0.135 A  
HETATM   11  F   UNL     1      -8.603   4.901  74.550  1.00  0.00    -0.107 F  
HETATM   12  H   UNL     1     -12.537   7.047  70.418  1.00  0.00     0.000 HD 
HETATM   13  F   UNL     1      -9.064   8.728  71.888  1.00  0.00    -0.269 F  
HETATM   14  C   UNL     1      -8.878   6.841  73.243  1.00  0.00    -0.140 A  
ENDROOT
BRANCH   2  15
HETATM   15  N   UNL     1      -8.384   7.019  68.662  1.00  0.00    -0.121 NA 
HETATM   16  C   UNL     1      -6.696   6.530  66.261  1.00  0.00    -0.053 C  
HETATM   17  C   UNL     1      -7.252   5.374  67.056  1.00  0.00    -0.078 C  
HETATM   18  C   UNL     1      -5.656   6.393  65.423  1.00  0.00    -0.021 C  
HETATM   19  C   UNL     1      -7.635   5.758  68.500  1.00  0.00    -0.089 C  
HETATM   20  C   UNL     1      -7.386   7.854  66.471  1.00  0.00    -0.087 C  
HETATM   21  C   UNL     1      -7.708   8.107  67.951  1.00  0.00    -0.114 C  
ENDBRANCH   2  15
BRANCH   8  22
HETATM   22  N   UNL     1     -12.000   9.329  70.812  1.00  0.00    -0.251 NA 
HETATM   23  C   UNL     1     -13.401   9.280  72.345  1.00  0.00    -0.449 A  
HETATM   24  C   UNL     1     -12.380  10.609  71.090  1.00  0.00    -0.400 A  
HETATM   25  N   UNL     1     -13.280  10.606  72.046  1.00  0.00    -0.450 NA 
HETATM   26  N   UNL     1     -12.633   8.462  71.623  1.00  0.00    -0.321 NA 
ENDBRANCH   8  22
TORSDOF 2
ENDMDL
MODEL       48
REMARK 921   NORMALIZED FREE ENERGY PREDICTED BY IDOCK:   -4.76 KCAL/MOL
REMARK 922        TOTAL FREE ENERGY PREDICTED BY IDOCK:   -5.82 KCAL/MOL
REMARK 923 INTER-LIGAND FREE ENERGY PREDICTED BY IDOCK:   -6.04 KCAL/MOL
REMARK 924 INTRA-LIGAND FREE ENERGY PREDICTED BY IDOCK:    0.22 KCAL/MOL
REMARK 927      BINDING AFFINITY PREDICTED BY RF-SCORE:    0.00 PKD
ROOT
HETATM    1  C   UNL     1      -8.829  11.237  68.362  1.00  0.00    -0.159 C  
HETATM    2  C   UNL     1      -8.955  12.763  68.180  1.00  0.00    -0.199 C  
HETATM    3  C   UNL     1     -10.152  13.157  67.189  1.00  0.00    -0.242 C  
HETATM    4  C   UNL     1     -11.134  16.666  68.423  1.00  0.00    -0.305 A  
HETATM    5  O   UNL     1     -11.342  12.552  67.800  1.00  0.00    -0.257 OA 
HETATM    6  C   UNL     1     -10.775  17.461  67.344  1.00  0.00    -0.251 A  
HETATM    7  C   UNL     1     -10.364  14.678  67.213  1.00  0.00    -0.256 A  
HETATM    8  C   UNL     1     -10.035  12.470  65.797  1.00  0.00    -0.259 C  
HETATM    9  C   UNL     1     -10.930  15.287  68.358  1.00  0.00    -0.271 A  
HETATM   10  C   UNL     1      -9.969  15.531  66.171  1.00  0.00    -0.309 A  
HETATM   11  F   UNL     1     -10.977  18.783  67.403  1.00  0.00    -0.477 F  
HETATM   12  H   UNL     1     -12.051  12.786  67.213  1.00  0.00     0.000 HD 
HETATM   13  F   UNL     1      -9.321  15.054  65.102  1.00  0.00    -0.166 F  
HETATM   14  C   UNL     1     -10.193  16.905  66.218  1.00  0.00    -0.337 A  
ENDROOT
BRANCH   2  15
HETATM   15  N   UNL     1      -7.678  13.501  68.047  1.00  0.00    -0.128 NA 
HETATM   16  C   UNL     1      -6.110  14.290  70.450  1.00  0.00    -0.176 C  
HETATM   17  C   UNL     1      -7.330  15.075  70.039  1.00  0.00     0.045 C  
HETATM   18  C   UNL     1      -5.171  14.792  71.269  1.00  0.00    -0.139 C  
HETATM   19  C   UNL     1      -7.704  14.886  68.555  1.00  0.00    -0.123 C  
HETATM   20  C   UNL     1      -6.009  12.898  69.877  1.00  0.00    -0.135 C  
HETATM   21  C   UNL     1      -6.409  12.856  68.395  1.00  0.00    -0.080 C  
ENDBRANCH   2  15
BRANCH   8  22
HETATM   22  N   UNL     1     -11.246  12.519  64.992  1.00  0.00    -0.297 NA 
HETATM   23  C   UNL     1     -13.244  12.751  64.472  1.00  0.00     0.281 A  
HETATM   24  C   UNL     1     -11.336  12.560  63.631  1.00  0.00    -0.485 A  
HETATM   25  N   UNL     1     -12.593  12.690  63.275  1.00  0.00    -0.663 NA 
HETATM   26  N   UNL     1     -12.463  12.660  65.550  1.00  0.00    -0.648 NA 
ENDBRANCH   8  22
TORSDOF 2
ENDMDL
MODEL       49
REMARK 921   NORMALIZED FREE ENERGY PREDICTED BY IDOCK:   -4.70 KCAL/MOL
REMARK 922        TOTAL FREE ENERGY PREDICTED BY IDOCK:   -5.76 KCAL/MOL
REMARK 923 INTER-LIGAND FREE ENERGY PREDICTED BY IDOCK:   -5.30 KCAL/MOL
REMARK 924 INTRA-LIGAND FREE ENERGY PREDICTED BY IDOCK:   -0.46 KCAL/MOL
REMARK 927      BINDING AFFINITY PREDICTED BY RF-SCORE:    0.00 PKD
ROOT
HETATM    1  C   UNL     1     -10.722   7.479  69.919  1.00  0.00    -0.254 C  
HETATM    2  C   UNL     1      -9.755   8.412  69.164  1.00  0.00    -0.171 C  
HETATM    3  C   UNL     1     -10.049   9.960  69.467  1.00  0.00    -0.221 C  
HETATM    4  C   UNL     1      -6.602  11.582  68.930  1.00  0.00    -0.073 A  
HETATM    5  O   UNL     1      -9.932  10.072  70.926  1.00  0.00    -0.293 OA 
HETATM    6  C   UNL     1      -6.828  12.374  67.813  1.00  0.00    -0.113 A  
HETATM    7  C   UNL     1      -8.932  10.825  68.863  1.00  0.00    -0.158 A  
HETATM    8  C   UNL     1     -11.519  10.367  69.159  1.00  0.00    -0.196 C  
HETATM    9  C   UNL     1      -7.645  10.814  69.450  1.00  0.00    -0.114 A  
HETATM   10  C   UNL     1      -9.095  11.600  67.705  1.00  0.00    -0.175 A  
HETATM   11  F   UNL     1      -5.829  13.116  67.318  1.00  0.00    -0.135 F  
HETATM   12  H   UNL     1     -10.106  10.988  71.105  1.00  0.00     0.000 HD 
HETATM   13  F   UNL     1     -10.244  11.578  67.020  1.00  0.00    -0.217 F  
HETATM   14  C   UNL     1      -8.066  12.389  67.195  1.00  0.00    -0.167 A  
ENDROOT
BRANCH   2  15
HETATM   15  N   UNL     1      -9.452   8.029  67.766  1.00  0.00    -0.143 NA 
HETATM   16  C   UNL     1      -9.938   5.255  66.802  1.00  0.00    -0.224 C  
HETATM   17  C   UNL     1      -8.723   5.575  67.638  1.00  0.00    -0.107 C  
HETATM   18  C   UNL     1     -10.019   4.151  66.043  1.00  0.00    -0.193 C  
HETATM   19  C   UNL     1      -8.342   7.069  67.611  1.00  0.00    -0.117 C  
HETATM   20  C   UNL     1     -11.057   6.263  66.871  1.00  0.00    -0.329 C  
HETATM   21  C   UNL     1     -10.535   7.707  66.834  1.00  0.00    -0.318 C  
ENDBRANCH   2  15
BRANCH   8  22
HETATM   22  N   UNL     1     -11.926  11.645  69.724  1.00  0.00    -0.327 NA 
HETATM   23  C   UNL     1     -12.531  13.070  71.109  1.00  0.00    -0.271 A  
HETATM   24  C   UNL     1     -11.812  12.877  69.152  1.00  0.00    -0.303 A  
HETATM   25  N   UNL     1     -12.204  13.798  70.002  1.00  0.00    -0.344 NA 
HETATM   26  N   UNL     1     -12.369  11.751  70.990  1.00  0.00    -0.334 NA 
ENDBRANCH   8  22
TORSDOF 2
ENDMDL
MODEL       50
REMARK 921   NORMALIZED FREE ENERGY PREDICTED BY IDOCK:   -4.69 KCAL/MOL
REMARK 922        TOTAL FREE ENERGY PREDICTED BY IDOCK:   -5.74 KCAL/MOL
REMARK 923 INTER-LIGAND FREE ENERGY PREDICTED BY IDOCK:   -6.00 KCAL/MOL
REMARK 924 INTRA-LIGAND FREE ENERGY PREDICTED BY IDOCK:    0.26 KCAL/MOL
REMARK 927      BINDING AFFINITY PREDICTED BY RF-SCORE:    0.00 PKD
ROOT
HETATM    1  C   UNL     1     -10.582  15.925  65.332  1.00  0.00    -0.439 C  
HETATM    2  C   UNL     1     -11.287  15.250  66.525  1.00  0.00    -0.168 C  
HETATM    3  C   UNL     1     -10.354  15.201  67.829  1.00  0.00    -0.243 C  
HETATM    4  C   UNL     1     -12.925  15.160  70.690  1.00  0.00    -0.420 A  
HETATM    5  O   UNL     1     -10.015  16.606  68.084  1.00  0.00    -0.245 OA 
HETATM    6  C   UNL     1     -12.730  13.899  71.234  1.00  0.00    -0.367 A  
HETATM    7  C   UNL     1     -11.174  14.715  69.033  1.00  0.00    -0.287 A  
HETATM    8  C   UNL     1      -8.984  14.509  67.567  1.00  0.00    -0.188 C  
HETATM    9  C   UNL     1     -12.155  15.565  69.599  1.00  0.00    -0.352 A  
HETATM   10  C   UNL     1     -11.052  13.432  69.585  1.00  0.00     0.043 A  
HETATM   11  F   UNL     1     -13.464  13.513  72.286  1.00  0.00    -0.466 F  
HETATM   12  H   UNL     1      -9.463  16.577  68.856  1.00  0.00     0.000 HD 
HETATM   13  F   UNL     1     -10.233  12.525  69.040  1.00  0.00    -0.173 F  
HETATM   14  C   UNL     1     -11.800  13.030  70.690  1.00  0.00    -0.069 A  
ENDROOT
BRANCH   2  15
HETATM   15  N   UNL     1     -12.083  14.044  66.202  1.00  0.00    -0.424 NA 
HETATM   16  C   UNL     1     -11.279  12.229  63.984  1.00  0.00    -0.456 C  
HETATM   17  C   UNL     1     -11.977  13.534  63.692  1.00  0.00    -0.439 C  
HETATM   18  C   UNL     1     -11.230  11.224  63.095  1.00  0.00     0.112 C  
HETATM   19  C   UNL     1     -12.770  14.083  64.896  1.00  0.00    -0.273 C  
HETATM   20  C   UNL     1     -10.640  12.125  65.347  1.00  0.00    -0.309 C  
HETATM   21  C   UNL     1     -11.538  12.707  66.449  1.00  0.00    -0.384 C  
ENDBRANCH   2  15
BRANCH   8  22
HETATM   22  N   UNL     1      -7.983  14.734  68.599  1.00  0.00    -0.136 NA 
HETATM   23  C   UNL     1      -6.875  15.682  70.079  1.00  0.00     0.013 A  
HETATM   24  C   UNL     1      -7.224  13.797  69.235  1.00  0.00     0.041 A  
HETATM   25  N   UNL     1      -6.500  14.373  70.167  1.00  0.00    -0.156 NA 
HETATM   26  N   UNL     1      -7.786  15.950  69.141  1.00  0.00    -0.216 NA 
ENDBRANCH   8  22
TORSDOF 2
ENDMDL
MODEL       51
REMARK 921   NORMALIZED FREE ENERGY PREDICTED BY IDOCK:   -4.67 KCAL/MOL
REMARK 922        TOTAL FREE ENERGY PREDICTED BY IDOCK:   -5.72 KCAL/MOL
REMARK 923 INTER-LIGAND FREE ENERGY PREDICTED BY IDOCK:   -5.34 KCAL/MOL
REMARK 924 INTRA-LIGAND FREE ENERGY PREDICTED BY IDOCK:   -0.38 KCAL/MOL
REMARK 927      BINDING AFFINITY PREDICTED BY RF-SCORE:    0.00 PKD
ROOT
HETATM    1  C   UNL     1     -11.348   6.403  70.080  1.00  0.00    -0.496 C  
HETATM    2  C   UNL     1     -10.876   7.806  69.648  1.00  0.00    -0.184 C  
HETATM    3  C   UNL     1     -10.143   7.783  68.221  1.00  0.00    -0.192 C  
HETATM    4  C   UNL     1     -10.787  11.339  66.899  1.00  0.00    -0.333 A  
HETATM    5  O   UNL     1     -11.140   7.208  67.311  1.00  0.00    -0.547 OA 
HETATM    6  C   UNL     1      -9.507  11.874  66.880  1.00  0.00    -0.199 A  
HETATM    7  C   UNL     1      -9.887   9.223  67.749  1.00  0.00    -0.210 A  
HETATM    8  C   UNL     1      -8.947   6.788  68.172  1.00  0.00    -0.118 C  
HETATM    9  C   UNL     1     -10.975  10.025  67.330  1.00  0.00    -0.258 A  
HETATM   10  C   UNL     1      -8.622   9.828  67.762  1.00  0.00    -0.125 A  
HETATM   11  F   UNL     1      -9.326  13.133  66.460  1.00  0.00    -0.238 F  
HETATM   12  H   UNL     1     -10.706   7.195  66.466  1.00  0.00     0.000 HD 
HETATM   13  F   UNL     1      -7.557   9.182  68.251  1.00  0.00    -0.080 F  
HETATM   14  C   UNL     1      -8.422  11.130  67.309  1.00  0.00    -0.137 A  
ENDROOT
BRANCH   2  15
HETATM   15  N   UNL     1     -10.281   8.641  70.716  1.00  0.00    -0.196 NA 
HETATM   16  C   UNL     1      -9.414   7.435  73.295  1.00  0.00    -0.262 C  
HETATM   17  C   UNL     1     -10.873   7.710  73.029  1.00  0.00    -0.457 C  
HETATM   18  C   UNL     1      -8.929   7.253  74.534  1.00  0.00    -0.166 C  
HETATM   19  C   UNL     1     -11.103   8.772  71.934  1.00  0.00    -0.364 C  
HETATM   20  C   UNL     1      -8.530   7.381  72.074  1.00  0.00    -0.119 C  
HETATM   21  C   UNL     1      -8.867   8.494  71.070  1.00  0.00    -0.175 C  
ENDBRANCH   2  15
BRANCH   8  22
HETATM   22  N   UNL     1      -8.468   6.480  66.833  1.00  0.00    -0.113 NA 
HETATM   23  C   UNL     1      -8.458   5.848  64.854  1.00  0.00    -0.085 A  
HETATM   24  C   UNL     1      -7.301   6.886  66.256  1.00  0.00    -0.076 A  
HETATM   25  N   UNL     1      -7.261   6.484  65.007  1.00  0.00    -0.064 NA 
HETATM   26  N   UNL     1      -9.235   5.828  65.939  1.00  0.00    -0.146 NA 
ENDBRANCH   8  22
TORSDOF 2
ENDMDL
MODEL       52
REMARK 921   NORMALIZED FREE ENERGY PREDICTED BY IDOCK:   -4.66 KCAL/MOL
REMARK 922        TOTAL FREE ENERGY PREDICTED BY IDOCK:   -5.71 KCAL/MOL
REMARK 923 INTER-LIGAND FREE ENERGY PREDICTED BY IDOCK:   -5.66 KCAL/MOL
REMARK 924 INTRA-LIGAND FREE ENERGY PREDICTED BY IDOCK:   -0.05 KCAL/MOL
REMARK 927      BINDING AFFINITY PREDICTED BY RF-SCORE:    0.00 PKD
ROOT
HETATM    1  C   UNL     1      -9.977   8.559  72.341  1.00  0.00    -0.365 C  
HETATM    2  C   UNL     1      -9.521   8.051  70.959  1.00  0.00    -0.157 C  
HETATM    3  C   UNL     1      -9.733   9.152  69.812  1.00  0.00    -0.181 C  
HETATM    4  C   UNL     1      -7.019   8.215  67.250  1.00  0.00    -0.075 A  
HETATM    5  O   UNL     1      -8.965  10.313  70.278  1.00  0.00    -0.303 OA 
HETATM    6  C   UNL     1      -7.779   7.804  66.164  1.00  0.00    -0.089 A  
HETATM    7  C   UNL     1      -9.071   8.675  68.510  1.00  0.00    -0.138 A  
HETATM    8  C   UNL     1     -11.201   9.662  69.726  1.00  0.00    -0.174 C  
HETATM    9  C   UNL     1      -7.660   8.647  68.412  1.00  0.00    -0.096 A  
HETATM   10  C   UNL     1      -9.793   8.199  67.405  1.00  0.00    -0.184 A  
HETATM   11  F   UNL     1      -7.165   7.396  65.046  1.00  0.00    -0.058 F  
HETATM   12  H   UNL     1      -9.090  10.964  69.598  1.00  0.00     0.000 HD 
HETATM   13  F   UNL     1     -11.125   8.081  67.454  1.00  0.00    -0.266 F  
HETATM   14  C   UNL     1      -9.162   7.790  66.232  1.00  0.00    -0.217 A  
ENDROOT
BRANCH   2  15
HETATM   15  N   UNL     1      -9.872   6.648  70.642  1.00  0.00    -0.183 NA 
HETATM   16  C   UNL     1     -10.649   4.743  72.792  1.00  0.00    -0.272 C  
HETATM   17  C   UNL     1      -9.199   5.090  72.562  1.00  0.00    -0.147 C  
HETATM   18  C   UNL     1     -11.029   3.645  73.466  1.00  0.00    -0.333 C  
HETATM   19  C   UNL     1      -8.922   5.639  71.147  1.00  0.00    -0.138 C  
HETATM   20  C   UNL     1     -11.649   5.711  72.211  1.00  0.00    -0.244 C  
HETATM   21  C   UNL     1     -11.249   6.175  70.802  1.00  0.00    -0.306 C  
ENDBRANCH   2  15
BRANCH   8  22
HETATM   22  N   UNL     1     -11.376  10.881  68.951  1.00  0.00    -0.264 NA 
HETATM   23  C   UNL     1     -11.742  12.142  67.342  1.00  0.00    -0.304 A  
HETATM   24  C   UNL     1     -11.545  12.148  69.426  1.00  0.00    -0.317 A  
HETATM   25  N   UNL     1     -11.762  12.970  68.426  1.00  0.00    -0.331 NA 
HETATM   26  N   UNL     1     -11.519  10.854  67.613  1.00  0.00    -0.518 NA 
ENDBRANCH   8  22
TORSDOF 2
ENDMDL
MODEL       53
REMARK 921   NORMALIZED FREE ENERGY PREDICTED BY IDOCK:   -4.61 KCAL/MOL
REMARK 922        TOTAL FREE ENERGY PREDICTED BY IDOCK:   -5.65 KCAL/MOL
REMARK 923 INTER-LIGAND FREE ENERGY PREDICTED BY IDOCK:   -5.47 KCAL/MOL
REMARK 924 INTRA-LIGAND FREE ENERGY PREDICTED BY IDOCK:   -0.18 KCAL/MOL
REMARK 927      BINDING AFFINITY PREDICTED BY RF-SCORE:    0.00 PKD
ROOT
HETATM    1  C   UNL     1      -7.764   9.658  69.745  1.00  0.00    -0.133 C  
HETATM    2  C   UNL     1      -8.783   9.932  68.621  1.00  0.00    -0.124 C  
HETATM    3  C   UNL     1      -8.457  11.288  67.828  1.00  0.00    -0.126 C  
HETATM    4  C   UNL     1      -9.966  10.603  64.356  1.00  0.00    -0.415 A  
HETATM    5  O   UNL     1      -7.090  11.095  67.329  1.00  0.00    -0.095 OA 
HETATM    6  C   UNL     1     -11.001  11.526  64.306  1.00  0.00    -0.341 A  
HETATM    7  C   UNL     1      -9.369  11.398  66.597  1.00  0.00    -0.198 A  
HETATM    8  C   UNL     1      -8.361  12.528  68.764  1.00  0.00     0.136 C  
HETATM    9  C   UNL     1      -9.157  10.539  65.491  1.00  0.00    -0.214 A  
HETATM   10  C   UNL     1     -10.460  12.275  66.518  1.00  0.00    -0.227 A  
HETATM   11  F   UNL     1     -11.773  11.592  63.213  1.00  0.00    -0.491 F  
HETATM   12  H   UNL     1      -6.897  11.898  66.859  1.00  0.00     0.000 HD 
HETATM   13  F   UNL     1     -10.803  13.039  67.562  1.00  0.00    -0.236 F  
HETATM   14  C   UNL     1     -11.256  12.363  65.379  1.00  0.00    -0.358 A  
ENDROOT
BRANCH   2  15
HETATM   15  N   UNL     1     -10.198   9.651  68.954  1.00  0.00    -0.193 NA 
HETATM   16  C   UNL     1     -10.937   7.310  70.637  1.00  0.00    -0.278 C  
HETATM   17  C   UNL     1     -10.591   7.129  69.180  1.00  0.00    -0.227 C  
HETATM   18  C   UNL     1     -11.622   6.390  71.335  1.00  0.00    -0.368 C  
HETATM   19  C   UNL     1     -10.747   8.420  68.352  1.00  0.00    -0.023 C  
HETATM   20  C   UNL     1     -10.465   8.600  71.260  1.00  0.00    -0.311 C  
HETATM   21  C   UNL     1     -10.680   9.802  70.329  1.00  0.00    -0.302 C  
ENDBRANCH   2  15
BRANCH   8  22
HETATM   22  N   UNL     1      -7.745  13.699  68.159  1.00  0.00    -0.125 NA 
HETATM   23  C   UNL     1      -7.473  15.654  67.511  1.00  0.00    -0.179 A  
HETATM   24  C   UNL     1      -6.438  13.856  67.803  1.00  0.00    -0.168 A  
HETATM   25  N   UNL     1      -6.242  15.082  67.373  1.00  0.00    -0.328 NA 
HETATM   26  N   UNL     1      -8.422  14.851  67.997  1.00  0.00    -0.146 NA 
ENDBRANCH   8  22
TORSDOF 2
ENDMDL
MODEL       54
REMARK 921   NORMALIZED FREE ENERGY PREDICTED BY IDOCK:   -4.60 KCAL/MOL
REMARK 922        TOTAL FREE ENERGY PREDICTED BY IDOCK:   -5.65 KCAL/MOL
REMARK 923 INTER-LIGAND FREE ENERGY PREDICTED BY IDOCK:   -5.15 KCAL/MOL
REMARK 924 INTRA-LIGAND FREE ENERGY PREDICTED BY IDOCK:   -0.50 KCAL/MOL
REMARK 927      BINDING AFFINITY PREDICTED BY RF-SCORE:    0.00 PKD
ROOT
HETATM    1  C   UNL     1      -8.795   8.089  66.030  1.00  0.00    -0.196 C  
HETATM    2  C   UNL     1      -9.690   8.308  67.266  1.00  0.00    -0.177 C  
HETATM    3  C   UNL     1      -9.106   9.440  68.241  1.00  0.00    -0.128 C  
HETATM    4  C   UNL     1     -12.279  10.778  69.958  1.00  0.00    -0.409 A  
HETATM    5  O   UNL     1      -9.001  10.632  67.391  1.00  0.00    -0.136 OA 
HETATM    6  C   UNL     1     -12.081  10.385  71.273  1.00  0.00    -0.362 A  
HETATM    7  C   UNL     1     -10.136   9.763  69.334  1.00  0.00    -0.221 A  
HETATM    8  C   UNL     1      -7.644   9.153  68.694  1.00  0.00    -0.084 C  
HETATM    9  C   UNL     1     -11.315  10.469  68.996  1.00  0.00    -0.319 A  
HETATM   10  C   UNL     1     -10.009   9.342  70.666  1.00  0.00    -0.273 A  
HETATM   11  F   UNL     1     -13.002  10.687  72.197  1.00  0.00    -0.527 F  
HETATM   12  H   UNL     1      -8.655  11.302  67.968  1.00  0.00     0.000 HD 
HETATM   13  F   UNL     1      -8.984   8.570  71.047  1.00  0.00    -0.144 F  
HETATM   14  C   UNL     1     -10.954   9.668  71.636  1.00  0.00    -0.149 A  
ENDROOT
BRANCH   2  15
HETATM   15  N   UNL     1     -10.241   7.082  67.886  1.00  0.00    -0.172 NA 
HETATM   16  C   UNL     1      -9.356   4.385  66.991  1.00  0.00    -0.170 C  
HETATM   17  C   UNL     1     -10.351   5.175  66.178  1.00  0.00    -0.280 C  
HETATM   18  C   UNL     1      -9.205   3.058  66.854  1.00  0.00    -0.177 C  
HETATM   19  C   UNL     1     -11.082   6.259  66.996  1.00  0.00    -0.297 C  
HETATM   20  C   UNL     1      -8.540   5.186  67.974  1.00  0.00    -0.103 C  
HETATM   21  C   UNL     1      -9.392   6.226  68.717  1.00  0.00    -0.124 C  
ENDBRANCH   2  15
BRANCH   8  22
HETATM   22  N   UNL     1      -6.959  10.289  69.291  1.00  0.00    -0.064 NA 
HETATM   23  C   UNL     1      -6.234  12.217  69.561  1.00  0.00    -0.127 A  
HETATM   24  C   UNL     1      -6.496  10.400  70.568  1.00  0.00    -0.093 A  
HETATM   25  N   UNL     1      -6.016  11.607  70.762  1.00  0.00    -0.346 NA 
HETATM   26  N   UNL     1      -6.816  11.455  68.633  1.00  0.00    -0.072 NA 
ENDBRANCH   8  22
TORSDOF 2
ENDMDL
MODEL       55
REMARK 921   NORMALIZED FREE ENERGY PREDICTED BY IDOCK:   -4.60 KCAL/MOL
REMARK 922        TOTAL FREE ENERGY PREDICTED BY IDOCK:   -5.64 KCAL/MOL
REMARK 923 INTER-LIGAND FREE ENERGY PREDICTED BY IDOCK:   -5.02 KCAL/MOL
REMARK 924 INTRA-LIGAND FREE ENERGY PREDICTED BY IDOCK:   -0.62 KCAL/MOL
REMARK 927      BINDING AFFINITY PREDICTED BY RF-SCORE:    0.00 PKD
ROOT
HETATM    1  C   UNL     1      -8.250  11.013  66.906  1.00  0.00    -0.140 C  
HETATM    2  C   UNL     1      -9.091  10.457  68.072  1.00  0.00    -0.136 C  
HETATM    3  C   UNL     1      -8.739   8.926  68.395  1.00  0.00    -0.134 C  
HETATM    4  C   UNL     1      -9.618   8.640  72.130  1.00  0.00    -0.378 A  
HETATM    5  O   UNL     1      -7.300   8.938  68.681  1.00  0.00    -0.075 OA 
HETATM    6  C   UNL     1     -10.694   7.765  72.106  1.00  0.00    -0.248 A  
HETATM    7  C   UNL     1      -9.447   8.495  69.689  1.00  0.00    -0.165 A  
HETATM    8  C   UNL     1      -8.884   7.998  67.154  1.00  0.00    -0.131 C  
HETATM    9  C   UNL     1      -9.000   9.003  70.932  1.00  0.00    -0.300 A  
HETATM   10  C   UNL     1     -10.571   7.657  69.713  1.00  0.00    -0.244 A  
HETATM   11  F   UNL     1     -11.283   7.412  73.255  1.00  0.00    -0.368 F  
HETATM   12  H   UNL     1      -7.092   8.031  68.873  1.00  0.00     0.000 HD 
HETATM   13  F   UNL     1     -11.130   7.225  68.577  1.00  0.00    -0.175 F  
HETATM   14  C   UNL     1     -11.177   7.270  70.906  1.00  0.00    -0.298 A  
ENDROOT
BRANCH   2  15
HETATM   15  N   UNL     1     -10.518  10.854  68.081  1.00  0.00    -0.173 NA 
HETATM   16  C   UNL     1     -11.453  13.237  66.563  1.00  0.00    -0.372 C  
HETATM   17  C   UNL     1     -10.752  13.398  67.890  1.00  0.00    -0.259 C  
HETATM   18  C   UNL     1     -12.210  14.206  66.025  1.00  0.00    -0.464 C  
HETATM   19  C   UNL     1     -10.806  12.129  68.764  1.00  0.00    -0.228 C  
HETATM   20  C   UNL     1     -11.249  11.908  65.879  1.00  0.00    -0.373 C  
HETATM   21  C   UNL     1     -11.328  10.734  66.866  1.00  0.00     0.100 C  
ENDBRANCH   2  15
BRANCH   8  22
HETATM   22  N   UNL     1      -8.263   6.690  67.298  1.00  0.00    -0.120 NA 
HETATM   23  C   UNL     1      -6.816   5.233  67.612  1.00  0.00    -0.060 A  
HETATM   24  C   UNL     1      -8.889   5.490  67.465  1.00  0.00    -0.105 A  
HETATM   25  N   UNL     1      -7.995   4.546  67.650  1.00  0.00    -0.095 NA 
HETATM   26  N   UNL     1      -6.930   6.547  67.409  1.00  0.00    -0.076 NA 
ENDBRANCH   8  22
TORSDOF 2
ENDMDL
MODEL       56
REMARK 921   NORMALIZED FREE ENERGY PREDICTED BY IDOCK:   -4.55 KCAL/MOL
REMARK 922        TOTAL FREE ENERGY PREDICTED BY IDOCK:   -5.59 KCAL/MOL
REMARK 923 INTER-LIGAND FREE ENERGY PREDICTED BY IDOCK:   -5.04 KCAL/MOL
REMARK 924 INTRA-LIGAND FREE ENERGY PREDICTED BY IDOCK:   -0.55 KCAL/MOL
REMARK 927      BINDING AFFINITY PREDICTED BY RF-SCORE:    0.00 PKD
ROOT
HETATM    1  C   UNL     1      -7.318   9.391  68.756  1.00  0.00    -0.074 C  
HETATM    2  C   UNL     1      -8.790   9.118  69.121  1.00  0.00    -0.146 C  
HETATM    3  C   UNL     1      -8.931   8.322  70.507  1.00  0.00    -0.147 C  
HETATM    4  C   UNL     1     -12.395   9.434  71.757  1.00  0.00    -0.471 A  
HETATM    5  O   UNL     1      -8.246   9.176  71.486  1.00  0.00    -0.334 OA 
HETATM    6  C   UNL     1     -13.117   8.252  71.693  1.00  0.00    -0.334 A  
HETATM    7  C   UNL     1     -10.409   8.266  70.922  1.00  0.00    -0.225 A  
HETATM    8  C   UNL     1      -8.129   6.988  70.522  1.00  0.00    -0.114 C  
HETATM    9  C   UNL     1     -11.053   9.442  71.375  1.00  0.00    -0.450 A  
HETATM   10  C   UNL     1     -11.196   7.109  70.825  1.00  0.00    -0.279 A  
HETATM   11  F   UNL     1     -14.403   8.243  72.066  1.00  0.00    -0.427 F  
HETATM   12  H   UNL     1      -8.330   8.704  72.306  1.00  0.00     0.000 HD 
HETATM   13  F   UNL     1     -10.699   5.983  70.299  1.00  0.00    -0.265 F  
HETATM   14  C   UNL     1     -12.529   7.088  71.228  1.00  0.00    -0.430 A  
ENDROOT
BRANCH   2  15
HETATM   15  N   UNL     1      -9.665   8.709  67.999  1.00  0.00    -0.153 NA 
HETATM   16  C   UNL     1      -8.552   8.265  65.275  1.00  0.00    -0.159 C  
HETATM   17  C   UNL     1      -8.802   9.663  65.783  1.00  0.00    -0.186 C  
HETATM   18  C   UNL     1      -8.414   7.987  63.969  1.00  0.00     0.124 C  
HETATM   19  C   UNL     1      -9.826   9.718  66.935  1.00  0.00    -0.201 C  
HETATM   20  C   UNL     1      -8.468   7.195  66.334  1.00  0.00    -0.130 C  
HETATM   21  C   UNL     1      -9.545   7.370  67.416  1.00  0.00    -0.148 C  
ENDBRANCH   2  15
BRANCH   8  22
HETATM   22  N   UNL     1      -7.946   6.404  71.842  1.00  0.00    -0.104 NA 
HETATM   23  C   UNL     1      -7.402   6.206  73.838  1.00  0.00    -0.087 A  
HETATM   24  C   UNL     1      -8.535   5.279  72.340  1.00  0.00    -0.122 A  
HETATM   25  N   UNL     1      -8.194   5.121  73.598  1.00  0.00    -0.109 NA 
HETATM   26  N   UNL     1      -7.229   7.024  72.798  1.00  0.00    -0.073 NA 
ENDBRANCH   8  22
TORSDOF 2
ENDMDL
MODEL       57
REMARK 921   NORMALIZED FREE ENERGY PREDICTED BY IDOCK:   -4.54 KCAL/MOL
REMARK 922        TOTAL FREE ENERGY PREDICTED BY IDOCK:   -5.58 KCAL/MOL
REMARK 923 INTER-LIGAND FREE ENERGY PREDICTED BY IDOCK:   -5.23 KCAL/MOL
REMARK 924 INTRA-LIGAND FREE ENERGY PREDICTED BY IDOCK:   -0.35 KCAL/MOL
REMARK 927      BINDING AFFINITY PREDICTED BY RF-SCORE:    0.00 PKD
ROOT
HETATM    1  C   UNL     1      -6.729  12.391  69.535  1.00  0.00     0.015 C  
HETATM    2  C   UNL     1      -7.806  12.921  68.568  1.00  0.00    -0.099 C  
HETATM    3  C   UNL     1      -8.856  11.783  68.150  1.00  0.00    -0.169 C  
HETATM    4  C   UNL     1     -12.022  13.821  67.359  1.00  0.00    -0.423 A  
HETATM    5  O   UNL     1      -9.412  11.317  69.426  1.00  0.00    -0.399 OA 
HETATM    6  C   UNL     1     -12.163  13.615  65.994  1.00  0.00    -0.449 A  
HETATM    7  C   UNL     1     -10.015  12.413  67.363  1.00  0.00    -0.203 A  
HETATM    8  C   UNL     1      -8.172  10.525  67.538  1.00  0.00    -0.114 C  
HETATM    9  C   UNL     1     -10.957  13.226  68.037  1.00  0.00    -0.266 A  
HETATM   10  C   UNL     1     -10.171  12.279  65.975  1.00  0.00    -0.243 A  
HETATM   11  F   UNL     1     -13.188  14.180  65.345  1.00  0.00    -0.521 F  
HETATM   12  H   UNL     1     -10.033  10.643  69.178  1.00  0.00     0.000 HD 
HETATM   13  F   UNL     1      -9.262  11.625  65.242  1.00  0.00    -0.215 F  
HETATM   14  C   UNL     1     -11.245  12.849  65.295  1.00  0.00    -0.319 A  
ENDROOT
BRANCH   2  15
HETATM   15  N   UNL     1      -7.322  13.836  67.508  1.00  0.00    -0.174 NA 
HETATM   16  C   UNL     1      -6.432  16.599  68.163  1.00  0.00    -0.141 C  
HETATM   17  C   UNL     1      -7.901  16.266  68.078  1.00  0.00    -0.154 C  
HETATM   18  C   UNL     1      -5.972  17.858  68.082  1.00  0.00    -0.170 C  
HETATM   19  C   UNL     1      -8.191  15.000  67.247  1.00  0.00    -0.211 C  
HETATM   20  C   UNL     1      -5.509  15.420  68.343  1.00  0.00    -0.107 C  
HETATM   21  C   UNL     1      -5.913  14.232  67.457  1.00  0.00     0.105 C  
ENDBRANCH   2  15
BRANCH   8  22
HETATM   22  N   UNL     1      -9.025   9.349  67.457  1.00  0.00    -0.121 NA 
HETATM   23  C   UNL     1     -10.263   7.785  68.036  1.00  0.00    -0.201 A  
HETATM   24  C   UNL     1      -9.592   8.812  66.340  1.00  0.00    -0.249 A  
HETATM   25  N   UNL     1     -10.369   7.808  66.676  1.00  0.00    -0.256 NA 
HETATM   26  N   UNL     1      -9.461   8.713  68.561  1.00  0.00    -0.141 NA 
ENDBRANCH   8  22
TORSDOF 2
ENDMDL
MODEL       58
REMARK 921   NORMALIZED FREE ENERGY PREDICTED BY IDOCK:   -4.53 KCAL/MOL
REMARK 922        TOTAL FREE ENERGY PREDICTED BY IDOCK:   -5.56 KCAL/MOL
REMARK 923 INTER-LIGAND FREE ENERGY PREDICTED BY IDOCK:   -5.07 KCAL/MOL
REMARK 924 INTRA-LIGAND FREE ENERGY PREDICTED BY IDOCK:   -0.49 KCAL/MOL
REMARK 927      BINDING AFFINITY PREDICTED BY RF-SCORE:    0.00 PKD
ROOT
HETATM    1  C   UNL     1      -8.882   7.265  66.072  1.00  0.00    -0.161 C  
HETATM    2  C   UNL     1      -9.057   7.228  67.603  1.00  0.00    -0.124 C  
HETATM    3  C   UNL     1      -9.833   8.519  68.154  1.00  0.00    -0.165 C  
HETATM    4  C   UNL     1     -11.484   7.190  71.365  1.00  0.00    -0.303 A  
HETATM    5  O   UNL     1     -11.110   8.509  67.431  1.00  0.00    -0.435 OA 
HETATM    6  C   UNL     1     -10.820   7.909  72.349  1.00  0.00    -0.317 A  
HETATM    7  C   UNL     1     -10.162   8.328  69.643  1.00  0.00    -0.209 A  
HETATM    8  C   UNL     1      -9.156   9.856  67.735  1.00  0.00    -0.131 C  
HETATM    9  C   UNL     1     -11.158   7.398  70.024  1.00  0.00    -0.238 A  
HETATM   10  C   UNL     1      -9.483   8.989  70.676  1.00  0.00    -0.236 A  
HETATM   11  F   UNL     1     -11.137   7.715  73.635  1.00  0.00    -0.394 F  
HETATM   12  H   UNL     1     -11.570   9.274  67.758  1.00  0.00     0.000 HD 
HETATM   13  F   UNL     1      -8.450   9.798  70.412  1.00  0.00    -0.193 F  
HETATM   14  C   UNL     1      -9.820   8.807  72.016  1.00  0.00    -0.376 A  
ENDROOT
BRANCH   2  15
HETATM   15  N   UNL     1      -7.886   6.747  68.372  1.00  0.00    -0.112 NA 
HETATM   16  C   UNL     1      -6.370   4.339  67.502  1.00  0.00    -0.037 C  
HETATM   17  C   UNL     1      -7.689   4.197  68.221  1.00  0.00    -0.070 C  
HETATM   18  C   UNL     1      -5.482   3.335  67.421  1.00  0.00    -0.020 C  
HETATM   19  C   UNL     1      -8.072   5.445  69.041  1.00  0.00    -0.094 C  
HETATM   20  C   UNL     1      -6.111   5.688  66.881  1.00  0.00    -0.026 C  
HETATM   21  C   UNL     1      -6.539   6.839  67.805  1.00  0.00    -0.058 C  
ENDBRANCH   2  15
BRANCH   8  22
HETATM   22  N   UNL     1      -9.984  11.039  67.912  1.00  0.00    -0.171 NA 
HETATM   23  C   UNL     1     -11.670  12.244  68.069  1.00  0.00    -0.356 A  
HETATM   24  C   UNL     1      -9.603  12.252  68.405  1.00  0.00    -0.183 A  
HETATM   25  N   UNL     1     -10.649  13.040  68.499  1.00  0.00    -0.255 NA 
HETATM   26  N   UNL     1     -11.314  11.009  67.708  1.00  0.00    -0.407 NA 
ENDBRANCH   8  22
TORSDOF 2
ENDMDL
MODEL       59
REMARK 921   NORMALIZED FREE ENERGY PREDICTED BY IDOCK:   -4.51 KCAL/MOL
REMARK 922        TOTAL FREE ENERGY PREDICTED BY IDOCK:   -5.54 KCAL/MOL
REMARK 923 INTER-LIGAND FREE ENERGY PREDICTED BY IDOCK:   -5.16 KCAL/MOL
REMARK 924 INTRA-LIGAND FREE ENERGY PREDICTED BY IDOCK:   -0.39 KCAL/MOL
REMARK 927      BINDING AFFINITY PREDICTED BY RF-SCORE:    0.00 PKD
ROOT
HETATM    1  C   UNL     1     -10.492  11.183  64.026  1.00  0.00    -0.447 C  
HETATM    2  C   UNL     1      -9.902  10.588  65.320  1.00  0.00    -0.284 C  
HETATM    3  C   UNL     1     -10.290  11.453  66.614  1.00  0.00    -0.233 C  
HETATM    4  C   UNL     1     -10.200   8.829  69.427  1.00  0.00    -0.210 A  
HETATM    5  O   UNL     1     -11.758  11.473  66.609  1.00  0.00    -0.486 OA 
HETATM    6  C   UNL     1      -9.129   9.266  70.193  1.00  0.00    -0.222 A  
HETATM    7  C   UNL     1      -9.860  10.704  67.884  1.00  0.00    -0.181 A  
HETATM    8  C   UNL     1      -9.878  12.949  66.488  1.00  0.00    -0.254 C  
HETATM    9  C   UNL     1     -10.562   9.542  68.282  1.00  0.00    -0.260 A  
HETATM   10  C   UNL     1      -8.753  11.074  68.662  1.00  0.00    -0.161 A  
HETATM   11  F   UNL     1      -8.786   8.587  71.294  1.00  0.00    -0.151 F  
HETATM   12  H   UNL     1     -11.988  11.985  67.375  1.00  0.00     0.000 HD 
HETATM   13  F   UNL     1      -7.964  12.090  68.295  1.00  0.00    -0.118 F  
HETATM   14  C   UNL     1      -8.401  10.383  69.820  1.00  0.00    -0.018 A  
ENDROOT
BRANCH   2  15
HETATM   15  N   UNL     1      -8.514  10.082  65.220  1.00  0.00    -0.146 NA 
HETATM   16  C   UNL     1      -7.888   7.636  63.645  1.00  0.00    -0.120 C  
HETATM   17  C   UNL     1      -8.494   7.528  65.023  1.00  0.00    -0.008 C  
HETATM   18  C   UNL     1      -7.252   6.611  63.055  1.00  0.00    -0.059 C  
HETATM   19  C   UNL     1      -8.274   8.787  65.885  1.00  0.00    -0.118 C  
HETATM   20  C   UNL     1      -8.040   8.978  62.973  1.00  0.00    -0.167 C  
HETATM   21  C   UNL     1      -7.794  10.140  63.946  1.00  0.00    -0.149 C  
ENDBRANCH   2  15
BRANCH   8  22
HETATM   22  N   UNL     1     -10.496  13.834  67.464  1.00  0.00    -0.244 NA 
HETATM   23  C   UNL     1     -11.955  14.851  68.538  1.00  0.00    -0.241 A  
HETATM   24  C   UNL     1      -9.911  14.395  68.560  1.00  0.00    -0.237 A  
HETATM   25  N   UNL     1     -10.810  15.059  69.250  1.00  0.00    -0.251 NA 
HETATM   26  N   UNL     1     -11.815  14.101  67.443  1.00  0.00    -0.396 NA 
ENDBRANCH   8  22
TORSDOF 2
ENDMDL
MODEL       60
REMARK 921   NORMALIZED FREE ENERGY PREDICTED BY IDOCK:   -4.51 KCAL/MOL
REMARK 922        TOTAL FREE ENERGY PREDICTED BY IDOCK:   -5.54 KCAL/MOL
REMARK 923 INTER-LIGAND FREE ENERGY PREDICTED BY IDOCK:   -6.34 KCAL/MOL
REMARK 924 INTRA-LIGAND FREE ENERGY PREDICTED BY IDOCK:    0.80 KCAL/MOL
REMARK 927      BINDING AFFINITY PREDICTED BY RF-SCORE:    0.00 PKD
ROOT
HETATM    1  C   UNL     1      -9.859  10.906  66.723  1.00  0.00    -0.231 C  
HETATM    2  C   UNL     1      -9.818  12.442  66.849  1.00  0.00    -0.215 C  
HETATM    3  C   UNL     1     -10.382  12.947  68.263  1.00  0.00    -0.244 C  
HETATM    4  C   UNL     1      -8.520  16.277  68.760  1.00  0.00    -0.240 A  
HETATM    5  O   UNL     1      -9.537  12.268  69.253  1.00  0.00    -0.201 OA 
HETATM    6  C   UNL     1      -9.556  17.198  68.692  1.00  0.00    -0.281 A  
HETATM    7  C   UNL     1     -10.122  14.453  68.415  1.00  0.00    -0.244 A  
HETATM    8  C   UNL     1     -11.821  12.434  68.558  1.00  0.00    -0.304 C  
HETATM    9  C   UNL     1      -8.800  14.917  68.622  1.00  0.00    -0.179 A  
HETATM   10  C   UNL     1     -11.125  15.427  68.301  1.00  0.00    -0.309 A  
HETATM   11  F   UNL     1      -9.288  18.503  68.831  1.00  0.00    -0.331 F  
HETATM   12  H   UNL     1      -9.872  12.567  70.090  1.00  0.00     0.000 HD 
HETATM   13  F   UNL     1     -12.381  15.085  67.990  1.00  0.00    -0.226 F  
HETATM   14  C   UNL     1     -10.857  16.785  68.463  1.00  0.00    -0.345 A  
ENDROOT
BRANCH   2  15
HETATM   15  N   UNL     1     -10.215  13.197  65.639  1.00  0.00    -0.285 NA 
HETATM   16  C   UNL     1     -12.231  12.099  63.745  1.00  0.00    -0.630 C  
HETATM   17  C   UNL     1     -10.808  11.596  63.728  1.00  0.00    -0.493 C  
HETATM   18  C   UNL     1     -13.067  11.930  62.708  1.00  0.00     0.953 C  
HETATM   19  C   UNL     1      -9.807  12.584  64.360  1.00  0.00    -0.070 C  
HETATM   20  C   UNL     1     -12.654  12.808  65.007  1.00  0.00    -0.538 C  
HETATM   21  C   UNL     1     -11.563  13.758  65.525  1.00  0.00    -0.326 C  
ENDBRANCH   2  15
BRANCH   8  22
HETATM   22  N   UNL     1     -12.244  12.574  69.943  1.00  0.00    -0.215 NA 
HETATM   23  C   UNL     1     -12.968  13.429  71.693  1.00  0.00    -0.355 A  
HETATM   24  C   UNL     1     -12.505  11.576  70.835  1.00  0.00    -0.366 A  
HETATM   25  N   UNL     1     -12.949  12.091  71.958  1.00  0.00    -0.346 NA 
HETATM   26  N   UNL     1     -12.555  13.772  70.471  1.00  0.00    -0.317 NA 
ENDBRANCH   8  22
TORSDOF 2
ENDMDL
MODEL       61
REMARK 921   NORMALIZED FREE ENERGY PREDICTED BY IDOCK:   -4.48 KCAL/MOL
REMARK 922        TOTAL FREE ENERGY PREDICTED BY IDOCK:   -5.51 KCAL/MOL
REMARK 923 INTER-LIGAND FREE ENERGY PREDICTED BY IDOCK:   -5.00 KCAL/MOL
REMARK 924 INTRA-LIGAND FREE ENERGY PREDICTED BY IDOCK:   -0.51 KCAL/MOL
REMARK 927      BINDING AFFINITY PREDICTED BY RF-SCORE:    0.00 PKD
ROOT
HETATM    1  C   UNL     1     -12.034  12.342  67.255  1.00  0.00    -0.246 C  
HETATM    2  C   UNL     1     -10.855  13.251  67.656  1.00  0.00    -0.258 C  
HETATM    3  C   UNL     1      -9.517  12.897  66.845  1.00  0.00    -0.237 C  
HETATM    4  C   UNL     1      -7.644  16.258  66.824  1.00  0.00    -0.285 A  
HETATM    5  O   UNL     1      -9.899  13.043  65.435  1.00  0.00    -0.438 OA 
HETATM    6  C   UNL     1      -6.534  15.973  67.605  1.00  0.00    -0.164 A  
HETATM    7  C   UNL     1      -8.445  13.962  67.127  1.00  0.00    -0.196 A  
HETATM    8  C   UNL     1      -9.101  11.404  66.986  1.00  0.00    -0.167 C  
HETATM    9  C   UNL     1      -8.592  15.262  66.587  1.00  0.00    -0.305 A  
HETATM   10  C   UNL     1      -7.334  13.739  67.953  1.00  0.00    -0.153 A  
HETATM   11  F   UNL     1      -5.621  16.928  67.826  1.00  0.00    -0.104 F  
HETATM   12  H   UNL     1      -9.107  12.833  64.955  1.00  0.00     0.000 HD 
HETATM   13  F   UNL     1      -7.178  12.577  68.597  1.00  0.00    -0.087 F  
HETATM   14  C   UNL     1      -6.370  14.721  68.173  1.00  0.00    -0.144 A  
ENDROOT
BRANCH   2  15
HETATM   15  N   UNL     1     -10.729  13.539  69.102  1.00  0.00    -0.146 NA 
HETATM   16  C   UNL     1     -12.930  14.876  70.594  1.00  0.00    -0.389 C  
HETATM   17  C   UNL     1     -12.001  15.677  69.715  1.00  0.00    -0.371 C  
HETATM   18  C   UNL     1     -13.677  15.441  71.556  1.00  0.00    -0.601 C  
HETATM   19  C   UNL     1     -10.656  14.971  69.449  1.00  0.00    -0.256 C  
HETATM   20  C   UNL     1     -12.962  13.393  70.323  1.00  0.00     0.188 C  
HETATM   21  C   UNL     1     -11.557  12.823  70.076  1.00  0.00    -0.120 C  
ENDBRANCH   2  15
BRANCH   8  22
HETATM   22  N   UNL     1      -8.110  10.956  66.019  1.00  0.00    -0.159 NA 
HETATM   23  C   UNL     1      -7.240  10.431  64.208  1.00  0.00     0.013 A  
HETATM   24  C   UNL     1      -6.765  10.837  66.206  1.00  0.00    -0.134 A  
HETATM   25  N   UNL     1      -6.190  10.489  65.078  1.00  0.00    -0.102 NA 
HETATM   26  N   UNL     1      -8.432  10.716  64.735  1.00  0.00    -0.143 NA 
ENDBRANCH   8  22
TORSDOF 2
ENDMDL
MODEL       62
REMARK 921   NORMALIZED FREE ENERGY PREDICTED BY IDOCK:   -4.48 KCAL/MOL
REMARK 922        TOTAL FREE ENERGY PREDICTED BY IDOCK:   -5.50 KCAL/MOL
REMARK 923 INTER-LIGAND FREE ENERGY PREDICTED BY IDOCK:   -5.06 KCAL/MOL
REMARK 924 INTRA-LIGAND FREE ENERGY PREDICTED BY IDOCK:   -0.44 KCAL/MOL
REMARK 927      BINDING AFFINITY PREDICTED BY RF-SCORE:    0.00 PKD
ROOT
HETATM    1  C   UNL     1      -9.268   8.704  71.168  1.00  0.00    -0.269 C  
HETATM    2  C   UNL     1      -9.487   7.534  70.188  1.00  0.00    -0.161 C  
HETATM    3  C   UNL     1      -9.217   7.963  68.666  1.00  0.00    -0.142 C  
HETATM    4  C   UNL     1      -8.169   4.638  67.039  1.00  0.00    -0.106 A  
HETATM    5  O   UNL     1      -7.834   8.457  68.669  1.00  0.00    -0.111 OA 
HETATM    6  C   UNL     1      -9.217   4.405  66.160  1.00  0.00    -0.141 A  
HETATM    7  C   UNL     1      -9.242   6.718  67.766  1.00  0.00    -0.111 A  
HETATM    8  C   UNL     1     -10.069   9.188  68.222  1.00  0.00    -0.191 C  
HETATM    9  C   UNL     1      -8.181   5.784  67.835  1.00  0.00    -0.101 A  
HETATM   10  C   UNL     1     -10.303   6.410  66.902  1.00  0.00    -0.241 A  
HETATM   11  F   UNL     1      -9.202   3.309  65.391  1.00  0.00    -0.133 F  
HETATM   12  H   UNL     1      -7.674   8.710  67.768  1.00  0.00     0.000 HD 
HETATM   13  F   UNL     1     -11.399   7.177  66.860  1.00  0.00    -0.431 F  
HETATM   14  C   UNL     1     -10.286   5.282  66.086  1.00  0.00    -0.238 A  
ENDROOT
BRANCH   2  15
HETATM   15  N   UNL     1     -10.662   6.676  70.464  1.00  0.00    -0.235 NA 
HETATM   16  C   UNL     1     -10.768   4.965  72.897  1.00  0.00    -0.297 C  
HETATM   17  C   UNL     1      -9.955   4.544  71.697  1.00  0.00    -0.266 C  
HETATM   18  C   UNL     1     -11.153   4.098  73.847  1.00  0.00    -0.257 C  
HETATM   19  C   UNL     1     -10.404   5.225  70.389  1.00  0.00    -0.275 C  
HETATM   20  C   UNL     1     -11.122   6.430  72.959  1.00  0.00    -0.231 C  
HETATM   21  C   UNL     1     -11.551   6.977  71.589  1.00  0.00    -0.285 C  
ENDBRANCH   2  15
BRANCH   8  22
HETATM   22  N   UNL     1      -9.627   9.820  66.989  1.00  0.00    -0.166 NA 
HETATM   23  C   UNL     1      -8.412  10.793  65.613  1.00  0.00    -0.163 A  
HETATM   24  C   UNL     1     -10.225   9.756  65.765  1.00  0.00    -0.152 A  
HETATM   25  N   UNL     1      -9.484  10.379  64.878  1.00  0.00    -0.239 NA 
HETATM   26  N   UNL     1      -8.449  10.467  66.907  1.00  0.00    -0.123 NA 
ENDBRANCH   8  22
TORSDOF 2
ENDMDL
MODEL       63
REMARK 921   NORMALIZED FREE ENERGY PREDICTED BY IDOCK:   -4.44 KCAL/MOL
REMARK 922        TOTAL FREE ENERGY PREDICTED BY IDOCK:   -5.47 KCAL/MOL
REMARK 923 INTER-LIGAND FREE ENERGY PREDICTED BY IDOCK:   -5.61 KCAL/MOL
REMARK 924 INTRA-LIGAND FREE ENERGY PREDICTED BY IDOCK:    0.14 KCAL/MOL
REMARK 927      BINDING AFFINITY PREDICTED BY RF-SCORE:    0.00 PKD
ROOT
HETATM    1  C   UNL     1     -12.624  12.804  65.206  1.00  0.00    -0.460 C  
HETATM    2  C   UNL     1     -11.302  12.373  65.872  1.00  0.00    -0.356 C  
HETATM    3  C   UNL     1     -11.167  12.938  67.367  1.00  0.00    -0.291 C  
HETATM    4  C   UNL     1      -8.885  10.331  69.039  1.00  0.00    -0.170 A  
HETATM    5  O   UNL     1     -12.353  12.420  68.059  1.00  0.00    -0.237 OA 
HETATM    6  C   UNL     1      -7.740  11.072  69.293  1.00  0.00    -0.068 A  
HETATM    7  C   UNL     1      -9.943  12.308  68.049  1.00  0.00    -0.202 A  
HETATM    8  C   UNL     1     -11.314  14.486  67.444  1.00  0.00    -0.356 C  
HETATM    9  C   UNL     1      -9.977  10.943  68.422  1.00  0.00    -0.188 A  
HETATM   10  C   UNL     1      -8.744  12.999  68.278  1.00  0.00    -0.173 A  
HETATM   11  F   UNL     1      -6.695  10.486  69.890  1.00  0.00    -0.077 F  
HETATM   12  H   UNL     1     -12.272  12.755  68.944  1.00  0.00     0.000 HD 
HETATM   13  F   UNL     1      -8.585  14.257  67.853  1.00  0.00    -0.143 F  
HETATM   14  C   UNL     1      -7.659  12.402  68.916  1.00  0.00     0.035 A  
ENDROOT
BRANCH   2  15
HETATM   15  N   UNL     1     -10.102  12.418  65.006  1.00  0.00    -0.270 NA 
HETATM   16  C   UNL     1      -9.362  10.099  63.295  1.00  0.00    -0.332 C  
HETATM   17  C   UNL     1      -9.064  10.087  64.774  1.00  0.00    -0.268 C  
HETATM   18  C   UNL     1      -8.740   9.283  62.429  1.00  0.00    -0.241 C  
HETATM   19  C   UNL     1      -9.017  11.497  65.396  1.00  0.00     0.018 C  
HETATM   20  C   UNL     1     -10.406  11.092  62.851  1.00  0.00    -0.095 C  
HETATM   21  C   UNL     1     -10.241  12.451  63.548  1.00  0.00    -0.305 C  
ENDBRANCH   2  15
BRANCH   8  22
HETATM   22  N   UNL     1     -11.536  15.009  68.783  1.00  0.00    -0.302 NA 
HETATM   23  C   UNL     1     -12.355  15.263  70.675  1.00  0.00    -0.377 A  
HETATM   24  C   UNL     1     -10.702  15.806  69.510  1.00  0.00    -0.278 A  
HETATM   25  N   UNL     1     -11.205  15.997  70.708  1.00  0.00    -0.365 NA 
HETATM   26  N   UNL     1     -12.595  14.634  69.523  1.00  0.00    -0.107 NA 
ENDBRANCH   8  22
TORSDOF 2
ENDMDL
MODEL       64
REMARK 921   NORMALIZED FREE ENERGY PREDICTED BY IDOCK:   -4.44 KCAL/MOL
REMARK 922        TOTAL FREE ENERGY PREDICTED BY IDOCK:   -5.46 KCAL/MOL
REMARK 923 INTER-LIGAND FREE ENERGY PREDICTED BY IDOCK:   -4.90 KCAL/MOL
REMARK 924 INTRA-LIGAND FREE ENERGY PREDICTED BY IDOCK:   -0.57 KCAL/MOL
REMARK 927      BINDING AFFINITY PREDICTED BY RF-SCORE:    0.00 PKD
ROOT
HETATM    1  C   UNL     1     -10.254   4.908  66.203  1.00  0.00    -0.309 C  
HETATM    2  C   UNL     1     -10.176   5.117  67.728  1.00  0.00    -0.132 C  
HETATM    3  C   UNL     1     -10.300   6.664  68.133  1.00  0.00    -0.190 C  
HETATM    4  C   UNL     1     -11.781   6.479  71.679  1.00  0.00    -0.374 A  
HETATM    5  O   UNL     1     -11.586   7.085  67.563  1.00  0.00    -0.481 OA 
HETATM    6  C   UNL     1     -10.742   6.977  72.451  1.00  0.00    -0.231 A  
HETATM    7  C   UNL     1     -10.428   6.790  69.659  1.00  0.00    -0.243 A  
HETATM    8  C   UNL     1      -9.244   7.562  67.424  1.00  0.00    -0.132 C  
HETATM    9  C   UNL     1     -11.626   6.386  70.295  1.00  0.00    -0.451 A  
HETATM   10  C   UNL     1      -9.389   7.236  70.488  1.00  0.00    -0.158 A  
HETATM   11  F   UNL     1     -10.893   7.072  73.778  1.00  0.00    -0.365 F  
HETATM   12  H   UNL     1     -11.659   8.001  67.803  1.00  0.00     0.000 HD 
HETATM   13  F   UNL     1      -8.185   7.528  69.983  1.00  0.00    -0.119 F  
HETATM   14  C   UNL     1      -9.545   7.356  71.867  1.00  0.00    -0.174 A  
ENDROOT
BRANCH   2  15
HETATM   15  N   UNL     1      -9.167   4.298  68.437  1.00  0.00    -0.129 NA 
HETATM   16  C   UNL     1      -7.420   2.400  66.953  1.00  0.00    -0.065 C  
HETATM   17  C   UNL     1      -8.851   2.039  67.269  1.00  0.00    -0.154 C  
HETATM   18  C   UNL     1      -6.498   1.477  66.634  1.00  0.00    -0.023 C  
HETATM   19  C   UNL     1      -9.436   2.847  68.445  1.00  0.00    -0.143 C  
HETATM   20  C   UNL     1      -7.091   3.870  67.022  1.00  0.00    -0.063 C  
HETATM   21  C   UNL     1      -7.737   4.548  68.239  1.00  0.00    -0.080 C  
ENDBRANCH   2  15
BRANCH   8  22
HETATM   22  N   UNL     1      -9.520   8.989  67.488  1.00  0.00    -0.135 NA 
HETATM   23  C   UNL     1     -10.468  10.815  67.200  1.00  0.00    -0.237 A  
HETATM   24  C   UNL     1      -8.947   9.908  68.317  1.00  0.00    -0.119 A  
HETATM   25  N   UNL     1      -9.517  11.077  68.143  1.00  0.00    -0.166 NA 
HETATM   26  N   UNL     1     -10.514   9.551  66.775  1.00  0.00    -0.222 NA 
ENDBRANCH   8  22
TORSDOF 2
ENDMDL
MODEL       65
REMARK 921   NORMALIZED FREE ENERGY PREDICTED BY IDOCK:   -4.41 KCAL/MOL
REMARK 922        TOTAL FREE ENERGY PREDICTED BY IDOCK:   -5.43 KCAL/MOL
REMARK 923 INTER-LIGAND FREE ENERGY PREDICTED BY IDOCK:   -4.77 KCAL/MOL
REMARK 924 INTRA-LIGAND FREE ENERGY PREDICTED BY IDOCK:   -0.65 KCAL/MOL
REMARK 927      BINDING AFFINITY PREDICTED BY RF-SCORE:    0.00 PKD
ROOT
HETATM    1  C   UNL     1      -7.414  10.117  65.358  1.00  0.00    -0.144 C  
HETATM    2  C   UNL     1      -8.489   9.603  66.334  1.00  0.00    -0.123 C  
HETATM    3  C   UNL     1      -8.315   8.041  66.657  1.00  0.00    -0.120 C  
HETATM    4  C   UNL     1      -9.870   7.738  70.163  1.00  0.00    -0.184 A  
HETATM    5  O   UNL     1      -6.953   7.933  67.195  1.00  0.00    -0.071 OA 
HETATM    6  C   UNL     1     -10.986   6.952  69.916  1.00  0.00    -0.277 A  
HETATM    7  C   UNL     1      -9.274   7.637  67.788  1.00  0.00    -0.141 A  
HETATM    8  C   UNL     1      -8.301   7.157  65.377  1.00  0.00    -0.118 C  
HETATM    9  C   UNL     1      -9.022   8.079  69.109  1.00  0.00    -0.145 A  
HETATM   10  C   UNL     1     -10.442   6.890  67.581  1.00  0.00    -0.228 A  
HETATM   11  F   UNL     1     -11.796   6.620  70.929  1.00  0.00    -0.359 F  
HETATM   12  H   UNL     1      -6.850   7.009  67.387  1.00  0.00     0.000 HD 
HETATM   13  F   UNL     1     -10.818   6.531  66.348  1.00  0.00    -0.270 F  
HETATM   14  C   UNL     1     -11.280   6.525  68.632  1.00  0.00    -0.302 A  
ENDROOT
BRANCH   2  15
HETATM   15  N   UNL     1      -9.861  10.110  66.104  1.00  0.00    -0.223 NA 
HETATM   16  C   UNL     1     -10.323  12.883  65.126  1.00  0.00    -0.320 C  
HETATM   17  C   UNL     1      -9.988  12.626  66.575  1.00  0.00    -0.256 C  
HETATM   18  C   UNL     1     -10.895  14.024  64.711  1.00  0.00    -0.430 C  
HETATM   19  C   UNL     1     -10.292  11.182  67.022  1.00  0.00    -0.224 C  
HETATM   20  C   UNL     1      -9.974  11.768  64.172  1.00  0.00    -0.300 C  
HETATM   21  C   UNL     1     -10.330  10.388  64.744  1.00  0.00    -0.151 C  
ENDBRANCH   2  15
BRANCH   8  22
HETATM   22  N   UNL     1      -7.814   5.801  65.581  1.00  0.00    -0.096 NA 
HETATM   23  C   UNL     1      -6.554   4.227  66.081  1.00  0.00    -0.041 A  
HETATM   24  C   UNL     1      -8.549   4.652  65.608  1.00  0.00    -0.124 A  
HETATM   25  N   UNL     1      -7.771   3.637  65.907  1.00  0.00    -0.088 NA 
HETATM   26  N   UNL     1      -6.532   5.549  65.901  1.00  0.00    -0.039 NA 
ENDBRANCH   8  22
TORSDOF 2
ENDMDL
MODEL       66
REMARK 921   NORMALIZED FREE ENERGY PREDICTED BY IDOCK:   -4.38 KCAL/MOL
REMARK 922        TOTAL FREE ENERGY PREDICTED BY IDOCK:   -5.40 KCAL/MOL
REMARK 923 INTER-LIGAND FREE ENERGY PREDICTED BY IDOCK:   -4.74 KCAL/MOL
REMARK 924 INTRA-LIGAND FREE ENERGY PREDICTED BY IDOCK:   -0.66 KCAL/MOL
REMARK 927      BINDING AFFINITY PREDICTED BY RF-SCORE:    0.00 PKD
ROOT
HETATM    1  C   UNL     1      -9.917  10.346  65.172  1.00  0.00    -0.390 C  
HETATM    2  C   UNL     1      -9.377  10.377  66.615  1.00  0.00    -0.158 C  
HETATM    3  C   UNL     1      -9.243   8.906  67.241  1.00  0.00    -0.138 C  
HETATM    4  C   UNL     1      -6.417   9.351  69.814  1.00  0.00    -0.041 A  
HETATM    5  O   UNL     1      -8.355   8.197  66.312  1.00  0.00    -0.108 OA 
HETATM    6  C   UNL     1      -7.086   9.152  71.013  1.00  0.00    -0.098 A  
HETATM    7  C   UNL     1      -8.507   8.983  68.588  1.00  0.00    -0.128 A  
HETATM    8  C   UNL     1     -10.577   8.105  67.196  1.00  0.00    -0.285 C  
HETATM    9  C   UNL     1      -7.121   9.268  68.612  1.00  0.00    -0.070 A  
HETATM   10  C   UNL     1      -9.147   8.842  69.828  1.00  0.00    -0.150 A  
HETATM   11  F   UNL     1      -6.408   9.226  72.165  1.00  0.00    -0.063 F  
HETATM   12  H   UNL     1      -8.275   7.326  66.683  1.00  0.00     0.000 HD 
HETATM   13  F   UNL     1     -10.474   8.687  69.901  1.00  0.00    -0.198 F  
HETATM   14  C   UNL     1      -8.447   8.899  71.030  1.00  0.00    -0.244 A  
ENDROOT
BRANCH   2  15
HETATM   15  N   UNL     1      -9.919  11.448  67.481  1.00  0.00    -0.181 NA 
HETATM   16  C   UNL     1     -10.342  14.199  66.429  1.00  0.00    -0.287 C  
HETATM   17  C   UNL     1      -8.960  13.727  66.811  1.00  0.00    -0.202 C  
HETATM   18  C   UNL     1     -10.652  15.500  66.311  1.00  0.00    -0.310 C  
HETATM   19  C   UNL     1      -8.973  12.537  67.791  1.00  0.00    -0.184 C  
HETATM   20  C   UNL     1     -11.357  13.110  66.190  1.00  0.00    -0.343 C  
HETATM   21  C   UNL     1     -11.257  11.991  67.238  1.00  0.00    -0.311 C  
ENDBRANCH   2  15
BRANCH   8  22
HETATM   22  N   UNL     1     -10.436   6.677  67.432  1.00  0.00    -0.222 NA 
HETATM   23  C   UNL     1      -9.866   4.696  67.173  1.00  0.00    -0.195 A  
HETATM   24  C   UNL     1     -10.707   5.996  68.582  1.00  0.00    -0.297 A  
HETATM   25  N   UNL     1     -10.371   4.735  68.440  1.00  0.00     0.022 NA 
HETATM   26  N   UNL     1      -9.877   5.860  66.520  1.00  0.00    -0.159 NA 
ENDBRANCH   8  22
TORSDOF 2
ENDMDL
MODEL       67
REMARK 921   NORMALIZED FREE ENERGY PREDICTED BY IDOCK:   -4.37 KCAL/MOL
REMARK 922        TOTAL FREE ENERGY PREDICTED BY IDOCK:   -5.38 KCAL/MOL
REMARK 923 INTER-LIGAND FREE ENERGY PREDICTED BY IDOCK:   -5.59 KCAL/MOL
REMARK 924 INTRA-LIGAND FREE ENERGY PREDICTED BY IDOCK:    0.20 KCAL/MOL
REMARK 927      BINDING AFFINITY PREDICTED BY RF-SCORE:    0.00 PKD
ROOT
HETATM    1  C   UNL     1      -8.991  12.458  66.665  1.00  0.00    -0.184 C  
HETATM    2  C   UNL     1      -9.713  13.807  66.848  1.00  0.00    -0.265 C  
HETATM    3  C   UNL     1      -8.723  14.957  67.370  1.00  0.00    -0.194 C  
HETATM    4  C   UNL     1     -10.368  18.155  66.004  1.00  0.00    -0.360 A  
HETATM    5  O   UNL     1      -7.662  15.008  66.358  1.00  0.00    -0.150 OA 
HETATM    6  C   UNL     1     -10.763  18.796  67.169  1.00  0.00    -0.403 A  
HETATM    7  C   UNL     1      -9.441  16.314  67.331  1.00  0.00    -0.227 A  
HETATM    8  C   UNL     1      -7.989  14.570  68.687  1.00  0.00    -0.145 C  
HETATM    9  C   UNL     1      -9.713  16.925  66.084  1.00  0.00    -0.296 A  
HETATM   10  C   UNL     1      -9.908  16.976  68.476  1.00  0.00    -0.290 A  
HETATM   11  F   UNL     1     -11.384  19.979  67.093  1.00  0.00    -0.371 F  
HETATM   12  H   UNL     1      -7.076  15.688  66.667  1.00  0.00     0.000 HD 
HETATM   13  F   UNL     1      -9.797  16.415  69.686  1.00  0.00    -0.233 F  
HETATM   14  C   UNL     1     -10.539  18.216  68.406  1.00  0.00    -0.215 A  
ENDROOT
BRANCH   2  15
HETATM   15  N   UNL     1     -11.064  13.736  67.449  1.00  0.00    -0.290 NA 
HETATM   16  C   UNL     1     -11.828  11.480  69.233  1.00  0.00    -0.414 C  
HETATM   17  C   UNL     1     -11.801  11.299  67.735  1.00  0.00    -0.164 C  
HETATM   18  C   UNL     1     -12.502  10.652  70.047  1.00  0.00    -0.294 C  
HETATM   19  C   UNL     1     -11.906  12.627  66.960  1.00  0.00    -0.345 C  
HETATM   20  C   UNL     1     -11.047  12.658  69.759  1.00  0.00     0.129 C  
HETATM   21  C   UNL     1     -11.244  13.911  68.892  1.00  0.00    -0.271 C  
ENDBRANCH   2  15
BRANCH   8  22
HETATM   22  N   UNL     1      -6.849  15.412  69.017  1.00  0.00    -0.127 NA 
HETATM   23  C   UNL     1      -5.383  16.875  68.855  1.00  0.00    -0.130 A  
HETATM   24  C   UNL     1      -6.264  15.573  70.238  1.00  0.00    -0.049 A  
HETATM   25  N   UNL     1      -5.320  16.482  70.160  1.00  0.00    -0.182 NA 
HETATM   26  N   UNL     1      -6.309  16.256  68.119  1.00  0.00    -0.118 NA 
ENDBRANCH   8  22
TORSDOF 2
ENDMDL
MODEL       68
REMARK 921   NORMALIZED FREE ENERGY PREDICTED BY IDOCK:   -4.25 KCAL/MOL
REMARK 922        TOTAL FREE ENERGY PREDICTED BY IDOCK:   -5.25 KCAL/MOL
REMARK 923 INTER-LIGAND FREE ENERGY PREDICTED BY IDOCK:   -4.80 KCAL/MOL
REMARK 924 INTRA-LIGAND FREE ENERGY PREDICTED BY IDOCK:   -0.46 KCAL/MOL
REMARK 927      BINDING AFFINITY PREDICTED BY RF-SCORE:    0.00 PKD
ROOT
HETATM    1  C   UNL     1      -7.140   5.768  68.634  1.00  0.00    -0.077 C  
HETATM    2  C   UNL     1      -8.391   6.628  68.897  1.00  0.00    -0.120 C  
HETATM    3  C   UNL     1      -8.962   6.426  70.383  1.00  0.00    -0.155 C  
HETATM    4  C   UNL     1     -10.703   9.787  71.070  1.00  0.00    -0.342 A  
HETATM    5  O   UNL     1      -7.834   6.774  71.255  1.00  0.00    -0.099 OA 
HETATM    6  C   UNL     1     -12.036   9.410  71.148  1.00  0.00    -0.328 A  
HETATM    7  C   UNL     1     -10.069   7.456  70.655  1.00  0.00    -0.191 A  
HETATM    8  C   UNL     1      -9.269   4.937  70.715  1.00  0.00    -0.145 C  
HETATM    9  C   UNL     1      -9.728   8.819  70.825  1.00  0.00    -0.257 A  
HETATM   10  C   UNL     1     -11.433   7.134  70.690  1.00  0.00    -0.308 A  
HETATM   11  F   UNL     1     -12.971  10.338  71.389  1.00  0.00    -0.395 F  
HETATM   12  H   UNL     1      -8.172   6.654  72.134  1.00  0.00     0.000 HD 
HETATM   13  F   UNL     1     -11.852   5.891  70.425  1.00  0.00    -0.287 F  
HETATM   14  C   UNL     1     -12.410   8.090  70.959  1.00  0.00    -0.164 A  
ENDROOT
BRANCH   2  15
HETATM   15  N   UNL     1      -9.368   6.698  67.787  1.00  0.00    -0.120 NA 
HETATM   16  C   UNL     1      -9.174   4.851  65.461  1.00  0.00    -0.160 C  
HETATM   17  C   UNL     1      -8.263   6.049  65.567  1.00  0.00    -0.142 C  
HETATM   18  C   UNL     1      -9.394   4.214  64.300  1.00  0.00    -0.159 C  
HETATM   19  C   UNL     1      -8.813   7.151  66.497  1.00  0.00    -0.141 C  
HETATM   20  C   UNL     1      -9.827   4.416  66.749  1.00  0.00    -0.241 C  
HETATM   21  C   UNL     1     -10.327   5.612  67.574  1.00  0.00    -0.222 C  
ENDBRANCH   2  15
BRANCH   8  22
HETATM   22  N   UNL     1      -9.462   4.657  72.129  1.00  0.00    -0.136 NA 
HETATM   23  C   UNL     1      -9.084   4.518  74.167  1.00  0.00    -0.107 A  
HETATM   24  C   UNL     1     -10.637   4.388  72.768  1.00  0.00    -0.182 A  
HETATM   25  N   UNL     1     -10.423   4.279  74.059  1.00  0.00    -0.216 NA 
HETATM   26  N   UNL     1      -8.455   4.763  73.016  1.00  0.00    -0.103 NA 
ENDBRANCH   8  22
TORSDOF 2
ENDMDL
MODEL       69
REMARK 921   NORMALIZED FREE ENERGY PREDICTED BY IDOCK:   -4.24 KCAL/MOL
REMARK 922        TOTAL FREE ENERGY PREDICTED BY IDOCK:   -5.24 KCAL/MOL
REMARK 923 INTER-LIGAND FREE ENERGY PREDICTED BY IDOCK:   -5.19 KCAL/MOL
REMARK 924 INTRA-LIGAND FREE ENERGY PREDICTED BY IDOCK:   -0.05 KCAL/MOL
REMARK 927      BINDING AFFINITY PREDICTED BY RF-SCORE:    0.00 PKD
ROOT
HETATM    1  C   UNL     1     -11.757  12.662  66.688  1.00  0.00    -0.464 C  
HETATM    2  C   UNL     1     -11.833  12.869  68.213  1.00  0.00    -0.330 C  
HETATM    3  C   UNL     1     -11.737  14.419  68.617  1.00  0.00    -0.332 C  
HETATM    4  C   UNL     1     -13.655  14.530  71.951  1.00  0.00    -0.484 A  
HETATM    5  O   UNL     1     -12.849  15.050  67.897  1.00  0.00     0.347 OA 
HETATM    6  C   UNL     1     -12.648  14.848  72.851  1.00  0.00    -0.406 A  
HETATM    7  C   UNL     1     -12.029  14.581  70.117  1.00  0.00    -0.377 A  
HETATM    8  C   UNL     1     -10.462  15.112  68.055  1.00  0.00    -0.247 C  
HETATM    9  C   UNL     1     -13.348  14.397  70.596  1.00  0.00    -0.107 A  
HETATM   10  C   UNL     1     -11.038  14.848  71.073  1.00  0.00    -0.081 A  
HETATM   11  F   UNL     1     -12.944  14.983  74.150  1.00  0.00    -0.525 F  
HETATM   12  H   UNL     1     -12.792  15.968  68.136  1.00  0.00     0.000 HD 
HETATM   13  F   UNL     1      -9.749  14.922  70.724  1.00  0.00     0.256 F  
HETATM   14  C   UNL     1     -11.341  15.008  72.424  1.00  0.00    -0.146 A  
ENDROOT
BRANCH   2  15
HETATM   15  N   UNL     1     -11.077  11.895  69.033  1.00  0.00    -0.240 NA 
HETATM   16  C   UNL     1      -9.505   9.715  67.754  1.00  0.00    -0.146 C  
HETATM   17  C   UNL     1     -11.005   9.607  67.882  1.00  0.00    -0.205 C  
HETATM   18  C   UNL     1      -8.721   8.646  67.541  1.00  0.00    -0.135 C  
HETATM   19  C   UNL     1     -11.588  10.512  68.985  1.00  0.00    -0.207 C  
HETATM   20  C   UNL     1      -8.942  11.108  67.885  1.00  0.00    -0.143 C  
HETATM   21  C   UNL     1      -9.612  11.895  69.021  1.00  0.00     0.213 C  
ENDBRANCH   2  15
BRANCH   8  22
HETATM   22  N   UNL     1     -10.491  16.566  68.100  1.00  0.00    -0.298 NA 
HETATM   23  C   UNL     1     -10.144  18.513  68.736  1.00  0.00    -0.356 A  
HETATM   24  C   UNL     1     -10.867  17.418  67.104  1.00  0.00    -0.090 A  
HETATM   25  N   UNL     1     -10.673  18.659  67.487  1.00  0.00    -0.431 NA 
HETATM   26  N   UNL     1     -10.005  17.252  69.151  1.00  0.00    -0.252 NA 
ENDBRANCH   8  22
TORSDOF 2
ENDMDL
MODEL       70
REMARK 921   NORMALIZED FREE ENERGY PREDICTED BY IDOCK:   -4.24 KCAL/MOL
REMARK 922        TOTAL FREE ENERGY PREDICTED BY IDOCK:   -5.23 KCAL/MOL
REMARK 923 INTER-LIGAND FREE ENERGY PREDICTED BY IDOCK:   -4.73 KCAL/MOL
REMARK 924 INTRA-LIGAND FREE ENERGY PREDICTED BY IDOCK:   -0.50 KCAL/MOL
REMARK 927      BINDING AFFINITY PREDICTED BY RF-SCORE:    0.00 PKD
ROOT
HETATM    1  C   UNL     1     -11.176   9.568  70.089  1.00  0.00    -0.275 C  
HETATM    2  C   UNL     1     -10.598   8.629  69.012  1.00  0.00    -0.160 C  
HETATM    3  C   UNL     1     -10.367   7.142  69.568  1.00  0.00    -0.215 C  
HETATM    4  C   UNL     1     -10.683   5.005  66.384  1.00  0.00    -0.242 A  
HETATM    5  O   UNL     1     -11.691   6.723  70.042  1.00  0.00    -0.547 OA 
HETATM    6  C   UNL     1      -9.394   4.511  66.240  1.00  0.00    -0.151 A  
HETATM    7  C   UNL     1      -9.995   6.208  68.406  1.00  0.00    -0.162 A  
HETATM    8  C   UNL     1      -9.466   7.104  70.836  1.00  0.00    -0.160 C  
HETATM    9  C   UNL     1     -10.980   5.847  67.457  1.00  0.00    -0.249 A  
HETATM   10  C   UNL     1      -8.696   5.726  68.187  1.00  0.00    -0.107 A  
HETATM   11  F   UNL     1      -9.111   3.698  65.215  1.00  0.00    -0.123 F  
HETATM   12  H   UNL     1     -11.554   5.843  70.371  1.00  0.00     0.000 HD 
HETATM   13  F   UNL     1      -7.680   6.110  68.968  1.00  0.00    -0.088 F  
HETATM   14  C   UNL     1      -8.397   4.865  67.133  1.00  0.00    -0.106 A  
ENDROOT
BRANCH   2  15
HETATM   15  N   UNL     1      -9.547   9.213  68.147  1.00  0.00    -0.142 NA 
HETATM   16  C   UNL     1     -10.046  11.713  66.611  1.00  0.00    -0.238 C  
HETATM   17  C   UNL     1     -10.591  10.392  66.126  1.00  0.00    -0.160 C  
HETATM   18  C   UNL     1      -9.913  12.778  65.805  1.00  0.00    -0.259 C  
HETATM   19  C   UNL     1      -9.839   9.175  66.701  1.00  0.00    -0.240 C  
HETATM   20  C   UNL     1      -9.656  11.758  68.067  1.00  0.00    -0.187 C  
HETATM   21  C   UNL     1      -8.916  10.485  68.505  1.00  0.00    -0.147 C  
ENDBRANCH   2  15
BRANCH   8  22
HETATM   22  N   UNL     1      -9.499   5.847  71.568  1.00  0.00    -0.152 NA 
HETATM   23  C   UNL     1     -10.225   4.099  72.426  1.00  0.00    -0.170 A  
HETATM   24  C   UNL     1      -8.437   5.080  71.947  1.00  0.00    -0.124 A  
HETATM   25  N   UNL     1      -8.868   3.974  72.508  1.00  0.00    -0.105 NA 
HETATM   26  N   UNL     1     -10.658   5.223  71.851  1.00  0.00    -0.222 NA 
ENDBRANCH   8  22
TORSDOF 2
ENDMDL
MODEL       71
REMARK 921   NORMALIZED FREE ENERGY PREDICTED BY IDOCK:   -4.22 KCAL/MOL
REMARK 922        TOTAL FREE ENERGY PREDICTED BY IDOCK:   -5.22 KCAL/MOL
REMARK 923 INTER-LIGAND FREE ENERGY PREDICTED BY IDOCK:   -4.66 KCAL/MOL
REMARK 924 INTRA-LIGAND FREE ENERGY PREDICTED BY IDOCK:   -0.56 KCAL/MOL
REMARK 927      BINDING AFFINITY PREDICTED BY RF-SCORE:    0.00 PKD
ROOT
HETATM    1  C   UNL     1      -9.952  10.670  63.941  1.00  0.00    -0.390 C  
HETATM    2  C   UNL     1      -9.373  11.045  65.319  1.00  0.00    -0.216 C  
HETATM    3  C   UNL     1      -8.726   9.782  66.067  1.00  0.00    -0.141 C  
HETATM    4  C   UNL     1      -6.066  11.418  68.315  1.00  0.00    -0.045 A  
HETATM    5  O   UNL     1      -7.707   9.290  65.131  1.00  0.00    -0.103 OA 
HETATM    6  C   UNL     1      -6.564  11.159  69.584  1.00  0.00    -0.139 A  
HETATM    7  C   UNL     1      -7.983  10.252  67.327  1.00  0.00    -0.107 A  
HETATM    8  C   UNL     1      -9.721   8.595  66.221  1.00  0.00    -0.251 C  
HETATM    9  C   UNL     1      -6.770  10.969  67.196  1.00  0.00    -0.096 A  
HETATM   10  C   UNL     1      -8.471  10.063  68.628  1.00  0.00    -0.118 A  
HETATM   11  F   UNL     1      -5.886  11.585  70.657  1.00  0.00    -0.132 F  
HETATM   12  H   UNL     1      -7.324   8.543  65.574  1.00  0.00     0.000 HD 
HETATM   13  F   UNL     1      -9.666   9.499  68.838  1.00  0.00    -0.153 F  
HETATM   14  C   UNL     1      -7.762  10.486  69.750  1.00  0.00    -0.079 A  
ENDROOT
BRANCH   2  15
HETATM   15  N   UNL     1     -10.189  11.980  66.126  1.00  0.00    -0.220 NA 
HETATM   16  C   UNL     1     -11.698  14.197  64.836  1.00  0.00    -0.395 C  
HETATM   17  C   UNL     1     -10.211  14.312  65.063  1.00  0.00    -0.402 C  
HETATM   18  C   UNL     1     -12.478  15.268  64.615  1.00  0.00     0.019 C  
HETATM   19  C   UNL     1      -9.690  13.368  66.166  1.00  0.00    -0.250 C  
HETATM   20  C   UNL     1     -12.255  12.796  64.876  1.00  0.00    -0.519 C  
HETATM   21  C   UNL     1     -11.650  11.969  66.020  1.00  0.00    -0.305 C  
ENDBRANCH   2  15
BRANCH   8  22
HETATM   22  N   UNL     1      -9.104   7.327  66.577  1.00  0.00    -0.150 NA 
HETATM   23  C   UNL     1      -8.010   5.568  66.418  1.00  0.00    -0.105 A  
HETATM   24  C   UNL     1      -8.928   6.814  67.828  1.00  0.00    -0.116 A  
HETATM   25  N   UNL     1      -8.252   5.691  67.755  1.00  0.00    -0.101 NA 
HETATM   26  N   UNL     1      -8.503   6.549  65.658  1.00  0.00    -0.147 NA 
ENDBRANCH   8  22
TORSDOF 2
ENDMDL
MODEL       72
REMARK 921   NORMALIZED FREE ENERGY PREDICTED BY IDOCK:   -4.18 KCAL/MOL
REMARK 922        TOTAL FREE ENERGY PREDICTED BY IDOCK:   -5.17 KCAL/MOL
REMARK 923 INTER-LIGAND FREE ENERGY PREDICTED BY IDOCK:   -5.06 KCAL/MOL
REMARK 924 INTRA-LIGAND FREE ENERGY PREDICTED BY IDOCK:   -0.12 KCAL/MOL
REMARK 927      BINDING AFFINITY PREDICTED BY RF-SCORE:    0.00 PKD
ROOT
HETATM    1  C   UNL     1      -9.242  13.971  66.663  1.00  0.00    -0.262 C  
HETATM    2  C   UNL     1      -9.716  12.752  67.479  1.00  0.00    -0.201 C  
HETATM    3  C   UNL     1      -9.016  11.392  66.996  1.00  0.00    -0.166 C  
HETATM    4  C   UNL     1      -9.083   9.243  70.187  1.00  0.00    -0.248 A  
HETATM    5  O   UNL     1      -7.579  11.654  67.140  1.00  0.00    -0.137 OA 
HETATM    6  C   UNL     1      -9.952   8.223  69.828  1.00  0.00    -0.191 A  
HETATM    7  C   UNL     1      -9.362  10.258  67.973  1.00  0.00    -0.145 A  
HETATM    8  C   UNL     1      -9.214  11.117  65.477  1.00  0.00    -0.216 C  
HETATM    9  C   UNL     1      -8.791  10.253  69.268  1.00  0.00    -0.186 A  
HETATM   10  C   UNL     1     -10.274   9.234  67.677  1.00  0.00    -0.230 A  
HETATM   11  F   UNL     1     -10.226   7.251  70.707  1.00  0.00    -0.195 F  
HETATM   12  H   UNL     1      -7.165  10.849  66.854  1.00  0.00     0.000 HD 
HETATM   13  F   UNL     1     -10.948   9.227  66.521  1.00  0.00    -0.142 F  
HETATM   14  C   UNL     1     -10.552   8.210  68.580  1.00  0.00    -0.144 A  
ENDROOT
BRANCH   2  15
HETATM   15  N   UNL     1     -11.164  12.711  67.788  1.00  0.00    -0.257 NA 
HETATM   16  C   UNL     1     -12.317  14.408  69.943  1.00  0.00    -0.365 C  
HETATM   17  C   UNL     1     -11.570  13.142  70.281  1.00  0.00    -0.079 C  
HETATM   18  C   UNL     1     -13.158  15.001  70.806  1.00  0.00    -0.420 C  
HETATM   19  C   UNL     1     -11.503  12.144  69.108  1.00  0.00    -0.296 C  
HETATM   20  C   UNL     1     -12.058  14.967  68.566  1.00  0.00    -0.193 C  
HETATM   21  C   UNL     1     -12.017  13.865  67.497  1.00  0.00    -0.386 C  
ENDBRANCH   2  15
BRANCH   8  22
HETATM   22  N   UNL     1      -8.334  10.099  64.925  1.00  0.00    -0.158 NA 
HETATM   23  C   UNL     1      -6.627   8.968  64.570  1.00  0.00    -0.074 A  
HETATM   24  C   UNL     1      -8.692   8.986  64.222  1.00  0.00    -0.108 A  
HETATM   25  N   UNL     1      -7.627   8.260  63.970  1.00  0.00    -0.120 NA 
HETATM   26  N   UNL     1      -7.011  10.094  65.175  1.00  0.00    -0.134 NA 
ENDBRANCH   8  22
TORSDOF 2
ENDMDL
MODEL       73
REMARK 921   NORMALIZED FREE ENERGY PREDICTED BY IDOCK:   -4.16 KCAL/MOL
REMARK 922        TOTAL FREE ENERGY PREDICTED BY IDOCK:   -5.15 KCAL/MOL
REMARK 923 INTER-LIGAND FREE ENERGY PREDICTED BY IDOCK:   -5.12 KCAL/MOL
REMARK 924 INTRA-LIGAND FREE ENERGY PREDICTED BY IDOCK:   -0.03 KCAL/MOL
REMARK 927      BINDING AFFINITY PREDICTED BY RF-SCORE:    0.00 PKD
ROOT
HETATM    1  C   UNL     1     -10.879   6.178  68.785  1.00  0.00    -0.402 C  
HETATM    2  C   UNL     1     -10.521   7.663  68.579  1.00  0.00    -0.174 C  
HETATM    3  C   UNL     1      -9.500   7.874  67.360  1.00  0.00    -0.144 C  
HETATM    4  C   UNL     1     -10.320  11.449  66.197  1.00  0.00    -0.294 A  
HETATM    5  O   UNL     1     -10.188   7.285  66.205  1.00  0.00    -0.465 OA 
HETATM    6  C   UNL     1      -9.152  12.128  66.511  1.00  0.00    -0.199 A  
HETATM    7  C   UNL     1      -9.346   9.375  67.068  1.00  0.00    -0.185 A  
HETATM    8  C   UNL     1      -8.197   7.035  67.510  1.00  0.00    -0.116 C  
HETATM    9  C   UNL     1     -10.417  10.084  66.474  1.00  0.00    -0.223 A  
HETATM   10  C   UNL     1      -8.208  10.117  67.415  1.00  0.00    -0.114 A  
HETATM   11  F   UNL     1      -9.057  13.436  66.239  1.00  0.00    -0.219 F  
HETATM   12  H   UNL     1      -9.583   7.410  65.483  1.00  0.00     0.000 HD 
HETATM   13  F   UNL     1      -7.197   9.552  68.085  1.00  0.00    -0.076 F  
HETATM   14  C   UNL     1      -8.094  11.474  67.119  1.00  0.00    -0.159 A  
ENDROOT
BRANCH   2  15
HETATM   15  N   UNL     1     -10.291   8.446  69.814  1.00  0.00    -0.212 NA 
HETATM   16  C   UNL     1     -12.571   9.586  71.350  1.00  0.00    -0.447 C  
HETATM   17  C   UNL     1     -12.085  10.255  70.088  1.00  0.00    -0.279 C  
HETATM   18  C   UNL     1     -13.317  10.227  72.264  1.00  0.00    -0.296 C  
HETATM   19  C   UNL     1     -10.636   9.877  69.718  1.00  0.00    -0.264 C  
HETATM   20  C   UNL     1     -12.160   8.145  71.520  1.00  0.00    -0.332 C  
HETATM   21  C   UNL     1     -10.697   7.912  71.116  1.00  0.00    -0.227 C  
ENDBRANCH   2  15
BRANCH   8  22
HETATM   22  N   UNL     1      -7.402   6.925  66.296  1.00  0.00    -0.075 NA 
HETATM   23  C   UNL     1      -6.866   6.474  64.340  1.00  0.00    -0.042 A  
HETATM   24  C   UNL     1      -6.232   7.565  66.011  1.00  0.00    -0.041 A  
HETATM   25  N   UNL     1      -5.861   7.283  64.784  1.00  0.00    -0.037 NA 
HETATM   26  N   UNL     1      -7.836   6.234  65.225  1.00  0.00    -0.100 NA 
ENDBRANCH   8  22
TORSDOF 2
ENDMDL
MODEL       74
REMARK 921   NORMALIZED FREE ENERGY PREDICTED BY IDOCK:   -4.11 KCAL/MOL
REMARK 922        TOTAL FREE ENERGY PREDICTED BY IDOCK:   -5.09 KCAL/MOL
REMARK 923 INTER-LIGAND FREE ENERGY PREDICTED BY IDOCK:   -4.46 KCAL/MOL
REMARK 924 INTRA-LIGAND FREE ENERGY PREDICTED BY IDOCK:   -0.63 KCAL/MOL
REMARK 927      BINDING AFFINITY PREDICTED BY RF-SCORE:    0.00 PKD
ROOT
HETATM    1  C   UNL     1      -9.804   8.985  66.176  1.00  0.00    -0.349 C  
HETATM    2  C   UNL     1      -9.636   8.510  67.633  1.00  0.00    -0.153 C  
HETATM    3  C   UNL     1      -8.988   9.643  68.567  1.00  0.00    -0.124 C  
HETATM    4  C   UNL     1     -10.377   8.752  72.042  1.00  0.00    -0.411 A  
HETATM    5  O   UNL     1      -9.901  10.785  68.437  1.00  0.00    -0.157 OA 
HETATM    6  C   UNL     1      -9.228   8.376  72.723  1.00  0.00    -0.241 A  
HETATM    7  C   UNL     1      -9.041   9.195  70.035  1.00  0.00    -0.207 A  
HETATM    8  C   UNL     1      -7.626  10.167  68.024  1.00  0.00    -0.088 C  
HETATM    9  C   UNL     1     -10.285   9.158  70.710  1.00  0.00    -0.325 A  
HETATM   10  C   UNL     1      -7.918   8.754  70.750  1.00  0.00    -0.127 A  
HETATM   11  F   UNL     1      -9.316   7.993  74.003  1.00  0.00    -0.319 F  
HETATM   12  H   UNL     1      -9.517  11.455  68.990  1.00  0.00     0.000 HD 
HETATM   13  F   UNL     1      -6.724   8.646  70.155  1.00  0.00    -0.037 F  
HETATM   14  C   UNL     1      -7.998   8.372  72.088  1.00  0.00    -0.181 A  
ENDROOT
BRANCH   2  15
HETATM   15  N   UNL     1      -9.159   7.119  67.805  1.00  0.00    -0.128 NA 
HETATM   16  C   UNL     1      -9.663   5.061  65.715  1.00  0.00    -0.158 C  
HETATM   17  C   UNL     1     -10.757   5.468  66.671  1.00  0.00    -0.332 C  
HETATM   18  C   UNL     1      -9.703   3.913  65.021  1.00  0.00    -0.192 C  
HETATM   19  C   UNL     1     -10.224   6.111  67.967  1.00  0.00    -0.175 C  
HETATM   20  C   UNL     1      -8.515   6.031  65.592  1.00  0.00    -0.151 C  
HETATM   21  C   UNL     1      -8.088   6.593  66.956  1.00  0.00    -0.113 C  
ENDBRANCH   2  15
BRANCH   8  22
HETATM   22  N   UNL     1      -7.167  11.407  68.631  1.00  0.00    -0.093 NA 
HETATM   23  C   UNL     1      -7.090  13.411  69.172  1.00  0.00    -0.007 A  
HETATM   24  C   UNL     1      -6.236  11.552  69.617  1.00  0.00    -0.124 A  
HETATM   25  N   UNL     1      -6.155  12.815  69.966  1.00  0.00    -0.136 NA 
HETATM   26  N   UNL     1      -7.742  12.590  68.345  1.00  0.00    -0.134 NA 
ENDBRANCH   8  22
TORSDOF 2
ENDMDL
MODEL       75
REMARK 921   NORMALIZED FREE ENERGY PREDICTED BY IDOCK:   -4.10 KCAL/MOL
REMARK 922        TOTAL FREE ENERGY PREDICTED BY IDOCK:   -5.09 KCAL/MOL
REMARK 923 INTER-LIGAND FREE ENERGY PREDICTED BY IDOCK:   -4.96 KCAL/MOL
REMARK 924 INTRA-LIGAND FREE ENERGY PREDICTED BY IDOCK:   -0.13 KCAL/MOL
REMARK 927      BINDING AFFINITY PREDICTED BY RF-SCORE:    0.00 PKD
ROOT
HETATM    1  C   UNL     1      -9.869  11.083  66.636  1.00  0.00    -0.235 C  
HETATM    2  C   UNL     1      -9.682   9.899  67.605  1.00  0.00    -0.155 C  
HETATM    3  C   UNL     1     -10.715   9.954  68.832  1.00  0.00    -0.221 C  
HETATM    4  C   UNL     1     -11.069   6.244  69.788  1.00  0.00    -0.473 A  
HETATM    5  O   UNL     1     -12.036   9.968  68.193  1.00  0.00    -0.369 OA 
HETATM    6  C   UNL     1     -10.494   6.216  71.050  1.00  0.00    -0.229 A  
HETATM    7  C   UNL     1     -10.626   8.650  69.640  1.00  0.00    -0.219 A  
HETATM    8  C   UNL     1     -10.646  11.294  69.621  1.00  0.00     0.046 C  
HETATM    9  C   UNL     1     -11.134   7.450  69.089  1.00  0.00     0.032 A  
HETATM   10  C   UNL     1     -10.007   8.559  70.896  1.00  0.00    -0.191 A  
HETATM   11  F   UNL     1     -10.438   5.060  71.724  1.00  0.00    -0.256 F  
HETATM   12  H   UNL     1     -12.647  10.001  68.919  1.00  0.00     0.000 HD 
HETATM   13  F   UNL     1      -9.399   9.619  71.439  1.00  0.00    -0.206 F  
HETATM   14  C   UNL     1      -9.961   7.364  71.611  1.00  0.00    -0.193 A  
ENDROOT
BRANCH   2  15
HETATM   15  N   UNL     1      -8.281   9.524  67.900  1.00  0.00    -0.113 NA 
HETATM   16  C   UNL     1      -6.313   9.116  65.705  1.00  0.00    -0.060 C  
HETATM   17  C   UNL     1      -7.326   8.048  66.036  1.00  0.00    -0.073 C  
HETATM   18  C   UNL     1      -5.194   8.857  65.009  1.00  0.00    -0.038 C  
HETATM   19  C   UNL     1      -7.893   8.169  67.465  1.00  0.00    -0.110 C  
HETATM   20  C   UNL     1      -6.637  10.499  66.213  1.00  0.00    -0.118 C  
HETATM   21  C   UNL     1      -7.192  10.470  67.645  1.00  0.00    -0.086 C  
ENDBRANCH   2  15
BRANCH   8  22
HETATM   22  N   UNL     1     -11.770  11.532  70.513  1.00  0.00    -0.256 NA 
HETATM   23  C   UNL     1     -13.246  11.197  71.936  1.00  0.00    -0.382 A  
HETATM   24  C   UNL     1     -12.296  12.735  70.881  1.00  0.00    -0.265 A  
HETATM   25  N   UNL     1     -13.244  12.551  71.770  1.00  0.00    -0.414 NA 
HETATM   26  N   UNL     1     -12.356  10.532  71.196  1.00  0.00    -0.374 NA 
ENDBRANCH   8  22
TORSDOF 2
ENDMDL
MODEL       76
REMARK 921   NORMALIZED FREE ENERGY PREDICTED BY IDOCK:   -4.10 KCAL/MOL
REMARK 922        TOTAL FREE ENERGY PREDICTED BY IDOCK:   -5.08 KCAL/MOL
REMARK 923 INTER-LIGAND FREE ENERGY PREDICTED BY IDOCK:   -5.82 KCAL/MOL
REMARK 924 INTRA-LIGAND FREE ENERGY PREDICTED BY IDOCK:    0.73 KCAL/MOL
REMARK 927      BINDING AFFINITY PREDICTED BY RF-SCORE:    0.00 PKD
ROOT
HETATM    1  C   UNL     1     -12.532  11.082  70.228  1.00  0.00    -0.365 C  
HETATM    2  C   UNL     1     -11.084  11.424  69.827  1.00  0.00    -0.126 C  
HETATM    3  C   UNL     1     -11.019  12.279  68.471  1.00  0.00    -0.240 C  
HETATM    4  C   UNL     1      -7.743  14.253  68.888  1.00  0.00    -0.112 A  
HETATM    5  O   UNL     1     -11.832  13.468  68.754  1.00  0.00    -0.319 OA 
HETATM    6  C   UNL     1      -6.953  13.714  67.883  1.00  0.00    -0.153 A  
HETATM    7  C   UNL     1      -9.581  12.768  68.237  1.00  0.00    -0.211 A  
HETATM    8  C   UNL     1     -11.743  11.583  67.282  1.00  0.00    -0.111 C  
HETATM    9  C   UNL     1      -9.046  13.784  69.064  1.00  0.00     0.267 A  
HETATM   10  C   UNL     1      -8.725  12.220  67.271  1.00  0.00    -0.188 A  
HETATM   11  F   UNL     1      -5.705  14.169  67.710  1.00  0.00    -0.119 F  
HETATM   12  H   UNL     1     -11.793  13.974  67.951  1.00  0.00     0.000 HD 
HETATM   13  F   UNL     1      -9.110  11.178  66.525  1.00  0.00    -0.163 F  
HETATM   14  C   UNL     1      -7.432  12.700  67.073  1.00  0.00     0.030 A  
ENDROOT
BRANCH   2  15
HETATM   15  N   UNL     1     -10.094  10.338  70.005  1.00  0.00    -0.188 NA 
HETATM   16  C   UNL     1     -10.883   7.484  69.701  1.00  0.00    -0.210 C  
HETATM   17  C   UNL     1     -11.212   8.241  70.964  1.00  0.00    -0.291 C  
HETATM   18  C   UNL     1     -10.871   6.143  69.647  1.00  0.00    -0.424 C  
HETATM   19  C   UNL     1     -10.318   9.478  71.183  1.00  0.00    -0.260 C  
HETATM   20  C   UNL     1     -10.563   8.336  68.498  1.00  0.00    -0.143 C  
HETATM   21  C   UNL     1      -9.666   9.530  68.861  1.00  0.00    -0.164 C  
ENDBRANCH   2  15
BRANCH   8  22
HETATM   22  N   UNL     1     -12.006  12.447  66.141  1.00  0.00    -0.608 NA 
HETATM   23  C   UNL     1     -12.222  13.083  64.176  1.00  0.00    -0.401 A  
HETATM   24  C   UNL     1     -12.625  13.662  66.147  1.00  0.00    -0.335 A  
HETATM   25  N   UNL     1     -12.760  14.095  64.916  1.00  0.00    -0.685 NA 
HETATM   26  N   UNL     1     -11.757  12.050  64.880  1.00  0.00    -0.298 NA 
ENDBRANCH   8  22
TORSDOF 2
ENDMDL
MODEL       77
REMARK 921   NORMALIZED FREE ENERGY PREDICTED BY IDOCK:   -4.08 KCAL/MOL
REMARK 922        TOTAL FREE ENERGY PREDICTED BY IDOCK:   -5.06 KCAL/MOL
REMARK 923 INTER-LIGAND FREE ENERGY PREDICTED BY IDOCK:   -4.98 KCAL/MOL
REMARK 924 INTRA-LIGAND FREE ENERGY PREDICTED BY IDOCK:   -0.09 KCAL/MOL
REMARK 927      BINDING AFFINITY PREDICTED BY RF-SCORE:    0.00 PKD
ROOT
HETATM    1  C   UNL     1     -10.109  18.048  65.769  1.00  0.00    -0.038 C  
HETATM    2  C   UNL     1      -9.564  16.915  66.661  1.00  0.00    -0.267 C  
HETATM    3  C   UNL     1     -10.125  15.478  66.223  1.00  0.00    -0.295 C  
HETATM    4  C   UNL     1      -7.332  13.102  67.388  1.00  0.00    -0.119 A  
HETATM    5  O   UNL     1      -9.723  15.345  64.817  1.00  0.00    -0.193 OA 
HETATM    6  C   UNL     1      -7.967  12.382  68.389  1.00  0.00    -0.149 A  
HETATM    7  C   UNL     1      -9.390  14.376  67.002  1.00  0.00    -0.252 A  
HETATM    8  C   UNL     1     -11.681  15.420  66.192  1.00  0.00     0.222 C  
HETATM    9  C   UNL     1      -8.037  14.091  66.700  1.00  0.00     0.465 A  
HETATM   10  C   UNL     1      -9.970  13.657  68.057  1.00  0.00    -0.247 A  
HETATM   11  F   UNL     1      -7.292  11.428  69.044  1.00  0.00    -0.098 F  
HETATM   12  H   UNL     1     -10.055  14.494  64.558  1.00  0.00     0.000 HD 
HETATM   13  F   UNL     1     -11.205  13.942  68.485  1.00  0.00    -0.244 F  
HETATM   14  C   UNL     1      -9.281  12.651  68.731  1.00  0.00     0.150 A  
ENDROOT
BRANCH   2  15
HETATM   15  N   UNL     1      -9.493  17.215  68.109  1.00  0.00    -0.261 NA 
HETATM   16  C   UNL     1      -7.466  19.113  69.180  1.00  0.00    -0.298 C  
HETATM   17  C   UNL     1      -7.078  17.702  68.815  1.00  0.00    -0.263 C  
HETATM   18  C   UNL     1      -6.720  19.879  69.992  1.00  0.00    -0.226 C  
HETATM   19  C   UNL     1      -8.275  16.730  68.787  1.00  0.00    -0.250 C  
HETATM   20  C   UNL     1      -8.754  19.610  68.572  1.00  0.00    -0.344 C  
HETATM   21  C   UNL     1      -9.858  18.542  68.610  1.00  0.00    -0.385 C  
ENDBRANCH   2  15
BRANCH   8  22
HETATM   22  N   UNL     1     -12.232  14.272  65.489  1.00  0.00    -0.406 NA 
HETATM   23  C   UNL     1     -12.899  13.060  63.939  1.00  0.00     0.070 A  
HETATM   24  C   UNL     1     -12.410  13.010  65.974  1.00  0.00    -0.319 A  
HETATM   25  N   UNL     1     -12.848  12.225  65.017  1.00  0.00    -0.521 NA 
HETATM   26  N   UNL     1     -12.523  14.318  64.175  1.00  0.00    -0.712 NA 
ENDBRANCH   8  22
TORSDOF 2
ENDMDL
MODEL       78
REMARK 921   NORMALIZED FREE ENERGY PREDICTED BY IDOCK:   -4.07 KCAL/MOL
REMARK 922        TOTAL FREE ENERGY PREDICTED BY IDOCK:   -5.05 KCAL/MOL
REMARK 923 INTER-LIGAND FREE ENERGY PREDICTED BY IDOCK:   -4.52 KCAL/MOL
REMARK 924 INTRA-LIGAND FREE ENERGY PREDICTED BY IDOCK:   -0.53 KCAL/MOL
REMARK 927      BINDING AFFINITY PREDICTED BY RF-SCORE:    0.00 PKD
ROOT
HETATM    1  C   UNL     1     -10.951   6.708  66.881  1.00  0.00    -0.396 C  
HETATM    2  C   UNL     1     -10.267   6.803  68.259  1.00  0.00    -0.175 C  
HETATM    3  C   UNL     1      -9.947   8.320  68.671  1.00  0.00    -0.190 C  
HETATM    4  C   UNL     1      -9.991   8.167  72.515  1.00  0.00    -0.372 A  
HETATM    5  O   UNL     1     -11.252   8.990  68.631  1.00  0.00    -0.440 OA 
HETATM    6  C   UNL     1      -8.665   8.430  72.828  1.00  0.00    -0.186 A  
HETATM    7  C   UNL     1      -9.466   8.369  70.129  1.00  0.00    -0.165 A  
HETATM    8  C   UNL     1      -9.091   9.067  67.607  1.00  0.00    -0.133 C  
HETATM    9  C   UNL     1     -10.388   8.136  71.177  1.00  0.00    -0.237 A  
HETATM   10  C   UNL     1      -8.128   8.578  70.496  1.00  0.00    -0.112 A  
HETATM   11  F   UNL     1      -8.286   8.467  74.112  1.00  0.00    -0.299 F  
HETATM   12  H   UNL     1     -11.062   9.888  68.874  1.00  0.00     0.000 HD 
HETATM   13  F   UNL     1      -7.172   8.692  69.567  1.00  0.00    -0.055 F  
HETATM   14  C   UNL     1      -7.729   8.636  71.829  1.00  0.00    -0.131 A  
ENDROOT
BRANCH   2  15
HETATM   15  N   UNL     1      -9.233   5.781  68.536  1.00  0.00    -0.120 NA 
HETATM   16  C   UNL     1      -8.330   3.905  66.409  1.00  0.00    -0.105 C  
HETATM   17  C   UNL     1      -9.637   3.679  67.126  1.00  0.00    -0.194 C  
HETATM   18  C   UNL     1      -7.701   2.931  65.732  1.00  0.00    -0.081 C  
HETATM   19  C   UNL     1      -9.710   4.385  68.495  1.00  0.00    -0.113 C  
HETATM   20  C   UNL     1      -7.770   5.302  66.504  1.00  0.00    -0.096 C  
HETATM   21  C   UNL     1      -7.908   5.882  67.920  1.00  0.00    -0.104 C  
ENDBRANCH   2  15
BRANCH   8  22
HETATM   22  N   UNL     1      -9.058  10.514  67.760  1.00  0.00    -0.138 NA 
HETATM   23  C   UNL     1      -9.698  12.487  67.864  1.00  0.00    -0.205 A  
HETATM   24  C   UNL     1      -8.044  11.270  68.271  1.00  0.00    -0.137 A  
HETATM   25  N   UNL     1      -8.418  12.527  68.332  1.00  0.00    -0.156 NA 
HETATM   26  N   UNL     1     -10.137  11.278  67.510  1.00  0.00    -0.181 NA 
ENDBRANCH   8  22
TORSDOF 2
ENDMDL
MODEL       79
REMARK 921   NORMALIZED FREE ENERGY PREDICTED BY IDOCK:   -4.05 KCAL/MOL
REMARK 922        TOTAL FREE ENERGY PREDICTED BY IDOCK:   -5.02 KCAL/MOL
REMARK 923 INTER-LIGAND FREE ENERGY PREDICTED BY IDOCK:   -4.78 KCAL/MOL
REMARK 924 INTRA-LIGAND FREE ENERGY PREDICTED BY IDOCK:   -0.25 KCAL/MOL
REMARK 927      BINDING AFFINITY PREDICTED BY RF-SCORE:    0.00 PKD
ROOT
HETATM    1  C   UNL     1      -6.898  11.259  66.858  1.00  0.00    -0.134 C  
HETATM    2  C   UNL     1      -7.952  12.383  66.855  1.00  0.00    -0.038 C  
HETATM    3  C   UNL     1      -7.481  13.656  67.710  1.00  0.00    -0.168 C  
HETATM    4  C   UNL     1      -9.377  16.545  66.018  1.00  0.00    -0.302 A  
HETATM    5  O   UNL     1      -6.212  14.058  67.091  1.00  0.00    -0.370 OA 
HETATM    6  C   UNL     1     -10.249  16.942  67.022  1.00  0.00    -0.297 A  
HETATM    7  C   UNL     1      -8.467  14.815  67.498  1.00  0.00    -0.204 A  
HETATM    8  C   UNL     1      -7.104  13.293  69.176  1.00  0.00     0.005 C  
HETATM    9  C   UNL     1      -8.494  15.490  66.254  1.00  0.00    -0.120 A  
HETATM   10  C   UNL     1      -9.403  15.220  68.460  1.00  0.00    -0.200 A  
HETATM   11  F   UNL     1     -11.092  17.958  66.798  1.00  0.00    -0.177 F  
HETATM   12  H   UNL     1      -5.933  14.811  67.598  1.00  0.00     0.000 HD 
HETATM   13  F   UNL     1      -9.525  14.562  69.619  1.00  0.00    -0.005 F  
HETATM   14  C   UNL     1     -10.271  16.288  68.241  1.00  0.00    -0.253 A  
ENDROOT
BRANCH   2  15
HETATM   15  N   UNL     1      -9.360  11.945  66.990  1.00  0.00    -0.183 NA 
HETATM   16  C   UNL     1     -10.073   9.056  66.938  1.00  0.00    -0.338 C  
HETATM   17  C   UNL     1      -9.770   9.794  65.658  1.00  0.00    -0.357 C  
HETATM   18  C   UNL     1     -10.746   7.894  66.958  1.00  0.00    -0.289 C  
HETATM   19  C   UNL     1      -9.937  11.322  65.783  1.00  0.00    -0.237 C  
HETATM   20  C   UNL     1      -9.571   9.711  68.200  1.00  0.00    -0.159 C  
HETATM   21  C   UNL     1      -9.801  11.230  68.190  1.00  0.00    -0.183 C  
ENDBRANCH   2  15
BRANCH   8  22
HETATM   22  N   UNL     1      -6.361  14.323  69.885  1.00  0.00    -0.144 NA 
HETATM   23  C   UNL     1      -5.658  16.197  70.444  1.00  0.00    -0.141 A  
HETATM   24  C   UNL     1      -5.690  14.197  71.066  1.00  0.00    -0.215 A  
HETATM   25  N   UNL     1      -5.221  15.366  71.435  1.00  0.00    -0.110 NA 
HETATM   26  N   UNL     1      -6.367  15.607  69.480  1.00  0.00    -0.156 NA 
ENDBRANCH   8  22
TORSDOF 2
ENDMDL
MODEL       80
REMARK 921   NORMALIZED FREE ENERGY PREDICTED BY IDOCK:   -4.04 KCAL/MOL
REMARK 922        TOTAL FREE ENERGY PREDICTED BY IDOCK:   -5.02 KCAL/MOL
REMARK 923 INTER-LIGAND FREE ENERGY PREDICTED BY IDOCK:   -4.86 KCAL/MOL
REMARK 924 INTRA-LIGAND FREE ENERGY PREDICTED BY IDOCK:   -0.16 KCAL/MOL
REMARK 927      BINDING AFFINITY PREDICTED BY RF-SCORE:    0.00 PKD
ROOT
HETATM    1  C   UNL     1      -7.114   8.641  68.527  1.00  0.00    -0.073 C  
HETATM    2  C   UNL     1      -7.837   9.828  67.860  1.00  0.00    -0.090 C  
HETATM    3  C   UNL     1      -9.072  10.353  68.738  1.00  0.00    -0.165 C  
HETATM    4  C   UNL     1      -9.315  14.051  67.702  1.00  0.00    -0.203 A  
HETATM    5  O   UNL     1      -8.474  10.702  70.032  1.00  0.00    -0.296 OA 
HETATM    6  C   UNL     1     -10.538  14.086  67.047  1.00  0.00    -0.279 A  
HETATM    7  C   UNL     1      -9.617  11.657  68.134  1.00  0.00    -0.190 A  
HETATM    8  C   UNL     1     -10.099   9.231  69.070  1.00  0.00    -0.199 C  
HETATM    9  C   UNL     1      -8.858  12.847  68.241  1.00  0.00    -0.168 A  
HETATM   10  C   UNL     1     -10.820  11.733  67.417  1.00  0.00    -0.251 A  
HETATM   11  F   UNL     1     -10.978  15.243  66.536  1.00  0.00    -0.306 F  
HETATM   12  H   UNL     1      -9.205  11.013  70.552  1.00  0.00     0.000 HD 
HETATM   13  F   UNL     1     -11.542  10.635  67.169  1.00  0.00    -0.278 F  
HETATM   14  C   UNL     1     -11.294  12.936  66.899  1.00  0.00    -0.358 A  
ENDROOT
BRANCH   2  15
HETATM   15  N   UNL     1      -8.028   9.722  66.395  1.00  0.00    -0.108 NA 
HETATM   16  C   UNL     1      -6.331   7.905  64.759  1.00  0.00    -0.048 C  
HETATM   17  C   UNL     1      -5.800   9.238  65.224  1.00  0.00    -0.061 C  
HETATM   18  C   UNL     1      -5.781   7.226  63.740  1.00  0.00    -0.037 C  
HETATM   19  C   UNL     1      -6.912  10.245  65.583  1.00  0.00    -0.133 C  
HETATM   20  C   UNL     1      -7.528   7.383  65.514  1.00  0.00    -0.088 C  
HETATM   21  C   UNL     1      -8.553   8.490  65.803  1.00  0.00    -0.168 C  
ENDBRANCH   2  15
BRANCH   8  22
HETATM   22  N   UNL     1     -11.042   9.565  70.126  1.00  0.00    -0.247 NA 
HETATM   23  C   UNL     1     -11.914   9.681  72.008  1.00  0.00    -0.132 A  
HETATM   24  C   UNL     1     -12.045  10.487  70.080  1.00  0.00    -0.300 A  
HETATM   25  N   UNL     1     -12.625  10.569  71.255  1.00  0.00    -0.388 NA 
HETATM   26  N   UNL     1     -10.930   9.049  71.364  1.00  0.00    -0.296 NA 
ENDBRANCH   8  22
TORSDOF 2
ENDMDL
MODEL       81
REMARK 921   NORMALIZED FREE ENERGY PREDICTED BY IDOCK:   -4.04 KCAL/MOL
REMARK 922        TOTAL FREE ENERGY PREDICTED BY IDOCK:   -5.01 KCAL/MOL
REMARK 923 INTER-LIGAND FREE ENERGY PREDICTED BY IDOCK:   -4.62 KCAL/MOL
REMARK 924 INTRA-LIGAND FREE ENERGY PREDICTED BY IDOCK:   -0.40 KCAL/MOL
REMARK 927      BINDING AFFINITY PREDICTED BY RF-SCORE:    0.00 PKD
ROOT
HETATM    1  C   UNL     1     -10.147   8.251  72.656  1.00  0.00    -0.365 C  
HETATM    2  C   UNL     1     -10.569   7.764  71.255  1.00  0.00    -0.218 C  
HETATM    3  C   UNL     1      -9.314   7.600  70.270  1.00  0.00    -0.157 C  
HETATM    4  C   UNL     1     -10.523   4.885  67.827  1.00  0.00     0.013 A  
HETATM    5  O   UNL     1      -8.430   6.656  70.963  1.00  0.00    -0.127 OA 
HETATM    6  C   UNL     1     -10.608   5.589  66.634  1.00  0.00    -0.299 A  
HETATM    7  C   UNL     1      -9.764   6.916  68.970  1.00  0.00    -0.150 A  
HETATM    8  C   UNL     1      -8.471   8.903  70.142  1.00  0.00    -0.146 C  
HETATM    9  C   UNL     1     -10.105   5.543  68.985  1.00  0.00    -0.275 A  
HETATM   10  C   UNL     1      -9.917   7.595  67.752  1.00  0.00    -0.174 A  
HETATM   11  F   UNL     1     -11.003   4.956  65.522  1.00  0.00    -0.284 F  
HETATM   12  H   UNL     1      -7.687   6.559  70.380  1.00  0.00     0.000 HD 
HETATM   13  F   UNL     1      -9.728   8.917  67.675  1.00  0.00    -0.160 F  
HETATM   14  C   UNL     1     -10.309   6.940  66.587  1.00  0.00    -0.214 A  
ENDROOT
BRANCH   2  15
HETATM   15  N   UNL     1     -11.801   8.374  70.707  1.00  0.00    -0.222 NA 
HETATM   16  C   UNL     1     -12.966  10.827  71.925  1.00  0.00    -0.524 C  
HETATM   17  C   UNL     1     -13.171   9.479  72.570  1.00  0.00    -0.356 C  
HETATM   18  C   UNL     1     -13.748  11.883  72.198  1.00  0.00    -0.029 C  
HETATM   19  C   UNL     1     -12.979   8.302  71.592  1.00  0.00    -0.337 C  
HETATM   20  C   UNL     1     -11.820  10.912  70.947  1.00  0.00    -0.363 C  
HETATM   21  C   UNL     1     -11.749   9.676  70.037  1.00  0.00    -0.023 C  
ENDBRANCH   2  15
BRANCH   8  22
HETATM   22  N   UNL     1      -7.158   8.720  69.544  1.00  0.00    -0.054 NA 
HETATM   23  C   UNL     1      -5.241   7.991  69.213  1.00  0.00    -0.026 A  
HETATM   24  C   UNL     1      -6.735   9.156  68.323  1.00  0.00    -0.060 A  
HETATM   25  N   UNL     1      -5.517   8.722  68.095  1.00  0.00    -0.035 NA 
HETATM   26  N   UNL     1      -6.216   7.953  70.123  1.00  0.00    -0.033 NA 
ENDBRANCH   8  22
TORSDOF 2
ENDMDL
MODEL       82
REMARK 921   NORMALIZED FREE ENERGY PREDICTED BY IDOCK:   -4.02 KCAL/MOL
REMARK 922        TOTAL FREE ENERGY PREDICTED BY IDOCK:   -5.00 KCAL/MOL
REMARK 923 INTER-LIGAND FREE ENERGY PREDICTED BY IDOCK:   -4.65 KCAL/MOL
REMARK 924 INTRA-LIGAND FREE ENERGY PREDICTED BY IDOCK:   -0.35 KCAL/MOL
REMARK 927      BINDING AFFINITY PREDICTED BY RF-SCORE:    0.00 PKD
ROOT
HETATM    1  C   UNL     1     -10.371  12.197  64.439  1.00  0.00    -0.348 C  
HETATM    2  C   UNL     1      -9.624  11.950  65.764  1.00  0.00    -0.224 C  
HETATM    3  C   UNL     1      -8.674  10.659  65.690  1.00  0.00    -0.188 C  
HETATM    4  C   UNL     1      -5.940  11.490  68.267  1.00  0.00    -0.045 A  
HETATM    5  O   UNL     1      -7.772  10.937  64.567  1.00  0.00    -0.344 OA 
HETATM    6  C   UNL     1      -6.165  10.530  69.244  1.00  0.00    -0.048 A  
HETATM    7  C   UNL     1      -7.802  10.586  66.953  1.00  0.00    -0.117 A  
HETATM    8  C   UNL     1      -9.438   9.370  65.270  1.00  0.00    -0.227 C  
HETATM    9  C   UNL     1      -6.752  11.518  67.132  1.00  0.00    -0.129 A  
HETATM   10  C   UNL     1      -8.022   9.671  67.993  1.00  0.00    -0.097 A  
HETATM   11  F   UNL     1      -5.381  10.499  70.329  1.00  0.00    -0.039 F  
HETATM   12  H   UNL     1      -7.210  10.173  64.523  1.00  0.00     0.000 HD 
HETATM   13  F   UNL     1      -9.063   8.832  67.960  1.00  0.00    -0.137 F  
HETATM   14  C   UNL     1      -7.200   9.620  69.117  1.00  0.00    -0.068 A  
ENDROOT
BRANCH   2  15
HETATM   15  N   UNL     1     -10.418  12.152  66.997  1.00  0.00    -0.218 NA 
HETATM   16  C   UNL     1     -11.247  14.879  67.853  1.00  0.00    -0.324 C  
HETATM   17  C   UNL     1      -9.838  14.395  68.091  1.00  0.00    -0.223 C  
HETATM   18  C   UNL     1     -11.778  15.913  68.525  1.00  0.00    -0.297 C  
HETATM   19  C   UNL     1      -9.713  12.858  68.084  1.00  0.00    -0.227 C  
HETATM   20  C   UNL     1     -12.026  14.120  66.808  1.00  0.00    -0.475 C  
HETATM   21  C   UNL     1     -11.809  12.603  66.917  1.00  0.00    -0.355 C  
ENDBRANCH   2  15
BRANCH   8  22
HETATM   22  N   UNL     1      -8.584   8.263  64.864  1.00  0.00    -0.105 NA 
HETATM   23  C   UNL     1      -7.112   7.190  63.866  1.00  0.00    -0.061 A  
HETATM   24  C   UNL     1      -8.408   7.074  65.506  1.00  0.00    -0.133 A  
HETATM   25  N   UNL     1      -7.492   6.367  64.885  1.00  0.00    -0.079 NA 
HETATM   26  N   UNL     1      -7.745   8.364  63.816  1.00  0.00    -0.136 NA 
ENDBRANCH   8  22
TORSDOF 2
ENDMDL
MODEL       83
REMARK 921   NORMALIZED FREE ENERGY PREDICTED BY IDOCK:   -3.97 KCAL/MOL
REMARK 922        TOTAL FREE ENERGY PREDICTED BY IDOCK:   -4.94 KCAL/MOL
REMARK 923 INTER-LIGAND FREE ENERGY PREDICTED BY IDOCK:   -5.12 KCAL/MOL
REMARK 924 INTRA-LIGAND FREE ENERGY PREDICTED BY IDOCK:    0.18 KCAL/MOL
REMARK 927      BINDING AFFINITY PREDICTED BY RF-SCORE:    0.00 PKD
ROOT
HETATM    1  C   UNL     1      -8.613  11.015  67.189  1.00  0.00    -0.136 C  
HETATM    2  C   UNL     1      -9.453  10.103  68.104  1.00  0.00    -0.142 C  
HETATM    3  C   UNL     1      -9.030   8.561  67.974  1.00  0.00    -0.141 C  
HETATM    4  C   UNL     1      -9.988   7.141  71.419  1.00  0.00    -0.193 A  
HETATM    5  O   UNL     1      -7.601   8.549  68.308  1.00  0.00    -0.094 OA 
HETATM    6  C   UNL     1     -11.016   6.268  71.094  1.00  0.00    -0.280 A  
HETATM    7  C   UNL     1      -9.747   7.736  69.053  1.00  0.00    -0.157 A  
HETATM    8  C   UNL     1      -9.094   8.039  66.509  1.00  0.00    -0.173 C  
HETATM    9  C   UNL     1      -9.359   7.869  70.408  1.00  0.00    -0.159 A  
HETATM   10  C   UNL     1     -10.826   6.881  68.784  1.00  0.00    -0.192 A  
HETATM   11  F   UNL     1     -11.615   5.565  72.064  1.00  0.00    -0.292 F  
HETATM   12  H   UNL     1      -7.351   7.636  68.231  1.00  0.00     0.000 HD 
HETATM   13  F   UNL     1     -11.333   6.784  67.549  1.00  0.00    -0.360 F  
HETATM   14  C   UNL     1     -11.442   6.133  69.784  1.00  0.00    -0.362 A  
ENDROOT
BRANCH   2  15
HETATM   15  N   UNL     1     -10.898  10.418  68.173  1.00  0.00    -0.243 NA 
HETATM   16  C   UNL     1     -11.938  12.414  70.121  1.00  0.00    -0.376 C  
HETATM   17  C   UNL     1     -11.582  11.018  70.569  1.00  0.00    -0.344 C  
HETATM   18  C   UNL     1     -12.738  13.219  70.838  1.00  0.00    -0.332 C  
HETATM   19  C   UNL     1     -11.570   9.993  69.416  1.00  0.00    -0.023 C  
HETATM   20  C   UNL     1     -11.336  12.848  68.807  1.00  0.00    -0.333 C  
HETATM   21  C   UNL     1     -11.391  11.732  67.753  1.00  0.00    -0.289 C  
ENDBRANCH   2  15
BRANCH   8  22
HETATM   22  N   UNL     1      -8.410   6.774  66.285  1.00  0.00    -0.120 NA 
HETATM   23  C   UNL     1      -6.971   5.280  66.395  1.00  0.00    -0.067 A  
HETATM   24  C   UNL     1      -8.932   5.633  65.750  1.00  0.00    -0.147 A  
HETATM   25  N   UNL     1      -8.035   4.675  65.792  1.00  0.00    -0.098 NA 
HETATM   26  N   UNL     1      -7.156   6.560  66.723  1.00  0.00    -0.067 NA 
ENDBRANCH   8  22
TORSDOF 2
ENDMDL
MODEL       84
REMARK 921   NORMALIZED FREE ENERGY PREDICTED BY IDOCK:   -3.93 KCAL/MOL
REMARK 922        TOTAL FREE ENERGY PREDICTED BY IDOCK:   -4.90 KCAL/MOL
REMARK 923 INTER-LIGAND FREE ENERGY PREDICTED BY IDOCK:   -4.93 KCAL/MOL
REMARK 924 INTRA-LIGAND FREE ENERGY PREDICTED BY IDOCK:    0.03 KCAL/MOL
REMARK 927      BINDING AFFINITY PREDICTED BY RF-SCORE:    0.00 PKD
ROOT
HETATM    1  C   UNL     1     -12.984  14.509  68.004  1.00  0.00     1.943 C  
HETATM    2  C   UNL     1     -11.467  14.633  68.250  1.00  0.00    -0.314 C  
HETATM    3  C   UNL     1     -10.607  14.057  67.024  1.00  0.00    -0.279 C  
HETATM    4  C   UNL     1      -7.349  16.089  67.266  1.00  0.00    -0.243 A  
HETATM    5  O   UNL     1     -11.065  14.832  65.865  1.00  0.00    -0.329 OA 
HETATM    6  C   UNL     1      -6.424  15.109  67.598  1.00  0.00    -0.155 A  
HETATM    7  C   UNL     1      -9.123  14.397  67.229  1.00  0.00    -0.221 A  
HETATM    8  C   UNL     1     -10.964  12.582  66.675  1.00  0.00    -0.266 C  
HETATM    9  C   UNL     1      -8.687  15.736  67.084  1.00  0.00    -0.228 A  
HETATM   10  C   UNL     1      -8.160  13.455  67.617  1.00  0.00    -0.175 A  
HETATM   11  F   UNL     1      -5.139  15.447  67.766  1.00  0.00    -0.113 F  
HETATM   12  H   UNL     1     -10.556  14.490  65.139  1.00  0.00     0.000 HD 
HETATM   13  F   UNL     1      -8.506  12.191  67.889  1.00  0.00    -0.132 F  
HETATM   14  C   UNL     1      -6.818  13.794  67.776  1.00  0.00    -0.182 A  
ENDROOT
BRANCH   2  15
HETATM   15  N   UNL     1     -11.011  14.315  69.622  1.00  0.00    -0.175 NA 
HETATM   16  C   UNL     1     -12.525  15.273  71.998  1.00  0.00    -0.430 C  
HETATM   17  C   UNL     1     -11.616  16.208  71.239  1.00  0.00    -0.470 C  
HETATM   18  C   UNL     1     -12.930  15.522  73.254  1.00  0.00    -0.654 C  
HETATM   19  C   UNL     1     -10.545  15.474  70.408  1.00  0.00    -0.271 C  
HETATM   20  C   UNL     1     -12.950  14.033  71.252  1.00  0.00    -0.418 C  
HETATM   21  C   UNL     1     -11.787  13.406  70.469  1.00  0.00    -0.158 C  
ENDBRANCH   2  15
BRANCH   8  22
HETATM   22  N   UNL     1     -10.472  12.127  65.384  1.00  0.00    -0.261 NA 
HETATM   23  C   UNL     1      -9.780  10.865  63.886  1.00  0.00    -0.303 A  
HETATM   24  C   UNL     1     -10.490  12.809  64.203  1.00  0.00    -0.413 A  
HETATM   25  N   UNL     1     -10.041  12.038  63.240  1.00  0.00    -0.415 NA 
HETATM   26  N   UNL     1     -10.036  10.868  65.196  1.00  0.00    -0.263 NA 
ENDBRANCH   8  22
TORSDOF 2
ENDMDL
MODEL       85
REMARK 921   NORMALIZED FREE ENERGY PREDICTED BY IDOCK:   -3.92 KCAL/MOL
REMARK 922        TOTAL FREE ENERGY PREDICTED BY IDOCK:   -4.89 KCAL/MOL
REMARK 923 INTER-LIGAND FREE ENERGY PREDICTED BY IDOCK:   -4.27 KCAL/MOL
REMARK 924 INTRA-LIGAND FREE ENERGY PREDICTED BY IDOCK:   -0.61 KCAL/MOL
REMARK 927      BINDING AFFINITY PREDICTED BY RF-SCORE:    0.00 PKD
ROOT
HETATM    1  C   UNL     1     -11.352   4.893  73.198  1.00  0.00    -0.395 C  
HETATM    2  C   UNL     1     -10.670   4.949  71.817  1.00  0.00    -0.026 C  
HETATM    3  C   UNL     1      -9.313   4.095  71.778  1.00  0.00    -0.135 C  
HETATM    4  C   UNL     1      -9.049   3.121  68.066  1.00  0.00    -0.218 A  
HETATM    5  O   UNL     1      -9.728   2.739  72.158  1.00  0.00    -0.130 OA 
HETATM    6  C   UNL     1      -7.918   3.818  67.665  1.00  0.00    -0.085 A  
HETATM    7  C   UNL     1      -8.795   4.014  70.334  1.00  0.00    -0.137 A  
HETATM    8  C   UNL     1      -8.301   4.518  72.882  1.00  0.00    -0.103 C  
HETATM    9  C   UNL     1      -9.484   3.218  69.388  1.00  0.00    -0.203 A  
HETATM   10  C   UNL     1      -7.690   4.741  69.867  1.00  0.00    -0.055 A  
HETATM   11  F   UNL     1      -7.497   3.720  66.398  1.00  0.00    -0.076 F  
HETATM   12  H   UNL     1      -8.925   2.233  72.135  1.00  0.00     0.000 HD 
HETATM   13  F   UNL     1      -7.051   5.606  70.663  1.00  0.00    -0.056 F  
HETATM   14  C   UNL     1      -7.235   4.629  68.555  1.00  0.00    -0.057 A  
ENDROOT
BRANCH   2  15
HETATM   15  N   UNL     1     -10.671   6.273  71.154  1.00  0.00    -0.238 NA 
HETATM   16  C   UNL     1     -12.497   8.439  72.064  1.00  0.00    -0.407 C  
HETATM   17  C   UNL     1     -13.013   7.311  71.205  1.00  0.00    -0.377 C  
HETATM   18  C   UNL     1     -13.151   9.605  72.191  1.00  0.00    -0.520 C  
HETATM   19  C   UNL     1     -11.903   6.596  70.409  1.00  0.00    -0.346 C  
HETATM   20  C   UNL     1     -11.192   8.172  72.771  1.00  0.00    -0.407 C  
HETATM   21  C   UNL     1     -10.181   7.457  71.863  1.00  0.00    -0.187 C  
ENDBRANCH   2  15
BRANCH   8  22
HETATM   22  N   UNL     1      -7.218   3.573  73.108  1.00  0.00    -0.053 NA 
HETATM   23  C   UNL     1      -6.222   1.818  73.605  1.00  0.00    -0.012 A  
HETATM   24  C   UNL     1      -5.925   3.678  72.690  1.00  0.00    -0.008 A  
HETATM   25  N   UNL     1      -5.267   2.587  73.006  1.00  0.00     0.000 NA 
HETATM   26  N   UNL     1      -7.433   2.374  73.682  1.00  0.00    -0.040 NA 
ENDBRANCH   8  22
TORSDOF 2
ENDMDL
MODEL       86
REMARK 921   NORMALIZED FREE ENERGY PREDICTED BY IDOCK:   -3.91 KCAL/MOL
REMARK 922        TOTAL FREE ENERGY PREDICTED BY IDOCK:   -4.87 KCAL/MOL
REMARK 923 INTER-LIGAND FREE ENERGY PREDICTED BY IDOCK:   -4.49 KCAL/MOL
REMARK 924 INTRA-LIGAND FREE ENERGY PREDICTED BY IDOCK:   -0.38 KCAL/MOL
REMARK 927      BINDING AFFINITY PREDICTED BY RF-SCORE:    0.00 PKD
ROOT
HETATM    1  C   UNL     1     -10.180   9.037  69.150  1.00  0.00    -0.213 C  
HETATM    2  C   UNL     1      -9.556   7.850  69.910  1.00  0.00    -0.168 C  
HETATM    3  C   UNL     1      -9.023   6.710  68.915  1.00  0.00    -0.130 C  
HETATM    4  C   UNL     1      -6.204   5.074  70.960  1.00  0.00    -0.022 A  
HETATM    5  O   UNL     1      -8.063   7.405  68.050  1.00  0.00    -0.120 OA 
HETATM    6  C   UNL     1      -6.712   3.803  71.185  1.00  0.00    -0.031 A  
HETATM    7  C   UNL     1      -8.229   5.662  69.710  1.00  0.00    -0.106 A  
HETATM    8  C   UNL     1     -10.123   6.192  67.944  1.00  0.00    -0.153 C  
HETATM    9  C   UNL     1      -6.955   5.996  70.229  1.00  0.00    -0.062 A  
HETATM   10  C   UNL     1      -8.721   4.383  70.010  1.00  0.00    -0.073 A  
HETATM   11  F   UNL     1      -5.988   2.918  71.881  1.00  0.00    -0.011 F  
HETATM   12  H   UNL     1      -7.747   6.729  67.461  1.00  0.00     0.000 HD 
HETATM   13  F   UNL     1      -9.961   4.025  69.659  1.00  0.00    -0.280 F  
HETATM   14  C   UNL     1      -7.966   3.450  70.718  1.00  0.00    -0.053 A  
ENDROOT
BRANCH   2  15
HETATM   15  N   UNL     1     -10.275   7.419  71.131  1.00  0.00    -0.194 NA 
HETATM   16  C   UNL     1     -13.072   8.296  71.648  1.00  0.00    -0.354 C  
HETATM   17  C   UNL     1     -11.915   9.231  71.903  1.00  0.00    -0.433 C  
HETATM   18  C   UNL     1     -14.283   8.483  72.197  1.00  0.00    -0.516 C  
HETATM   19  C   UNL     1     -10.571   8.498  72.093  1.00  0.00    -0.349 C  
HETATM   20  C   UNL     1     -12.777   7.131  70.737  1.00  0.00    -0.133 C  
HETATM   21  C   UNL     1     -11.410   6.498  71.036  1.00  0.00    -0.323 C  
ENDBRANCH   2  15
BRANCH   8  22
HETATM   22  N   UNL     1      -9.624   5.420  66.816  1.00  0.00    -0.137 NA 
HETATM   23  C   UNL     1      -8.582   4.928  65.088  1.00  0.00    -0.144 A  
HETATM   24  C   UNL     1      -9.688   4.069  66.644  1.00  0.00    -0.192 A  
HETATM   25  N   UNL     1      -9.050   3.731  65.548  1.00  0.00    -0.139 NA 
HETATM   26  N   UNL     1      -8.899   5.987  65.835  1.00  0.00    -0.154 NA 
ENDBRANCH   8  22
TORSDOF 2
ENDMDL
MODEL       87
REMARK 921   NORMALIZED FREE ENERGY PREDICTED BY IDOCK:   -3.87 KCAL/MOL
REMARK 922        TOTAL FREE ENERGY PREDICTED BY IDOCK:   -4.82 KCAL/MOL
REMARK 923 INTER-LIGAND FREE ENERGY PREDICTED BY IDOCK:   -4.22 KCAL/MOL
REMARK 924 INTRA-LIGAND FREE ENERGY PREDICTED BY IDOCK:   -0.60 KCAL/MOL
REMARK 927      BINDING AFFINITY PREDICTED BY RF-SCORE:    0.00 PKD
ROOT
HETATM    1  C   UNL     1      -7.694   9.591  68.158  1.00  0.00    -0.083 C  
HETATM    2  C   UNL     1      -8.736   8.892  69.053  1.00  0.00    -0.136 C  
HETATM    3  C   UNL     1      -8.290   7.403  69.451  1.00  0.00    -0.132 C  
HETATM    4  C   UNL     1     -10.086   6.866  72.811  1.00  0.00    -0.199 A  
HETATM    5  O   UNL     1      -6.992   7.580  70.113  1.00  0.00    -0.056 OA 
HETATM    6  C   UNL     1     -10.995   5.868  72.494  1.00  0.00    -0.264 A  
HETATM    7  C   UNL     1      -9.255   6.839  70.505  1.00  0.00    -0.156 A  
HETATM    8  C   UNL     1      -7.979   6.514  68.212  1.00  0.00    -0.110 C  
HETATM    9  C   UNL     1      -9.223   7.348  71.825  1.00  0.00    -0.155 A  
HETATM   10  C   UNL     1     -10.228   5.869  70.222  1.00  0.00    -0.218 A  
HETATM   11  F   UNL     1     -11.818   5.401  73.441  1.00  0.00    -0.240 F  
HETATM   12  H   UNL     1      -6.728   6.698  70.349  1.00  0.00     0.000 HD 
HETATM   13  F   UNL     1     -10.405   5.418  68.975  1.00  0.00    -0.240 F  
HETATM   14  C   UNL     1     -11.075   5.365  71.206  1.00  0.00    -0.053 A  
ENDROOT
BRANCH   2  15
HETATM   15  N   UNL     1     -10.152   9.110  68.680  1.00  0.00    -0.188 NA 
HETATM   16  C   UNL     1     -10.966  11.493  67.094  1.00  0.00    -0.338 C  
HETATM   17  C   UNL     1     -10.684  11.615  68.571  1.00  0.00    -0.250 C  
HETATM   18  C   UNL     1     -11.678  12.410  66.419  1.00  0.00    -0.453 C  
HETATM   19  C   UNL     1     -10.794  10.273  69.324  1.00  0.00    -0.238 C  
HETATM   20  C   UNL     1     -10.397  10.269  66.423  1.00  0.00    -0.262 C  
HETATM   21  C   UNL     1     -10.575   9.007  67.281  1.00  0.00    -0.231 C  
ENDBRANCH   2  15
BRANCH   8  22
HETATM   22  N   UNL     1      -7.257   5.287  68.511  1.00  0.00    -0.062 NA 
HETATM   23  C   UNL     1      -5.847   3.991  69.316  1.00  0.00    -0.022 A  
HETATM   24  C   UNL     1      -7.670   4.006  68.286  1.00  0.00    -0.066 A  
HETATM   25  N   UNL     1      -6.787   3.165  68.772  1.00  0.00    -0.044 NA 
HETATM   26  N   UNL     1      -6.095   5.296  69.190  1.00  0.00    -0.024 NA 
ENDBRANCH   8  22
TORSDOF 2
ENDMDL
MODEL       88
REMARK 921   NORMALIZED FREE ENERGY PREDICTED BY IDOCK:   -3.86 KCAL/MOL
REMARK 922        TOTAL FREE ENERGY PREDICTED BY IDOCK:   -4.82 KCAL/MOL
REMARK 923 INTER-LIGAND FREE ENERGY PREDICTED BY IDOCK:   -4.51 KCAL/MOL
REMARK 924 INTRA-LIGAND FREE ENERGY PREDICTED BY IDOCK:   -0.31 KCAL/MOL
REMARK 927      BINDING AFFINITY PREDICTED BY RF-SCORE:    0.00 PKD
ROOT
HETATM    1  C   UNL     1     -10.904   6.621  67.111  1.00  0.00    -0.471 C  
HETATM    2  C   UNL     1      -9.976   6.772  68.333  1.00  0.00    -0.151 C  
HETATM    3  C   UNL     1     -10.371   8.035  69.240  1.00  0.00    -0.220 C  
HETATM    4  C   UNL     1      -9.124   6.980  72.723  1.00  0.00    -0.155 A  
HETATM    5  O   UNL     1     -11.770   7.791  69.610  1.00  0.00    -0.311 OA 
HETATM    6  C   UNL     1      -8.103   7.891  72.951  1.00  0.00    -0.140 A  
HETATM    7  C   UNL     1      -9.556   8.011  70.542  1.00  0.00    -0.170 A  
HETATM    8  C   UNL     1     -10.405   9.368  68.437  1.00  0.00    -0.205 C  
HETATM    9  C   UNL     1      -9.844   7.039  71.529  1.00  0.00    -0.176 A  
HETATM   10  C   UNL     1      -8.480   8.875  70.796  1.00  0.00    -0.182 A  
HETATM   11  F   UNL     1      -7.417   7.839  74.100  1.00  0.00    -0.128 F  
HETATM   12  H   UNL     1     -12.004   8.539  70.147  1.00  0.00     0.000 HD 
HETATM   13  F   UNL     1      -8.065   9.746  69.870  1.00  0.00    -0.112 F  
HETATM   14  C   UNL     1      -7.773   8.838  71.997  1.00  0.00    -0.025 A  
ENDROOT
BRANCH   2  15
HETATM   15  N   UNL     1      -8.538   6.527  68.081  1.00  0.00    -0.119 NA 
HETATM   16  C   UNL     1      -7.628   4.064  66.681  1.00  0.00    -0.088 C  
HETATM   17  C   UNL     1      -8.022   4.018  68.136  1.00  0.00    -0.077 C  
HETATM   18  C   UNL     1      -6.875   3.111  66.108  1.00  0.00    -0.052 C  
HETATM   19  C   UNL     1      -7.958   5.395  68.828  1.00  0.00    -0.087 C  
HETATM   20  C   UNL     1      -8.132   5.257  65.908  1.00  0.00    -0.110 C  
HETATM   21  C   UNL     1      -8.009   6.559  66.715  1.00  0.00    -0.108 C  
ENDBRANCH   2  15
BRANCH   8  22
HETATM   22  N   UNL     1     -11.074  10.468  69.115  1.00  0.00    -0.233 NA 
HETATM   23  C   UNL     1     -11.978  11.583  70.617  1.00  0.00    -0.292 A  
HETATM   24  C   UNL     1     -11.207  11.753  68.678  1.00  0.00    -0.257 A  
HETATM   25  N   UNL     1     -11.792  12.477  69.604  1.00  0.00    -0.323 NA 
HETATM   26  N   UNL     1     -11.547  10.344  70.369  1.00  0.00    -0.312 NA 
ENDBRANCH   8  22
TORSDOF 2
ENDMDL
MODEL       89
REMARK 921   NORMALIZED FREE ENERGY PREDICTED BY IDOCK:   -3.85 KCAL/MOL
REMARK 922        TOTAL FREE ENERGY PREDICTED BY IDOCK:   -4.80 KCAL/MOL
REMARK 923 INTER-LIGAND FREE ENERGY PREDICTED BY IDOCK:   -4.41 KCAL/MOL
REMARK 924 INTRA-LIGAND FREE ENERGY PREDICTED BY IDOCK:   -0.40 KCAL/MOL
REMARK 927      BINDING AFFINITY PREDICTED BY RF-SCORE:    0.00 PKD
ROOT
HETATM    1  C   UNL     1      -9.984   8.720  66.519  1.00  0.00    -0.360 C  
HETATM    2  C   UNL     1      -9.269   7.579  67.270  1.00  0.00    -0.131 C  
HETATM    3  C   UNL     1     -10.018   7.192  68.635  1.00  0.00    -0.159 C  
HETATM    4  C   UNL     1      -9.049   3.497  69.096  1.00  0.00    -0.203 A  
HETATM    5  O   UNL     1     -11.378   6.836  68.213  1.00  0.00    -0.543 OA 
HETATM    6  C   UNL     1      -8.264   3.547  70.240  1.00  0.00    -0.055 A  
HETATM    7  C   UNL     1      -9.389   5.921  69.227  1.00  0.00    -0.147 A  
HETATM    8  C   UNL     1     -10.209   8.409  69.586  1.00  0.00    -0.209 C  
HETATM    9  C   UNL     1      -9.606   4.674  68.594  1.00  0.00    -0.226 A  
HETATM   10  C   UNL     1      -8.546   5.926  70.348  1.00  0.00    -0.135 A  
HETATM   11  F   UNL     1      -7.735   2.416  70.725  1.00  0.00    -0.039 F  
HETATM   12  H   UNL     1     -11.822   6.606  69.021  1.00  0.00     0.000 HD 
HETATM   13  F   UNL     1      -8.194   7.074  70.938  1.00  0.00    -0.113 F  
HETATM   14  C   UNL     1      -8.007   4.752  70.870  1.00  0.00    -0.082 A  
ENDROOT
BRANCH   2  15
HETATM   15  N   UNL     1      -7.791   7.652  67.292  1.00  0.00    -0.115 NA 
HETATM   16  C   UNL     1      -6.350   9.882  65.947  1.00  0.00    -0.085 C  
HETATM   17  C   UNL     1      -6.906   8.732  65.143  1.00  0.00    -0.075 C  
HETATM   18  C   UNL     1      -5.396  10.699  65.471  1.00  0.00    -0.134 C  
HETATM   19  C   UNL     1      -7.138   7.460  65.983  1.00  0.00    -0.066 C  
HETATM   20  C   UNL     1      -6.935  10.053  67.326  1.00  0.00    -0.083 C  
HETATM   21  C   UNL     1      -7.112   8.708  68.047  1.00  0.00    -0.082 C  
ENDBRANCH   2  15
BRANCH   8  22
HETATM   22  N   UNL     1     -11.163   8.194  70.664  1.00  0.00    -0.263 NA 
HETATM   23  C   UNL     1     -12.771   7.425  71.732  1.00  0.00    -0.334 A  
HETATM   24  C   UNL     1     -11.055   8.603  71.960  1.00  0.00    -0.367 A  
HETATM   25  N   UNL     1     -12.070   8.144  72.655  1.00  0.00    -0.325 NA 
HETATM   26  N   UNL     1     -12.251   7.418  70.502  1.00  0.00    -0.077 NA 
ENDBRANCH   8  22
TORSDOF 2
ENDMDL
MODEL       90
REMARK 921   NORMALIZED FREE ENERGY PREDICTED BY IDOCK:   -3.82 KCAL/MOL
REMARK 922        TOTAL FREE ENERGY PREDICTED BY IDOCK:   -4.77 KCAL/MOL
REMARK 923 INTER-LIGAND FREE ENERGY PREDICTED BY IDOCK:   -4.22 KCAL/MOL
REMARK 924 INTRA-LIGAND FREE ENERGY PREDICTED BY IDOCK:   -0.55 KCAL/MOL
REMARK 927      BINDING AFFINITY PREDICTED BY RF-SCORE:    0.00 PKD
ROOT
HETATM    1  C   UNL     1      -8.102  11.666  69.190  1.00  0.00     0.186 C  
HETATM    2  C   UNL     1      -7.786  10.605  68.118  1.00  0.00    -0.101 C  
HETATM    3  C   UNL     1      -8.366  11.009  66.678  1.00  0.00    -0.155 C  
HETATM    4  C   UNL     1      -5.965   9.201  64.276  1.00  0.00    -0.071 A  
HETATM    5  O   UNL     1      -7.753  12.312  66.393  1.00  0.00    -0.361 OA 
HETATM    6  C   UNL     1      -6.800   8.263  63.687  1.00  0.00    -0.080 A  
HETATM    7  C   UNL     1      -7.843  10.029  65.616  1.00  0.00    -0.138 A  
HETATM    8  C   UNL     1      -9.896  11.293  66.700  1.00  0.00    -0.205 C  
HETATM    9  C   UNL     1      -6.481  10.076  65.233  1.00  0.00    -0.112 A  
HETATM   10  C   UNL     1      -8.632   9.029  65.031  1.00  0.00    -0.181 A  
HETATM   11  F   UNL     1      -6.306   7.428  62.764  1.00  0.00    -0.051 F  
HETATM   12  H   UNL     1      -8.096  12.551  65.540  1.00  0.00     0.000 HD 
HETATM   13  F   UNL     1      -9.898   8.838  65.420  1.00  0.00    -0.200 F  
HETATM   14  C   UNL     1      -8.131   8.168  64.057  1.00  0.00    -0.122 A  
ENDROOT
BRANCH   2  15
HETATM   15  N   UNL     1      -7.929   9.195  68.547  1.00  0.00    -0.101 NA 
HETATM   16  C   UNL     1      -8.720   8.519  71.336  1.00  0.00    -0.237 C  
HETATM   17  C   UNL     1      -7.304   8.934  71.019  1.00  0.00    -0.114 C  
HETATM   18  C   UNL     1      -9.043   7.859  72.460  1.00  0.00    -0.245 C  
HETATM   19  C   UNL     1      -6.931   8.741  69.535  1.00  0.00    -0.055 C  
HETATM   20  C   UNL     1      -9.752   8.893  70.302  1.00  0.00    -0.212 C  
HETATM   21  C   UNL     1      -9.249   8.649  68.871  1.00  0.00    -0.145 C  
ENDBRANCH   2  15
BRANCH   8  22
HETATM   22  N   UNL     1     -10.404  11.980  65.523  1.00  0.00    -0.254 NA 
HETATM   23  C   UNL     1     -10.725  13.470  64.111  1.00  0.00    -0.199 A  
HETATM   24  C   UNL     1     -11.029  11.426  64.445  1.00  0.00    -0.302 A  
HETATM   25  N   UNL     1     -11.259  12.351  63.542  1.00  0.00    -0.464 NA 
HETATM   26  N   UNL     1     -10.183  13.292  65.318  1.00  0.00    -0.304 NA 
ENDBRANCH   8  22
TORSDOF 2
ENDMDL
MODEL       91
REMARK 921   NORMALIZED FREE ENERGY PREDICTED BY IDOCK:   -3.81 KCAL/MOL
REMARK 922        TOTAL FREE ENERGY PREDICTED BY IDOCK:   -4.76 KCAL/MOL
REMARK 923 INTER-LIGAND FREE ENERGY PREDICTED BY IDOCK:   -4.20 KCAL/MOL
REMARK 924 INTRA-LIGAND FREE ENERGY PREDICTED BY IDOCK:   -0.56 KCAL/MOL
REMARK 927      BINDING AFFINITY PREDICTED BY RF-SCORE:    0.00 PKD
ROOT
HETATM    1  C   UNL     1      -7.492   4.914  70.799  1.00  0.00    -0.065 C  
HETATM    2  C   UNL     1      -7.924   5.755  69.581  1.00  0.00    -0.100 C  
HETATM    3  C   UNL     1      -9.112   6.771  69.939  1.00  0.00    -0.144 C  
HETATM    4  C   UNL     1      -8.578   9.606  67.392  1.00  0.00    -0.125 A  
HETATM    5  O   UNL     1      -8.574   7.585  71.035  1.00  0.00    -0.130 OA 
HETATM    6  C   UNL     1      -9.712   9.497  66.600  1.00  0.00    -0.211 A  
HETATM    7  C   UNL     1      -9.353   7.722  68.756  1.00  0.00    -0.146 A  
HETATM    8  C   UNL     1     -10.353   6.059  70.552  1.00  0.00    -0.221 C  
HETATM    9  C   UNL     1      -8.399   8.725  68.461  1.00  0.00    -0.129 A  
HETATM   10  C   UNL     1     -10.454   7.620  67.894  1.00  0.00    -0.207 A  
HETATM   11  F   UNL     1      -9.885  10.346  65.579  1.00  0.00    -0.251 F  
HETATM   12  H   UNL     1      -9.277   8.187  71.247  1.00  0.00     0.000 HD 
HETATM   13  F   UNL     1     -11.343   6.629  68.029  1.00  0.00    -0.304 F  
HETATM   14  C   UNL     1     -10.652   8.510  66.841  1.00  0.00    -0.279 A  
ENDROOT
BRANCH   2  15
HETATM   15  N   UNL     1      -8.003   5.027  68.294  1.00  0.00    -0.086 NA 
HETATM   16  C   UNL     1      -6.374   2.583  67.815  1.00  0.00    -0.032 C  
HETATM   17  C   UNL     1      -5.749   3.953  67.720  1.00  0.00    -0.022 C  
HETATM   18  C   UNL     1      -5.815   1.495  67.262  1.00  0.00    -0.019 C  
HETATM   19  C   UNL     1      -6.777   5.075  67.474  1.00  0.00    -0.055 C  
HETATM   20  C   UNL     1      -7.676   2.515  68.574  1.00  0.00    -0.054 C  
HETATM   21  C   UNL     1      -8.603   3.692  68.233  1.00  0.00    -0.097 C  
ENDBRANCH   2  15
BRANCH   8  22
HETATM   22  N   UNL     1     -11.306   6.949  71.197  1.00  0.00    -0.275 NA 
HETATM   23  C   UNL     1     -12.066   8.537  72.300  1.00  0.00    -0.387 A  
HETATM   24  C   UNL     1     -12.652   7.015  70.987  1.00  0.00    -0.288 A  
HETATM   25  N   UNL     1     -13.161   8.002  71.686  1.00  0.00    -0.336 NA 
HETATM   26  N   UNL     1     -10.908   7.933  72.025  1.00  0.00    -0.240 NA 
ENDBRANCH   8  22
TORSDOF 2
ENDMDL
MODEL       92
REMARK 921   NORMALIZED FREE ENERGY PREDICTED BY IDOCK:   -3.78 KCAL/MOL
REMARK 922        TOTAL FREE ENERGY PREDICTED BY IDOCK:   -4.72 KCAL/MOL
REMARK 923 INTER-LIGAND FREE ENERGY PREDICTED BY IDOCK:   -5.82 KCAL/MOL
REMARK 924 INTRA-LIGAND FREE ENERGY PREDICTED BY IDOCK:    1.10 KCAL/MOL
REMARK 927      BINDING AFFINITY PREDICTED BY RF-SCORE:    0.00 PKD
ROOT
HETATM    1  C   UNL     1      -8.416  12.958  66.352  1.00  0.00     0.323 C  
HETATM    2  C   UNL     1      -9.510  13.660  67.181  1.00  0.00    -0.244 C  
HETATM    3  C   UNL     1      -9.792  12.908  68.569  1.00  0.00    -0.144 C  
HETATM    4  C   UNL     1     -11.060  15.761  70.819  1.00  0.00    -0.371 A  
HETATM    5  O   UNL     1      -8.488  12.888  69.242  1.00  0.00    -0.051 OA 
HETATM    6  C   UNL     1     -12.379  15.390  71.036  1.00  0.00    -0.392 A  
HETATM    7  C   UNL     1     -10.728  13.762  69.438  1.00  0.00    -0.014 A  
HETATM    8  C   UNL     1     -10.159  11.407  68.380  1.00  0.00    -0.201 C  
HETATM    9  C   UNL     1     -10.241  14.954  70.026  1.00  0.00     0.040 A  
HETATM   10  C   UNL     1     -12.082  13.460  69.645  1.00  0.00    -0.289 A  
HETATM   11  F   UNL     1     -13.162  16.161  71.802  1.00  0.00    -0.482 F  
HETATM   12  H   UNL     1      -8.655  12.443  70.064  1.00  0.00     0.000 HD 
HETATM   13  F   UNL     1     -12.653  12.416  69.033  1.00  0.00    -0.048 F  
HETATM   14  C   UNL     1     -12.898  14.246  70.455  1.00  0.00    -0.276 A  
ENDROOT
BRANCH   2  15
HETATM   15  N   UNL     1     -10.677  14.156  66.416  1.00  0.00    -0.286 NA 
HETATM   16  C   UNL     1     -11.880  12.528  64.235  1.00  0.00    -0.468 C  
HETATM   17  C   UNL     1     -10.606  13.302  64.001  1.00  0.00    -0.217 C  
HETATM   18  C   UNL     1     -12.655  12.095  63.228  1.00  0.00    -0.492 C  
HETATM   19  C   UNL     1     -10.407  14.462  64.997  1.00  0.00    -0.421 C  
HETATM   20  C   UNL     1     -12.230  12.274  65.680  1.00  0.00    -0.203 C  
HETATM   21  C   UNL     1     -11.984  13.511  66.557  1.00  0.00    -0.413 C  
ENDBRANCH   2  15
BRANCH   8  22
HETATM   22  N   UNL     1     -10.093  10.608  69.594  1.00  0.00    -0.145 NA 
HETATM   23  C   UNL     1     -10.686   9.615  71.319  1.00  0.00    -0.247 A  
HETATM   24  C   UNL     1      -9.069   9.804  70.002  1.00  0.00    -0.223 A  
HETATM   25  N   UNL     1      -9.413   9.176  71.103  1.00  0.00    -0.272 NA 
HETATM   26  N   UNL     1     -11.149  10.484  70.419  1.00  0.00    -0.289 NA 
ENDBRANCH   8  22
TORSDOF 2
ENDMDL
MODEL       93
REMARK 921   NORMALIZED FREE ENERGY PREDICTED BY IDOCK:   -3.77 KCAL/MOL
REMARK 922        TOTAL FREE ENERGY PREDICTED BY IDOCK:   -4.72 KCAL/MOL
REMARK 923 INTER-LIGAND FREE ENERGY PREDICTED BY IDOCK:   -4.52 KCAL/MOL
REMARK 924 INTRA-LIGAND FREE ENERGY PREDICTED BY IDOCK:   -0.20 KCAL/MOL
REMARK 927      BINDING AFFINITY PREDICTED BY RF-SCORE:    0.00 PKD
ROOT
HETATM    1  C   UNL     1     -10.110   9.372  66.399  1.00  0.00    -0.332 C  
HETATM    2  C   UNL     1      -9.498   7.967  66.229  1.00  0.00    -0.172 C  
HETATM    3  C   UNL     1      -9.953   6.965  67.396  1.00  0.00    -0.166 C  
HETATM    4  C   UNL     1      -9.727   3.530  65.677  1.00  0.00    -0.066 A  
HETATM    5  O   UNL     1     -11.419   6.964  67.322  1.00  0.00    -0.697 OA 
HETATM    6  C   UNL     1      -8.694   2.926  66.378  1.00  0.00    -0.134 A  
HETATM    7  C   UNL     1      -9.489   5.539  67.062  1.00  0.00    -0.133 A  
HETATM    8  C   UNL     1      -9.633   7.509  68.819  1.00  0.00    -0.149 C  
HETATM    9  C   UNL     1     -10.122   4.826  66.016  1.00  0.00    -0.282 A  
HETATM   10  C   UNL     1      -8.415   4.905  67.704  1.00  0.00    -0.104 A  
HETATM   11  F   UNL     1      -8.321   1.680  66.057  1.00  0.00    -0.075 F  
HETATM   12  H   UNL     1     -11.688   6.370  68.012  1.00  0.00     0.000 HD 
HETATM   13  F   UNL     1      -7.688   5.549  68.623  1.00  0.00    -0.082 F  
HETATM   14  C   UNL     1      -8.033   3.603  67.389  1.00  0.00    -0.082 A  
ENDROOT
BRANCH   2  15
HETATM   15  N   UNL     1      -8.080   7.932  65.804  1.00  0.00    -0.115 NA 
HETATM   16  C   UNL     1      -7.067   9.784  63.706  1.00  0.00    -0.121 C  
HETATM   17  C   UNL     1      -7.862   8.559  63.328  1.00  0.00    -0.153 C  
HETATM   18  C   UNL     1      -6.284  10.433  62.829  1.00  0.00    -0.141 C  
HETATM   19  C   UNL     1      -7.857   7.470  64.420  1.00  0.00    -0.128 C  
HETATM   20  C   UNL     1      -7.206  10.232  65.139  1.00  0.00    -0.125 C  
HETATM   21  C   UNL     1      -7.184   9.047  66.117  1.00  0.00    -0.090 C  
ENDBRANCH   2  15
BRANCH   8  22
HETATM   22  N   UNL     1     -10.315   6.816  69.902  1.00  0.00    -0.197 NA 
HETATM   23  C   UNL     1     -10.624   5.637  71.584  1.00  0.00    -0.241 A  
HETATM   24  C   UNL     1     -11.593   7.010  70.335  1.00  0.00    -0.295 A  
HETATM   25  N   UNL     1     -11.821   6.263  71.390  1.00  0.00    -0.271 NA 
HETATM   26  N   UNL     1      -9.669   5.950  70.705  1.00  0.00    -0.169 NA 
ENDBRANCH   8  22
TORSDOF 2
ENDMDL
MODEL       94
REMARK 921   NORMALIZED FREE ENERGY PREDICTED BY IDOCK:   -3.76 KCAL/MOL
REMARK 922        TOTAL FREE ENERGY PREDICTED BY IDOCK:   -4.71 KCAL/MOL
REMARK 923 INTER-LIGAND FREE ENERGY PREDICTED BY IDOCK:   -4.18 KCAL/MOL
REMARK 924 INTRA-LIGAND FREE ENERGY PREDICTED BY IDOCK:   -0.52 KCAL/MOL
REMARK 927      BINDING AFFINITY PREDICTED BY RF-SCORE:    0.00 PKD
ROOT
HETATM    1  C   UNL     1      -9.212   9.885  64.232  1.00  0.00    -0.317 C  
HETATM    2  C   UNL     1      -9.080   9.446  65.704  1.00  0.00    -0.207 C  
HETATM    3  C   UNL     1      -9.515  10.607  66.721  1.00  0.00    -0.162 C  
HETATM    4  C   UNL     1     -10.682   8.619  69.802  1.00  0.00    -0.215 A  
HETATM    5  O   UNL     1     -10.896  10.925  66.339  1.00  0.00    -0.230 OA 
HETATM    6  C   UNL     1      -9.728   8.969  70.748  1.00  0.00    -0.246 A  
HETATM    7  C   UNL     1      -9.566  10.048  68.151  1.00  0.00    -0.152 A  
HETATM    8  C   UNL     1      -8.731  11.933  66.496  1.00  0.00    -0.158 C  
HETATM    9  C   UNL     1     -10.601   9.154  68.515  1.00  0.00    -0.209 A  
HETATM   10  C   UNL     1      -8.598  10.327  69.126  1.00  0.00    -0.164 A  
HETATM   11  F   UNL     1      -9.809   8.461  71.984  1.00  0.00    -0.244 F  
HETATM   12  H   UNL     1     -11.153  11.613  66.942  1.00  0.00     0.000 HD 
HETATM   13  F   UNL     1      -7.523  11.069  68.834  1.00  0.00    -0.088 F  
HETATM   14  C   UNL     1      -8.685   9.818  70.420  1.00  0.00    -0.106 A  
ENDROOT
BRANCH   2  15
HETATM   15  N   UNL     1      -7.872   8.657  66.033  1.00  0.00    -0.099 NA 
HETATM   16  C   UNL     1      -6.933   6.475  64.239  1.00  0.00    -0.051 C  
HETATM   17  C   UNL     1      -8.097   6.253  65.174  1.00  0.00    -0.130 C  
HETATM   18  C   UNL     1      -6.240   5.461  63.698  1.00  0.00    -0.022 C  
HETATM   19  C   UNL     1      -8.122   7.240  66.359  1.00  0.00    -0.119 C  
HETATM   20  C   UNL     1      -6.595   7.917  63.955  1.00  0.00    -0.062 C  
HETATM   21  C   UNL     1      -6.659   8.784  65.221  1.00  0.00    -0.067 C  
ENDBRANCH   2  15
BRANCH   8  22
HETATM   22  N   UNL     1      -9.308  13.098  67.149  1.00  0.00    -0.227 NA 
HETATM   23  C   UNL     1     -10.586  14.686  67.548  1.00  0.00    -0.257 A  
HETATM   24  C   UNL     1      -9.033  13.569  68.399  1.00  0.00    -0.146 A  
HETATM   25  N   UNL     1      -9.818  14.586  68.671  1.00  0.00    -0.230 NA 
HETATM   26  N   UNL     1     -10.318  13.793  66.594  1.00  0.00    -0.275 NA 
ENDBRANCH   8  22
TORSDOF 2
ENDMDL
MODEL       95
REMARK 921   NORMALIZED FREE ENERGY PREDICTED BY IDOCK:   -3.75 KCAL/MOL
REMARK 922        TOTAL FREE ENERGY PREDICTED BY IDOCK:   -4.70 KCAL/MOL
REMARK 923 INTER-LIGAND FREE ENERGY PREDICTED BY IDOCK:   -4.11 KCAL/MOL
REMARK 924 INTRA-LIGAND FREE ENERGY PREDICTED BY IDOCK:   -0.59 KCAL/MOL
REMARK 927      BINDING AFFINITY PREDICTED BY RF-SCORE:    0.00 PKD
ROOT
HETATM    1  C   UNL     1      -9.400   3.471  68.025  1.00  0.00    -0.237 C  
HETATM    2  C   UNL     1      -9.088   4.909  67.567  1.00  0.00    -0.118 C  
HETATM    3  C   UNL     1      -9.393   5.988  68.715  1.00  0.00    -0.122 C  
HETATM    4  C   UNL     1      -6.956   8.836  67.849  1.00  0.00    -0.078 A  
HETATM    5  O   UNL     1      -8.566   5.555  69.848  1.00  0.00    -0.116 OA 
HETATM    6  C   UNL     1      -7.823   9.857  67.489  1.00  0.00    -0.098 A  
HETATM    7  C   UNL     1      -8.869   7.365  68.281  1.00  0.00    -0.128 A  
HETATM    8  C   UNL     1     -10.855   5.910  69.244  1.00  0.00    -0.344 C  
HETATM    9  C   UNL     1      -7.474   7.601  68.241  1.00  0.00    -0.104 A  
HETATM   10  C   UNL     1      -9.701   8.412  67.858  1.00  0.00    -0.158 A  
HETATM   11  F   UNL     1      -7.326  11.044  67.119  1.00  0.00    -0.094 F  
HETATM   12  H   UNL     1      -8.747   6.194  70.527  1.00  0.00     0.000 HD 
HETATM   13  F   UNL     1     -11.023   8.238  67.754  1.00  0.00    -0.237 F  
HETATM   14  C   UNL     1      -9.193   9.655  67.489  1.00  0.00    -0.149 A  
ENDROOT
BRANCH   2  15
HETATM   15  N   UNL     1      -9.490   5.244  66.182  1.00  0.00    -0.155 NA 
HETATM   16  C   UNL     1      -8.587   3.582  63.884  1.00  0.00    -0.090 C  
HETATM   17  C   UNL     1      -7.654   4.581  64.522  1.00  0.00    -0.073 C  
HETATM   18  C   UNL     1      -8.382   3.089  62.652  1.00  0.00    -0.074 C  
HETATM   19  C   UNL     1      -8.390   5.688  65.305  1.00  0.00    -0.146 C  
HETATM   20  C   UNL     1      -9.771   3.173  64.723  1.00  0.00    -0.105 C  
HETATM   21  C   UNL     1     -10.407   4.371  65.445  1.00  0.00    -0.216 C  
ENDBRANCH   2  15
BRANCH   8  22
HETATM   22  N   UNL     1     -11.086   6.618  70.495  1.00  0.00    -0.283 NA 
HETATM   23  C   UNL     1     -10.972   7.131  72.504  1.00  0.00    -0.273 A  
HETATM   24  C   UNL     1     -11.652   7.848  70.658  1.00  0.00    -0.204 A  
HETATM   25  N   UNL     1     -11.607   8.190  71.925  1.00  0.00    -0.286 NA 
HETATM   26  N   UNL     1     -10.626   6.149  71.669  1.00  0.00    -0.222 NA 
ENDBRANCH   8  22
TORSDOF 2
ENDMDL
MODEL       96
REMARK 921   NORMALIZED FREE ENERGY PREDICTED BY IDOCK:   -3.73 KCAL/MOL
REMARK 922        TOTAL FREE ENERGY PREDICTED BY IDOCK:   -4.67 KCAL/MOL
REMARK 923 INTER-LIGAND FREE ENERGY PREDICTED BY IDOCK:   -4.49 KCAL/MOL
REMARK 924 INTRA-LIGAND FREE ENERGY PREDICTED BY IDOCK:   -0.17 KCAL/MOL
REMARK 927      BINDING AFFINITY PREDICTED BY RF-SCORE:    0.00 PKD
ROOT
HETATM    1  C   UNL     1     -12.064  11.282  68.146  1.00  0.00    -0.009 C  
HETATM    2  C   UNL     1     -10.712  11.037  67.448  1.00  0.00    -0.257 C  
HETATM    3  C   UNL     1     -10.156   9.556  67.712  1.00  0.00    -0.198 C  
HETATM    4  C   UNL     1      -7.998   8.910  64.592  1.00  0.00    -0.132 A  
HETATM    5  O   UNL     1     -11.222   8.676  67.220  1.00  0.00    -0.278 OA 
HETATM    6  C   UNL     1      -6.723   8.842  65.134  1.00  0.00    -0.072 A  
HETATM    7  C   UNL     1      -8.925   9.301  66.827  1.00  0.00    -0.154 A  
HETATM    8  C   UNL     1     -10.034   9.216  69.226  1.00  0.00    -0.187 C  
HETATM    9  C   UNL     1      -9.090   9.138  65.431  1.00  0.00    -0.271 A  
HETATM   10  C   UNL     1      -7.612   9.277  67.318  1.00  0.00    -0.091 A  
HETATM   11  F   UNL     1      -5.676   8.617  64.330  1.00  0.00    -0.060 F  
HETATM   12  H   UNL     1     -10.892   7.799  67.376  1.00  0.00     0.000 HD 
HETATM   13  F   UNL     1      -7.355   9.537  68.606  1.00  0.00    -0.071 F  
HETATM   14  C   UNL     1      -6.519   9.025  66.491  1.00  0.00    -0.067 A  
ENDROOT
BRANCH   2  15
HETATM   15  N   UNL     1      -9.746  12.157  67.509  1.00  0.00    -0.183 NA 
HETATM   16  C   UNL     1     -10.585  14.937  66.856  1.00  0.00    -0.300 C  
HETATM   17  C   UNL     1     -10.315  13.939  65.757  1.00  0.00    -0.326 C  
HETATM   18  C   UNL     1     -10.597  16.262  66.639  1.00  0.00    -0.252 C  
HETATM   19  C   UNL     1      -9.418  12.768  66.206  1.00  0.00    -0.196 C  
HETATM   20  C   UNL     1     -10.838  14.347  68.221  1.00  0.00    -0.250 C  
HETATM   21  C   UNL     1      -9.875  13.193  68.536  1.00  0.00    -0.153 C  
ENDBRANCH   2  15
BRANCH   8  22
HETATM   22  N   UNL     1      -9.863   7.801  69.519  1.00  0.00    -0.176 NA 
HETATM   23  C   UNL     1      -9.043   6.038  70.249  1.00  0.00    -0.151 A  
HETATM   24  C   UNL     1     -10.797   6.813  69.409  1.00  0.00    -0.271 A  
HETATM   25  N   UNL     1     -10.298   5.682  69.850  1.00  0.00    -0.251 NA 
HETATM   26  N   UNL     1      -8.735   7.324  70.075  1.00  0.00    -0.140 NA 
ENDBRANCH   8  22
TORSDOF 2
ENDMDL
MODEL       97
REMARK 921   NORMALIZED FREE ENERGY PREDICTED BY IDOCK:   -3.73 KCAL/MOL
REMARK 922        TOTAL FREE ENERGY PREDICTED BY IDOCK:   -4.67 KCAL/MOL
REMARK 923 INTER-LIGAND FREE ENERGY PREDICTED BY IDOCK:   -4.49 KCAL/MOL
REMARK 924 INTRA-LIGAND FREE ENERGY PREDICTED BY IDOCK:   -0.18 KCAL/MOL
REMARK 927      BINDING AFFINITY PREDICTED BY RF-SCORE:    0.00 PKD
ROOT
HETATM    1  C   UNL     1      -6.725   7.560  70.503  1.00  0.00    -0.047 C  
HETATM    2  C   UNL     1      -7.432   8.447  69.458  1.00  0.00    -0.088 C  
HETATM    3  C   UNL     1      -8.907   8.870  69.926  1.00  0.00    -0.151 C  
HETATM    4  C   UNL     1      -9.436  12.207  68.085  1.00  0.00    -0.205 A  
HETATM    5  O   UNL     1      -8.698   9.552  71.209  1.00  0.00    -0.311 OA 
HETATM    6  C   UNL     1     -10.455  11.888  67.199  1.00  0.00    -0.221 A  
HETATM    7  C   UNL     1      -9.476   9.916  68.954  1.00  0.00    -0.170 A  
HETATM    8  C   UNL     1      -9.806   7.648  70.273  1.00  0.00    -0.180 C  
HETATM    9  C   UNL     1      -8.950  11.230  68.955  1.00  0.00    -0.054 A  
HETATM   10  C   UNL     1     -10.467   9.629  68.004  1.00  0.00    -0.229 A  
HETATM   11  F   UNL     1     -10.925  12.828  66.369  1.00  0.00    -0.273 F  
HETATM   12  H   UNL     1      -9.572   9.803  71.485  1.00  0.00     0.000 HD 
HETATM   13  F   UNL     1     -10.937   8.385  67.855  1.00  0.00    -0.213 F  
HETATM   14  C   UNL     1     -10.974  10.606  67.150  1.00  0.00    -0.312 A  
ENDROOT
BRANCH   2  15
HETATM   15  N   UNL     1      -7.244   8.048  68.045  1.00  0.00    -0.092 NA 
HETATM   16  C   UNL     1      -6.060   5.409  67.344  1.00  0.00    -0.030 C  
HETATM   17  C   UNL     1      -5.181   6.550  67.793  1.00  0.00    -0.004 C  
HETATM   18  C   UNL     1      -5.580   4.349  66.674  1.00  0.00    -0.017 C  
HETATM   19  C   UNL     1      -5.838   7.933  67.612  1.00  0.00    -0.041 C  
HETATM   20  C   UNL     1      -7.521   5.538  67.696  1.00  0.00    -0.081 C  
HETATM   21  C   UNL     1      -8.044   6.965  67.468  1.00  0.00    -0.116 C  
ENDBRANCH   2  15
BRANCH   8  22
HETATM   22  N   UNL     1     -11.016   7.974  71.012  1.00  0.00    -0.236 NA 
HETATM   23  C   UNL     1     -12.433   9.072  72.062  1.00  0.00    -0.390 A  
HETATM   24  C   UNL     1     -12.149   7.224  71.118  1.00  0.00    -0.340 A  
HETATM   25  N   UNL     1     -13.058   7.890  71.793  1.00  0.00    -0.329 NA 
HETATM   26  N   UNL     1     -11.186   9.174  71.597  1.00  0.00    -0.357 NA 
ENDBRANCH   8  22
TORSDOF 2
ENDMDL
MODEL       98
REMARK 921   NORMALIZED FREE ENERGY PREDICTED BY IDOCK:   -3.69 KCAL/MOL
REMARK 922        TOTAL FREE ENERGY PREDICTED BY IDOCK:   -4.62 KCAL/MOL
REMARK 923 INTER-LIGAND FREE ENERGY PREDICTED BY IDOCK:   -4.82 KCAL/MOL
REMARK 924 INTRA-LIGAND FREE ENERGY PREDICTED BY IDOCK:    0.19 KCAL/MOL
REMARK 927      BINDING AFFINITY PREDICTED BY RF-SCORE:    0.00 PKD
ROOT
HETATM    1  C   UNL     1      -9.909  14.525  66.521  1.00  0.00    -0.297 C  
HETATM    2  C   UNL     1     -10.841  13.673  67.405  1.00  0.00    -0.273 C  
HETATM    3  C   UNL     1     -10.037  12.896  68.556  1.00  0.00    -0.189 C  
HETATM    4  C   UNL     1     -12.702  12.493  71.302  1.00  0.00    -0.350 A  
HETATM    5  O   UNL     1      -9.355  13.960  69.302  1.00  0.00    -0.364 OA 
HETATM    6  C   UNL     1     -12.882  11.118  71.328  1.00  0.00    -0.412 A  
HETATM    7  C   UNL     1     -11.032  12.239  69.526  1.00  0.00    -0.007 A  
HETATM    8  C   UNL     1      -8.887  12.009  67.997  1.00  0.00    -0.179 C  
HETATM    9  C   UNL     1     -11.785  13.049  70.409  1.00  0.00    -0.117 A  
HETATM   10  C   UNL     1     -11.289  10.861  69.554  1.00  0.00    -0.283 A  
HETATM   11  F   UNL     1     -13.757  10.584  72.190  1.00  0.00    -0.425 F  
HETATM   12  H   UNL     1      -8.880  13.499  69.983  1.00  0.00     0.000 HD 
HETATM   13  F   UNL     1     -10.708  10.036  68.675  1.00  0.00    -0.207 F  
HETATM   14  C   UNL     1     -12.184  10.296  70.460  1.00  0.00    -0.390 A  
ENDROOT
BRANCH   2  15
HETATM   15  N   UNL     1     -11.907  12.935  66.690  1.00  0.00    -0.392 NA 
HETATM   16  C   UNL     1     -11.730  12.451  63.758  1.00  0.00    -0.566 C  
HETATM   17  C   UNL     1     -12.152  13.799  64.290  1.00  0.00    -0.481 C  
HETATM   18  C   UNL     1     -11.984  12.061  62.499  1.00  0.00     1.420 C  
HETATM   19  C   UNL     1     -12.689  13.742  65.734  1.00  0.00    -0.446 C  
HETATM   20  C   UNL     1     -11.002  11.566  64.739  1.00  0.00    -0.338 C  
HETATM   21  C   UNL     1     -11.643  11.605  66.135  1.00  0.00    -0.028 C  
ENDBRANCH   2  15
BRANCH   8  22
HETATM   22  N   UNL     1      -7.929  11.558  68.994  1.00  0.00    -0.048 NA 
HETATM   23  C   UNL     1      -6.945  10.329  70.350  1.00  0.00    -0.072 A  
HETATM   24  C   UNL     1      -6.754  12.156  69.345  1.00  0.00    -0.056 A  
HETATM   25  N   UNL     1      -6.119  11.406  70.216  1.00  0.00    -0.172 NA 
HETATM   26  N   UNL     1      -8.059  10.372  69.616  1.00  0.00    -0.143 NA 
ENDBRANCH   8  22
TORSDOF 2
ENDMDL
MODEL       99
REMARK 921   NORMALIZED FREE ENERGY PREDICTED BY IDOCK:   -3.67 KCAL/MOL
REMARK 922        TOTAL FREE ENERGY PREDICTED BY IDOCK:   -4.61 KCAL/MOL
REMARK 923 INTER-LIGAND FREE ENERGY PREDICTED BY IDOCK:   -5.29 KCAL/MOL
REMARK 924 INTRA-LIGAND FREE ENERGY PREDICTED BY IDOCK:    0.69 KCAL/MOL
REMARK 927      BINDING AFFINITY PREDICTED BY RF-SCORE:    0.00 PKD
ROOT
HETATM    1  C   UNL     1     -10.173   5.448  73.083  1.00  0.00    -0.216 C  
HETATM    2  C   UNL     1     -10.318   6.904  72.596  1.00  0.00    -0.203 C  
HETATM    3  C   UNL     1     -10.738   6.984  71.050  1.00  0.00    -0.233 C  
HETATM    4  C   UNL     1     -12.597  10.348  70.868  1.00  0.00    -0.478 A  
HETATM    5  O   UNL     1     -11.994   6.228  70.976  1.00  0.00    -0.267 OA 
HETATM    6  C   UNL     1     -11.754  11.099  70.062  1.00  0.00    -0.356 A  
HETATM    7  C   UNL     1     -11.072   8.438  70.681  1.00  0.00    -0.278 A  
HETATM    8  C   UNL     1      -9.760   6.213  70.117  1.00  0.00    -0.163 C  
HETATM    9  C   UNL     1     -12.259   9.029  71.176  1.00  0.00    -0.331 A  
HETATM   10  C   UNL     1     -10.228   9.255  69.915  1.00  0.00    -0.214 A  
HETATM   11  F   UNL     1     -12.082  12.362  69.761  1.00  0.00    -0.338 F  
HETATM   12  H   UNL     1     -12.242   6.276  70.061  1.00  0.00     0.000 HD 
HETATM   13  F   UNL     1      -9.033   8.814  69.504  1.00  0.00    -0.136 F  
HETATM   14  C   UNL     1     -10.571  10.564  69.582  1.00  0.00    -0.281 A  
ENDROOT
BRANCH   2  15
HETATM   15  N   UNL     1      -9.286   7.849  73.081  1.00  0.00    -0.248 NA 
HETATM   16  C   UNL     1      -6.481   6.957  73.521  1.00  0.00    -0.067 C  
HETATM   17  C   UNL     1      -7.556   6.635  74.530  1.00  0.00    -0.106 C  
HETATM   18  C   UNL     1      -5.174   6.919  73.823  1.00  0.00    -0.042 C  
HETATM   19  C   UNL     1      -8.777   7.573  74.438  1.00  0.00    -0.178 C  
HETATM   20  C   UNL     1      -6.974   7.329  72.144  1.00  0.00    -0.063 C  
HETATM   21  C   UNL     1      -8.191   8.264  72.202  1.00  0.00    -0.157 C  
ENDBRANCH   2  15
BRANCH   8  22
HETATM   22  N   UNL     1     -10.267   5.970  68.775  1.00  0.00    -0.171 NA 
HETATM   23  C   UNL     1     -11.243   6.270  66.966  1.00  0.00    -0.163 A  
HETATM   24  C   UNL     1      -9.882   4.989  67.909  1.00  0.00    -0.151 A  
HETATM   25  N   UNL     1     -10.498   5.146  66.760  1.00  0.00    -0.263 NA 
HETATM   26  N   UNL     1     -11.128   6.815  68.179  1.00  0.00    -0.189 NA 
ENDBRANCH   8  22
TORSDOF 2
ENDMDL
MODEL      100
REMARK 921   NORMALIZED FREE ENERGY PREDICTED BY IDOCK:   -3.65 KCAL/MOL
REMARK 922        TOTAL FREE ENERGY PREDICTED BY IDOCK:   -4.58 KCAL/MOL
REMARK 923 INTER-LIGAND FREE ENERGY PREDICTED BY IDOCK:   -4.41 KCAL/MOL
REMARK 924 INTRA-LIGAND FREE ENERGY PREDICTED BY IDOCK:   -0.17 KCAL/MOL
REMARK 927      BINDING AFFINITY PREDICTED BY RF-SCORE:    0.00 PKD
ROOT
HETATM    1  C   UNL     1      -8.808   4.847  69.997  1.00  0.00    -0.126 C  
HETATM    2  C   UNL     1      -8.612   6.234  69.354  1.00  0.00    -0.125 C  
HETATM    3  C   UNL     1      -9.571   7.343  70.007  1.00  0.00    -0.168 C  
HETATM    4  C   UNL     1      -7.586  10.591  69.451  1.00  0.00    -0.145 A  
HETATM    5  O   UNL     1      -9.231   7.319  71.435  1.00  0.00    -0.143 OA 
HETATM    6  C   UNL     1      -8.398  11.275  68.558  1.00  0.00    -0.155 A  
HETATM    7  C   UNL     1      -9.185   8.734  69.482  1.00  0.00    -0.149 A  
HETATM    8  C   UNL     1     -11.075   6.947  69.956  1.00  0.00    -0.299 C  
HETATM    9  C   UNL     1      -7.975   9.332  69.908  1.00  0.00    -0.113 A  
HETATM   10  C   UNL     1      -9.944   9.442  68.538  1.00  0.00    -0.173 A  
HETATM   11  F   UNL     1      -8.028  12.487  68.125  1.00  0.00    -0.122 F  
HETATM   12  H   UNL     1      -9.799   7.975  71.822  1.00  0.00     0.000 HD 
HETATM   13  F   UNL     1     -11.041   8.901  67.994  1.00  0.00    -0.179 F  
HETATM   14  C   UNL     1      -9.575  10.710  68.096  1.00  0.00    -0.165 A  
ENDROOT
BRANCH   2  15
HETATM   15  N   UNL     1      -8.450   6.244  67.883  1.00  0.00    -0.117 NA 
HETATM   16  C   UNL     1      -8.257   3.701  66.349  1.00  0.00    -0.100 C  
HETATM   17  C   UNL     1      -7.067   4.229  67.111  1.00  0.00    -0.067 C  
HETATM   18  C   UNL     1      -8.139   2.796  65.364  1.00  0.00    -0.087 C  
HETATM   19  C   UNL     1      -7.150   5.743  67.396  1.00  0.00    -0.074 C  
HETATM   20  C   UNL     1      -9.595   4.261  66.764  1.00  0.00    -0.221 C  
HETATM   21  C   UNL     1      -9.532   5.775  67.015  1.00  0.00    -0.124 C  
ENDBRANCH   2  15
BRANCH   8  22
HETATM   22  N   UNL     1     -11.941   7.737  70.818  1.00  0.00    -0.210 NA 
HETATM   23  C   UNL     1     -12.719   9.362  71.853  1.00  0.00    -0.401 A  
HETATM   24  C   UNL     1     -13.175   7.398  71.288  1.00  0.00    -0.281 A  
HETATM   25  N   UNL     1     -13.684   8.404  71.961  1.00  0.00    -0.374 NA 
HETATM   26  N   UNL     1     -11.639   9.004  71.156  1.00  0.00    -0.288 NA 
ENDBRANCH   8  22
TORSDOF 2
ENDMDL
MODEL      101
REMARK 921   NORMALIZED FREE ENERGY PREDICTED BY IDOCK:   -3.64 KCAL/MOL
REMARK 922        TOTAL FREE ENERGY PREDICTED BY IDOCK:   -4.57 KCAL/MOL
REMARK 923 INTER-LIGAND FREE ENERGY PREDICTED BY IDOCK:   -4.87 KCAL/MOL
REMARK 924 INTRA-LIGAND FREE ENERGY PREDICTED BY IDOCK:    0.30 KCAL/MOL
REMARK 927      BINDING AFFINITY PREDICTED BY RF-SCORE:    0.00 PKD
ROOT
HETATM    1  C   UNL     1      -9.551   7.687  68.337  1.00  0.00    -0.155 C  
HETATM    2  C   UNL     1      -9.715   9.145  68.810  1.00  0.00    -0.162 C  
HETATM    3  C   UNL     1     -10.099  10.131  67.605  1.00  0.00    -0.190 C  
HETATM    4  C   UNL     1     -12.026  12.934  69.404  1.00  0.00    -0.327 A  
HETATM    5  O   UNL     1     -11.336   9.564  67.053  1.00  0.00    -0.030 OA 
HETATM    6  C   UNL     1     -11.180  14.020  69.233  1.00  0.00    -0.261 A  
HETATM    7  C   UNL     1     -10.456  11.517  68.165  1.00  0.00    -0.216 A  
HETATM    8  C   UNL     1      -9.082  10.072  66.428  1.00  0.00    -0.149 C  
HETATM    9  C   UNL     1     -11.667  11.693  68.875  1.00  0.00    -0.397 A  
HETATM   10  C   UNL     1      -9.611  12.632  68.064  1.00  0.00    -0.213 A  
HETATM   11  F   UNL     1     -11.527  15.211  69.734  1.00  0.00    -0.236 F  
HETATM   12  H   UNL     1     -11.563  10.148  66.340  1.00  0.00     0.000 HD 
HETATM   13  F   UNL     1      -8.397  12.526  67.511  1.00  0.00    -0.138 F  
HETATM   14  C   UNL     1      -9.974  13.879  68.568  1.00  0.00    -0.221 A  
ENDROOT
BRANCH   2  15
HETATM   15  N   UNL     1      -8.717   9.617  69.796  1.00  0.00    -0.191 NA 
HETATM   16  C   UNL     1      -6.804   7.721  71.063  1.00  0.00    -0.045 C  
HETATM   17  C   UNL     1      -8.234   7.800  71.538  1.00  0.00    -0.113 C  
HETATM   18  C   UNL     1      -5.826   7.184  71.810  1.00  0.00    -0.037 C  
HETATM   19  C   UNL     1      -8.923   9.131  71.174  1.00  0.00    -0.179 C  
HETATM   20  C   UNL     1      -6.543   8.290  69.691  1.00  0.00    -0.037 C  
HETATM   21  C   UNL     1      -7.290   9.613  69.465  1.00  0.00    -0.084 C  
ENDBRANCH   2  15
BRANCH   8  22
HETATM   22  N   UNL     1      -9.550  10.676  65.190  1.00  0.00    -0.229 NA 
HETATM   23  C   UNL     1      -9.751  11.082  63.162  1.00  0.00    -0.369 A  
HETATM   24  C   UNL     1     -10.660  11.449  65.013  1.00  0.00    -0.299 A  
HETATM   25  N   UNL     1     -10.801  11.734  63.739  1.00  0.00    -0.385 NA 
HETATM   26  N   UNL     1      -8.963  10.414  64.008  1.00  0.00    -0.210 NA 
ENDBRANCH   8  22
TORSDOF 2
ENDMDL
MODEL      102
REMARK 921   NORMALIZED FREE ENERGY PREDICTED BY IDOCK:   -3.56 KCAL/MOL
REMARK 922        TOTAL FREE ENERGY PREDICTED BY IDOCK:   -4.48 KCAL/MOL
REMARK 923 INTER-LIGAND FREE ENERGY PREDICTED BY IDOCK:   -3.86 KCAL/MOL
REMARK 924 INTRA-LIGAND FREE ENERGY PREDICTED BY IDOCK:   -0.62 KCAL/MOL
REMARK 927      BINDING AFFINITY PREDICTED BY RF-SCORE:    0.00 PKD
ROOT
HETATM    1  C   UNL     1      -6.245  11.335  66.932  1.00  0.00    -0.123 C  
HETATM    2  C   UNL     1      -6.845  11.013  68.315  1.00  0.00    -0.067 C  
HETATM    3  C   UNL     1      -7.715   9.665  68.296  1.00  0.00    -0.082 C  
HETATM    4  C   UNL     1      -7.432   8.441  71.933  1.00  0.00    -0.129 A  
HETATM    5  O   UNL     1      -6.781   8.637  67.823  1.00  0.00    -0.064 OA 
HETATM    6  C   UNL     1      -8.738   8.571  72.382  1.00  0.00    -0.172 A  
HETATM    7  C   UNL     1      -8.107   9.283  69.732  1.00  0.00    -0.120 A  
HETATM    8  C   UNL     1      -8.845   9.690  67.226  1.00  0.00    -0.132 C  
HETATM    9  C   UNL     1      -7.119   8.795  70.619  1.00  0.00    -0.063 A  
HETATM   10  C   UNL     1      -9.400   9.446  70.250  1.00  0.00    -0.252 A  
HETATM   11  F   UNL     1      -9.040   8.225  73.640  1.00  0.00    -0.315 F  
HETATM   12  H   UNL     1      -7.296   7.840  67.812  1.00  0.00     0.000 HD 
HETATM   13  F   UNL     1     -10.368  10.009  69.516  1.00  0.00    -0.188 F  
HETATM   14  C   UNL     1      -9.726   9.072  71.552  1.00  0.00    -0.365 A  
ENDROOT
BRANCH   2  15
HETATM   15  N   UNL     1      -7.381  12.169  69.068  1.00  0.00    -0.052 NA 
HETATM   16  C   UNL     1      -6.577  14.950  68.378  1.00  0.00    -0.103 C  
HETATM   17  C   UNL     1      -5.655  14.060  69.174  1.00  0.00    -0.081 C  
HETATM   18  C   UNL     1      -6.447  16.286  68.357  1.00  0.00    -0.130 C  
HETATM   19  C   UNL     1      -6.387  12.899  69.878  1.00  0.00    -0.029 C  
HETATM   20  C   UNL     1      -7.660  14.239  67.607  1.00  0.00    -0.191 C  
HETATM   21  C   UNL     1      -8.303  13.109  68.426  1.00  0.00    -0.122 C  
ENDBRANCH   2  15
BRANCH   8  22
HETATM   22  N   UNL     1      -9.436   8.392  66.936  1.00  0.00    -0.171 NA 
HETATM   23  C   UNL     1      -9.611   6.408  66.346  1.00  0.00    -0.113 A  
HETATM   24  C   UNL     1     -10.658   7.932  67.328  1.00  0.00    -0.295 A  
HETATM   25  N   UNL     1     -10.802   6.682  66.952  1.00  0.00    -0.359 NA 
HETATM   26  N   UNL     1      -8.740   7.419  66.320  1.00  0.00    -0.144 NA 
ENDBRANCH   8  22
TORSDOF 2
ENDMDL
MODEL      103
REMARK 921   NORMALIZED FREE ENERGY PREDICTED BY IDOCK:   -3.53 KCAL/MOL
REMARK 922        TOTAL FREE ENERGY PREDICTED BY IDOCK:   -4.44 KCAL/MOL
REMARK 923 INTER-LIGAND FREE ENERGY PREDICTED BY IDOCK:   -4.35 KCAL/MOL
REMARK 924 INTRA-LIGAND FREE ENERGY PREDICTED BY IDOCK:   -0.09 KCAL/MOL
REMARK 927      BINDING AFFINITY PREDICTED BY RF-SCORE:    0.00 PKD
ROOT
HETATM    1  C   UNL     1      -8.056   8.432  70.209  1.00  0.00    -0.104 C  
HETATM    2  C   UNL     1      -8.861   7.329  70.923  1.00  0.00    -0.149 C  
HETATM    3  C   UNL     1      -8.090   5.923  70.924  1.00  0.00    -0.120 C  
HETATM    4  C   UNL     1      -9.474   4.217  74.083  1.00  0.00    -0.120 A  
HETATM    5  O   UNL     1      -6.809   6.213  71.579  1.00  0.00    -0.064 OA 
HETATM    6  C   UNL     1     -10.182   3.151  73.547  1.00  0.00    -0.129 A  
HETATM    7  C   UNL     1      -8.835   4.926  71.825  1.00  0.00    -0.141 A  
HETATM    8  C   UNL     1      -7.699   5.446  69.495  1.00  0.00    -0.077 C  
HETATM    9  C   UNL     1      -8.807   5.097  73.229  1.00  0.00    -0.118 A  
HETATM   10  C   UNL     1      -9.607   3.865  71.331  1.00  0.00    -0.166 A  
HETATM   11  F   UNL     1     -10.816   2.303  74.366  1.00  0.00    -0.190 F  
HETATM   12  H   UNL     1      -6.352   5.380  71.580  1.00  0.00     0.000 HD 
HETATM   13  F   UNL     1      -9.783   3.698  70.015  1.00  0.00    -0.244 F  
HETATM   14  C   UNL     1     -10.255   2.967  72.177  1.00  0.00    -0.146 A  
ENDROOT
BRANCH   2  15
HETATM   15  N   UNL     1     -10.316   7.317  70.650  1.00  0.00    -0.203 NA 
HETATM   16  C   UNL     1     -12.075   9.508  71.634  1.00  0.00    -0.474 C  
HETATM   17  C   UNL     1     -11.607   8.421  72.570  1.00  0.00    -0.426 C  
HETATM   18  C   UNL     1     -13.135  10.285  71.905  1.00  0.00    -0.568 C  
HETATM   19  C   UNL     1     -11.171   7.135  71.839  1.00  0.00    -0.249 C  
HETATM   20  C   UNL     1     -11.273   9.663  70.366  1.00  0.00    -0.342 C  
HETATM   21  C   UNL     1     -10.909   8.305  69.746  1.00  0.00    -0.185 C  
ENDBRANCH   2  15
BRANCH   8  22
HETATM   22  N   UNL     1      -6.720   4.371  69.459  1.00  0.00    -0.043 NA 
HETATM   23  C   UNL     1      -5.519   2.795  70.083  1.00  0.00    -0.016 A  
HETATM   24  C   UNL     1      -6.182   3.776  68.356  1.00  0.00    -0.032 A  
HETATM   25  N   UNL     1      -5.404   2.785  68.724  1.00  0.00    -0.012 NA 
HETATM   26  N   UNL     1      -6.320   3.741  70.579  1.00  0.00    -0.026 NA 
ENDBRANCH   8  22
TORSDOF 2
ENDMDL
MODEL      104
REMARK 921   NORMALIZED FREE ENERGY PREDICTED BY IDOCK:   -3.52 KCAL/MOL
REMARK 922        TOTAL FREE ENERGY PREDICTED BY IDOCK:   -4.44 KCAL/MOL
REMARK 923 INTER-LIGAND FREE ENERGY PREDICTED BY IDOCK:   -4.79 KCAL/MOL
REMARK 924 INTRA-LIGAND FREE ENERGY PREDICTED BY IDOCK:    0.36 KCAL/MOL
REMARK 927      BINDING AFFINITY PREDICTED BY RF-SCORE:    0.00 PKD
ROOT
HETATM    1  C   UNL     1      -8.857  14.358  66.529  1.00  0.00    -0.122 C  
HETATM    2  C   UNL     1      -9.853  14.820  67.610  1.00  0.00    -0.218 C  
HETATM    3  C   UNL     1     -10.253  13.632  68.611  1.00  0.00    -0.197 C  
HETATM    4  C   UNL     1     -11.143  15.527  71.839  1.00  0.00    -0.205 A  
HETATM    5  O   UNL     1      -8.971  13.181  69.168  1.00  0.00    -0.200 OA 
HETATM    6  C   UNL     1     -12.503  15.277  71.953  1.00  0.00    -0.353 A  
HETATM    7  C   UNL     1     -11.072  14.196  69.782  1.00  0.00    -0.142 A  
HETATM    8  C   UNL     1     -10.820  12.385  67.873  1.00  0.00    -0.222 C  
HETATM    9  C   UNL     1     -10.434  14.991  70.763  1.00  0.00     0.199 A  
HETATM   10  C   UNL     1     -12.457  14.018  69.913  1.00  0.00    -0.246 A  
HETATM   11  F   UNL     1     -13.182  15.785  72.989  1.00  0.00    -0.466 F  
HETATM   12  H   UNL     1      -9.208  12.478  69.760  1.00  0.00     0.000 HD 
HETATM   13  F   UNL     1     -13.160  13.379  68.970  1.00  0.00     0.564 F  
HETATM   14  C   UNL     1     -13.168  14.528  70.998  1.00  0.00    -0.414 A  
ENDROOT
BRANCH   2  15
HETATM   15  N   UNL     1     -10.931  15.723  67.147  1.00  0.00    -0.288 NA 
HETATM   16  C   UNL     1     -10.343  18.535  66.369  1.00  0.00    -0.456 C  
HETATM   17  C   UNL     1     -10.438  18.145  67.823  1.00  0.00    -0.421 C  
HETATM   18  C   UNL     1     -10.453  19.807  65.955  1.00  0.00    -0.609 C  
HETATM   19  C   UNL     1     -11.237  16.846  68.054  1.00  0.00    -0.064 C  
HETATM   20  C   UNL     1     -10.118  17.397  65.405  1.00  0.00     0.277 C  
HETATM   21  C   UNL     1     -10.975  16.170  65.753  1.00  0.00    -0.102 C  
ENDBRANCH   2  15
BRANCH   8  22
HETATM   22  N   UNL     1     -10.878  11.176  68.680  1.00  0.00    -0.194 NA 
HETATM   23  C   UNL     1     -11.511   9.799  70.101  1.00  0.00    -0.216 A  
HETATM   24  C   UNL     1     -10.238   9.994  68.450  1.00  0.00    -0.172 A  
HETATM   25  N   UNL     1     -10.608   9.108  69.346  1.00  0.00    -0.225 NA 
HETATM   26  N   UNL     1     -11.717  11.063  69.727  1.00  0.00    -0.303 NA 
ENDBRANCH   8  22
TORSDOF 2
ENDMDL
MODEL      105
REMARK 921   NORMALIZED FREE ENERGY PREDICTED BY IDOCK:   -3.52 KCAL/MOL
REMARK 922        TOTAL FREE ENERGY PREDICTED BY IDOCK:   -4.44 KCAL/MOL
REMARK 923 INTER-LIGAND FREE ENERGY PREDICTED BY IDOCK:   -4.56 KCAL/MOL
REMARK 924 INTRA-LIGAND FREE ENERGY PREDICTED BY IDOCK:    0.13 KCAL/MOL
REMARK 927      BINDING AFFINITY PREDICTED BY RF-SCORE:    0.00 PKD
ROOT
HETATM    1  C   UNL     1      -9.587   7.868  69.730  1.00  0.00    -0.167 C  
HETATM    2  C   UNL     1      -9.228   6.872  70.850  1.00  0.00    -0.157 C  
HETATM    3  C   UNL     1      -8.761   5.452  70.269  1.00  0.00    -0.127 C  
HETATM    4  C   UNL     1      -6.445   4.137  73.046  1.00  0.00    -0.040 A  
HETATM    5  O   UNL     1      -7.622   5.773  69.400  1.00  0.00    -0.084 OA 
HETATM    6  C   UNL     1      -7.153   3.040  73.515  1.00  0.00    -0.041 A  
HETATM    7  C   UNL     1      -8.217   4.580  71.411  1.00  0.00    -0.100 A  
HETATM    8  C   UNL     1      -9.813   4.813  69.315  1.00  0.00    -0.199 C  
HETATM    9  C   UNL     1      -6.972   4.900  72.003  1.00  0.00    -0.061 A  
HETATM   10  C   UNL     1      -8.918   3.494  71.956  1.00  0.00    -0.100 A  
HETATM   11  F   UNL     1      -6.644   2.304  74.511  1.00  0.00    -0.014 F  
HETATM   12  H   UNL     1      -7.346   4.932  69.056  1.00  0.00     0.000 HD 
HETATM   13  F   UNL     1     -10.152   3.193  71.535  1.00  0.00    -0.246 F  
HETATM   14  C   UNL     1      -8.387   2.712  72.980  1.00  0.00    -0.070 A  
ENDROOT
BRANCH   2  15
HETATM   15  N   UNL     1     -10.129   6.873  72.025  1.00  0.00    -0.186 NA 
HETATM   16  C   UNL     1     -12.710   8.354  71.970  1.00  0.00    -0.399 C  
HETATM   17  C   UNL     1     -11.409   9.088  72.182  1.00  0.00    -0.311 C  
HETATM   18  C   UNL     1     -13.898   8.885  72.301  1.00  0.00    -0.536 C  
HETATM   19  C   UNL     1     -10.274   8.179  72.697  1.00  0.00    -0.318 C  
HETATM   20  C   UNL     1     -12.589   6.978  71.364  1.00  0.00    -0.428 C  
HETATM   21  C   UNL     1     -11.420   6.185  71.969  1.00  0.00    -0.313 C  
ENDBRANCH   2  15
BRANCH   8  22
HETATM   22  N   UNL     1      -9.311   3.712  68.508  1.00  0.00    -0.162 NA 
HETATM   23  C   UNL     1      -8.783   1.786  67.934  1.00  0.00    -0.092 A  
HETATM   24  C   UNL     1      -9.050   3.717  67.169  1.00  0.00    -0.159 A  
HETATM   25  N   UNL     1      -8.697   2.513  66.782  1.00  0.00    -0.117 NA 
HETATM   26  N   UNL     1      -9.163   2.473  69.013  1.00  0.00    -0.134 NA 
ENDBRANCH   8  22
TORSDOF 2
ENDMDL
MODEL      106
REMARK 921   NORMALIZED FREE ENERGY PREDICTED BY IDOCK:   -3.52 KCAL/MOL
REMARK 922        TOTAL FREE ENERGY PREDICTED BY IDOCK:   -4.43 KCAL/MOL
REMARK 923 INTER-LIGAND FREE ENERGY PREDICTED BY IDOCK:   -4.50 KCAL/MOL
REMARK 924 INTRA-LIGAND FREE ENERGY PREDICTED BY IDOCK:    0.07 KCAL/MOL
REMARK 927      BINDING AFFINITY PREDICTED BY RF-SCORE:    0.00 PKD
ROOT
HETATM    1  C   UNL     1     -11.524   6.587  73.005  1.00  0.00    -0.002 C  
HETATM    2  C   UNL     1     -11.248   6.539  71.489  1.00  0.00    -0.276 C  
HETATM    3  C   UNL     1      -9.692   6.322  71.166  1.00  0.00    -0.175 C  
HETATM    4  C   UNL     1      -9.791   4.579  67.737  1.00  0.00    -0.169 A  
HETATM    5  O   UNL     1      -9.351   5.069  71.850  1.00  0.00    -0.138 OA 
HETATM    6  C   UNL     1      -9.216   5.535  66.912  1.00  0.00    -0.119 A  
HETATM    7  C   UNL     1      -9.507   6.071  69.661  1.00  0.00    -0.167 A  
HETATM    8  C   UNL     1      -8.780   7.393  71.832  1.00  0.00    -0.114 C  
HETATM    9  C   UNL     1      -9.936   4.844  69.100  1.00  0.00    -0.252 A  
HETATM   10  C   UNL     1      -8.982   7.024  68.777  1.00  0.00    -0.131 A  
HETATM   11  F   UNL     1      -9.071   5.277  65.606  1.00  0.00    -0.147 F  
HETATM   12  H   UNL     1      -8.430   4.940  71.658  1.00  0.00     0.000 HD 
HETATM   13  F   UNL     1      -8.660   8.251  69.202  1.00  0.00    -0.130 F  
HETATM   14  C   UNL     1      -8.811   6.757  67.420  1.00  0.00    -0.117 A  
ENDROOT
BRANCH   2  15
HETATM   15  N   UNL     1     -11.992   7.521  70.669  1.00  0.00    -0.193 NA 
HETATM   16  C   UNL     1     -12.822  10.145  71.804  1.00  0.00    -0.554 C  
HETATM   17  C   UNL     1     -13.594   8.890  72.127  1.00  0.00    -0.502 C  
HETATM   18  C   UNL     1     -13.341  11.372  71.966  1.00  0.00    -0.388 C  
HETATM   19  C   UNL     1     -13.384   7.763  71.096  1.00  0.00    -0.087 C  
HETATM   20  C   UNL     1     -11.423   9.929  71.281  1.00  0.00    -0.435 C  
HETATM   21  C   UNL     1     -11.360   8.779  70.265  1.00  0.00    -0.147 C  
ENDBRANCH   2  15
BRANCH   8  22
HETATM   22  N   UNL     1      -7.365   7.057  71.855  1.00  0.00    -0.085 NA 
HETATM   23  C   UNL     1      -5.613   5.977  72.139  1.00  0.00    -0.031 A  
HETATM   24  C   UNL     1      -6.347   7.716  71.232  1.00  0.00    -0.035 A  
HETATM   25  N   UNL     1      -5.222   7.062  71.410  1.00  0.00    -0.027 NA 
HETATM   26  N   UNL     1      -6.915   5.925  72.428  1.00  0.00    -0.081 NA 
ENDBRANCH   8  22
TORSDOF 2
ENDMDL
MODEL      107
REMARK 921   NORMALIZED FREE ENERGY PREDICTED BY IDOCK:   -3.51 KCAL/MOL
REMARK 922        TOTAL FREE ENERGY PREDICTED BY IDOCK:   -4.42 KCAL/MOL
REMARK 923 INTER-LIGAND FREE ENERGY PREDICTED BY IDOCK:   -4.24 KCAL/MOL
REMARK 924 INTRA-LIGAND FREE ENERGY PREDICTED BY IDOCK:   -0.18 KCAL/MOL
REMARK 927      BINDING AFFINITY PREDICTED BY RF-SCORE:    0.00 PKD
ROOT
HETATM    1  C   UNL     1     -11.266  12.014  68.809  1.00  0.00    -0.316 C  
HETATM    2  C   UNL     1     -10.389  11.687  67.584  1.00  0.00    -0.189 C  
HETATM    3  C   UNL     1      -9.383  10.470  67.869  1.00  0.00    -0.143 C  
HETATM    4  C   UNL     1      -8.851   8.992  64.357  1.00  0.00    -0.107 A  
HETATM    5  O   UNL     1     -10.260   9.360  68.260  1.00  0.00    -0.180 OA 
HETATM    6  C   UNL     1      -7.509   9.265  64.131  1.00  0.00    -0.110 A  
HETATM    7  C   UNL     1      -8.694  10.054  66.561  1.00  0.00    -0.142 A  
HETATM    8  C   UNL     1      -8.479  10.712  69.112  1.00  0.00    -0.128 C  
HETATM    9  C   UNL     1      -9.438   9.384  65.561  1.00  0.00    -0.328 A  
HETATM   10  C   UNL     1      -7.356  10.353  66.262  1.00  0.00    -0.128 A  
HETATM   11  F   UNL     1      -6.944   8.884  62.978  1.00  0.00    -0.091 F  
HETATM   12  H   UNL     1      -9.664   8.640  68.428  1.00  0.00     0.000 HD 
HETATM   13  F   UNL     1      -6.613  11.084  67.101  1.00  0.00    -0.067 F  
HETATM   14  C   UNL     1      -6.756   9.944  65.073  1.00  0.00    -0.121 A  
ENDROOT
BRANCH   2  15
HETATM   15  N   UNL     1      -9.866  12.854  66.839  1.00  0.00    -0.230 NA 
HETATM   16  C   UNL     1     -11.610  14.385  64.975  1.00  0.00    -0.374 C  
HETATM   17  C   UNL     1     -11.017  13.061  64.558  1.00  0.00    -0.381 C  
HETATM   18  C   UNL     1     -12.077  15.277  64.087  1.00  0.00    -0.146 C  
HETATM   19  C   UNL     1      -9.771  12.668  65.378  1.00  0.00    -0.061 C  
HETATM   20  C   UNL     1     -11.642  14.643  66.460  1.00  0.00    -0.350 C  
HETATM   21  C   UNL     1     -10.340  14.205  67.149  1.00  0.00    -0.265 C  
ENDBRANCH   2  15
BRANCH   8  22
HETATM   22  N   UNL     1      -7.801   9.525  69.610  1.00  0.00    -0.102 NA 
HETATM   23  C   UNL     1      -7.502   7.625  70.396  1.00  0.00    -0.079 A  
HETATM   24  C   UNL     1      -6.484   9.202  69.468  1.00  0.00    -0.043 A  
HETATM   25  N   UNL     1      -6.263   8.010  69.972  1.00  0.00    -0.032 NA 
HETATM   26  N   UNL     1      -8.476   8.514  70.188  1.00  0.00    -0.122 NA 
ENDBRANCH   8  22
TORSDOF 2
ENDMDL
MODEL      108
REMARK 921   NORMALIZED FREE ENERGY PREDICTED BY IDOCK:   -3.44 KCAL/MOL
REMARK 922        TOTAL FREE ENERGY PREDICTED BY IDOCK:   -4.34 KCAL/MOL
REMARK 923 INTER-LIGAND FREE ENERGY PREDICTED BY IDOCK:   -4.02 KCAL/MOL
REMARK 924 INTRA-LIGAND FREE ENERGY PREDICTED BY IDOCK:   -0.32 KCAL/MOL
REMARK 927      BINDING AFFINITY PREDICTED BY RF-SCORE:    0.00 PKD
ROOT
HETATM    1  C   UNL     1      -7.161   6.149  67.917  1.00  0.00    -0.083 C  
HETATM    2  C   UNL     1      -7.685   7.479  67.340  1.00  0.00    -0.117 C  
HETATM    3  C   UNL     1      -8.632   8.255  68.377  1.00  0.00    -0.133 C  
HETATM    4  C   UNL     1      -8.178  11.929  67.326  1.00  0.00    -0.170 A  
HETATM    5  O   UNL     1      -7.792   8.438  69.567  1.00  0.00    -0.097 OA 
HETATM    6  C   UNL     1      -9.441  12.250  66.851  1.00  0.00    -0.217 A  
HETATM    7  C   UNL     1      -8.948   9.658  67.836  1.00  0.00    -0.120 A  
HETATM    8  C   UNL     1      -9.827   7.389  68.870  1.00  0.00    -0.157 C  
HETATM    9  C   UNL     1      -7.933  10.644  67.813  1.00  0.00    -0.110 A  
HETATM   10  C   UNL     1     -10.192  10.016  67.296  1.00  0.00    -0.222 A  
HETATM   11  F   UNL     1      -9.678  13.484  66.390  1.00  0.00    -0.261 F  
HETATM   12  H   UNL     1      -8.353   8.898  70.180  1.00  0.00     0.000 HD 
HETATM   13  F   UNL     1     -11.172   9.113  67.172  1.00  0.00    -0.184 F  
HETATM   14  C   UNL     1     -10.452  11.304  66.831  1.00  0.00    -0.286 A  
ENDROOT
BRANCH   2  15
HETATM   15  N   UNL     1      -8.102   7.443  65.920  1.00  0.00    -0.120 NA 
HETATM   16  C   UNL     1      -6.374   6.180  63.851  1.00  0.00    -0.029 C  
HETATM   17  C   UNL     1      -6.061   7.560  64.375  1.00  0.00    -0.038 C  
HETATM   18  C   UNL     1      -5.880   5.721  62.691  1.00  0.00    -0.014 C  
HETATM   19  C   UNL     1      -7.279   8.262  65.009  1.00  0.00    -0.080 C  
HETATM   20  C   UNL     1      -7.285   5.348  64.719  1.00  0.00    -0.062 C  
HETATM   21  C   UNL     1      -8.453   6.172  65.282  1.00  0.00    -0.120 C  
ENDBRANCH   2  15
BRANCH   8  22
HETATM   22  N   UNL     1     -10.511   7.910  70.045  1.00  0.00    -0.226 NA 
HETATM   23  C   UNL     1     -11.153   9.236  71.509  1.00  0.00    -0.373 A  
HETATM   24  C   UNL     1     -11.532   7.328  70.735  1.00  0.00    -0.299 A  
HETATM   25  N   UNL     1     -11.947   8.140  71.679  1.00  0.00    -0.286 NA 
HETATM   26  N   UNL     1     -10.265   9.146  70.517  1.00  0.00    -0.216 NA 
ENDBRANCH   8  22
TORSDOF 2
ENDMDL
MODEL      109
REMARK 921   NORMALIZED FREE ENERGY PREDICTED BY IDOCK:   -3.43 KCAL/MOL
REMARK 922        TOTAL FREE ENERGY PREDICTED BY IDOCK:   -4.33 KCAL/MOL
REMARK 923 INTER-LIGAND FREE ENERGY PREDICTED BY IDOCK:   -4.44 KCAL/MOL
REMARK 924 INTRA-LIGAND FREE ENERGY PREDICTED BY IDOCK:    0.11 KCAL/MOL
REMARK 927      BINDING AFFINITY PREDICTED BY RF-SCORE:    0.00 PKD
ROOT
HETATM    1  C   UNL     1      -8.829   8.689  72.003  1.00  0.00    -0.264 C  
HETATM    2  C   UNL     1      -9.068   8.245  70.547  1.00  0.00    -0.147 C  
HETATM    3  C   UNL     1      -8.044   8.942  69.527  1.00  0.00    -0.101 C  
HETATM    4  C   UNL     1      -7.837   6.374  66.669  1.00  0.00    -0.104 A  
HETATM    5  O   UNL     1      -6.718   8.566  70.031  1.00  0.00    -0.041 OA 
HETATM    6  C   UNL     1      -8.423   7.065  65.619  1.00  0.00    -0.138 A  
HETATM    7  C   UNL     1      -8.188   8.307  68.135  1.00  0.00    -0.128 A  
HETATM    8  C   UNL     1      -8.069  10.496  69.613  1.00  0.00    -0.043 C  
HETATM    9  C   UNL     1      -7.721   6.989  67.917  1.00  0.00    -0.113 A  
HETATM   10  C   UNL     1      -8.820   8.943  67.057  1.00  0.00    -0.126 A  
HETATM   11  F   UNL     1      -8.528   6.477  64.421  1.00  0.00    -0.096 F  
HETATM   12  H   UNL     1      -6.113   8.979  69.427  1.00  0.00     0.000 HD 
HETATM   13  F   UNL     1      -9.394  10.143  67.207  1.00  0.00    -0.153 F  
HETATM   14  C   UNL     1      -8.918   8.345  65.802  1.00  0.00    -0.207 A  
ENDROOT
BRANCH   2  15
HETATM   15  N   UNL     1     -10.485   8.134  70.133  1.00  0.00    -0.221 NA 
HETATM   16  C   UNL     1     -12.686   8.822  72.015  1.00  0.00    -0.444 C  
HETATM   17  C   UNL     1     -11.964   7.502  72.128  1.00  0.00    -0.323 C  
HETATM   18  C   UNL     1     -13.892   9.033  72.564  1.00  0.00    -0.491 C  
HETATM   19  C   UNL     1     -11.255   7.082  70.824  1.00  0.00    -0.285 C  
HETATM   20  C   UNL     1     -11.962   9.893  71.238  1.00  0.00    -0.489 C  
HETATM   21  C   UNL     1     -11.304   9.336  69.966  1.00  0.00    -0.113 C  
ENDBRANCH   2  15
BRANCH   8  22
HETATM   22  N   UNL     1      -6.945  11.159  68.971  1.00  0.00    -0.091 NA 
HETATM   23  C   UNL     1      -5.653  11.829  67.487  1.00  0.00    -0.079 A  
HETATM   24  C   UNL     1      -6.115  12.096  69.512  1.00  0.00    -0.117 A  
HETATM   25  N   UNL     1      -5.276  12.525  68.598  1.00  0.00    -0.058 NA 
HETATM   26  N   UNL     1      -6.674  10.987  67.663  1.00  0.00    -0.071 NA 
ENDBRANCH   8  22
TORSDOF 2
ENDMDL
MODEL      110
REMARK 921   NORMALIZED FREE ENERGY PREDICTED BY IDOCK:   -3.40 KCAL/MOL
REMARK 922        TOTAL FREE ENERGY PREDICTED BY IDOCK:   -4.30 KCAL/MOL
REMARK 923 INTER-LIGAND FREE ENERGY PREDICTED BY IDOCK:   -3.74 KCAL/MOL
REMARK 924 INTRA-LIGAND FREE ENERGY PREDICTED BY IDOCK:   -0.56 KCAL/MOL
REMARK 927      BINDING AFFINITY PREDICTED BY RF-SCORE:    0.00 PKD
ROOT
HETATM    1  C   UNL     1      -8.717   5.613  65.568  1.00  0.00    -0.151 C  
HETATM    2  C   UNL     1      -9.093   6.794  66.484  1.00  0.00    -0.151 C  
HETATM    3  C   UNL     1      -8.419   8.169  66.003  1.00  0.00    -0.141 C  
HETATM    4  C   UNL     1     -10.889  10.810  67.319  1.00  0.00    -0.344 A  
HETATM    5  O   UNL     1      -8.891   8.340  64.624  1.00  0.00    -0.406 OA 
HETATM    6  C   UNL     1     -10.126  11.464  68.276  1.00  0.00    -0.196 A  
HETATM    7  C   UNL     1      -8.994   9.338  66.818  1.00  0.00    -0.154 A  
HETATM    8  C   UNL     1      -6.871   8.072  65.878  1.00  0.00    -0.057 C  
HETATM    9  C   UNL     1     -10.328   9.755  66.597  1.00  0.00    -0.276 A  
HETATM   10  C   UNL     1      -8.283   9.996  67.832  1.00  0.00    -0.113 A  
HETATM   11  F   UNL     1     -10.663  12.480  68.964  1.00  0.00    -0.237 F  
HETATM   12  H   UNL     1      -8.492   9.154  64.340  1.00  0.00     0.000 HD 
HETATM   13  F   UNL     1      -7.058   9.590  68.187  1.00  0.00    -0.075 F  
HETATM   14  C   UNL     1      -8.827  11.066  68.540  1.00  0.00    -0.159 A  
ENDROOT
BRANCH   2  15
HETATM   15  N   UNL     1      -9.106   6.503  67.935  1.00  0.00    -0.115 NA 
HETATM   16  C   UNL     1      -8.513   3.770  68.952  1.00  0.00    -0.101 C  
HETATM   17  C   UNL     1      -9.866   4.095  68.369  1.00  0.00    -0.082 C  
HETATM   18  C   UNL     1      -8.307   2.707  69.746  1.00  0.00    -0.077 C  
HETATM   19  C   UNL     1     -10.187   5.603  68.381  1.00  0.00    -0.191 C  
HETATM   20  C   UNL     1      -7.402   4.722  68.586  1.00  0.00    -0.065 C  
HETATM   21  C   UNL     1      -7.860   6.188  68.639  1.00  0.00    -0.101 C  
ENDBRANCH   2  15
BRANCH   8  22
HETATM   22  N   UNL     1      -6.252   9.160  65.136  1.00  0.00    -0.060 NA 
HETATM   23  C   UNL     1      -5.844  10.500  63.602  1.00  0.00    -0.084 A  
HETATM   24  C   UNL     1      -5.439  10.139  65.625  1.00  0.00    -0.066 A  
HETATM   25  N   UNL     1      -5.152  10.993  64.670  1.00  0.00    -0.244 NA 
HETATM   26  N   UNL     1      -6.540   9.386  63.841  1.00  0.00    -0.092 NA 
ENDBRANCH   8  22
TORSDOF 2
ENDMDL
MODEL      111
REMARK 921   NORMALIZED FREE ENERGY PREDICTED BY IDOCK:   -3.38 KCAL/MOL
REMARK 922        TOTAL FREE ENERGY PREDICTED BY IDOCK:   -4.28 KCAL/MOL
REMARK 923 INTER-LIGAND FREE ENERGY PREDICTED BY IDOCK:   -6.04 KCAL/MOL
REMARK 924 INTRA-LIGAND FREE ENERGY PREDICTED BY IDOCK:    1.76 KCAL/MOL
REMARK 927      BINDING AFFINITY PREDICTED BY RF-SCORE:    0.00 PKD
ROOT
HETATM    1  C   UNL     1      -8.553  18.115  68.009  1.00  0.00    -0.272 C  
HETATM    2  C   UNL     1      -9.116  16.857  67.318  1.00  0.00    -0.218 C  
HETATM    3  C   UNL     1     -10.454  16.326  68.027  1.00  0.00    -0.293 C  
HETATM    4  C   UNL     1     -12.276  14.550  65.141  1.00  0.00    -0.346 A  
HETATM    5  O   UNL     1     -11.372  17.470  67.971  1.00  0.00     0.021 OA 
HETATM    6  C   UNL     1     -12.244  13.225  65.553  1.00  0.00    -0.457 A  
HETATM    7  C   UNL     1     -11.081  15.210  67.177  1.00  0.00    -0.335 A  
HETATM    8  C   UNL     1     -10.264  16.050  69.547  1.00  0.00    -0.274 C  
HETATM    9  C   UNL     1     -11.699  15.534  65.945  1.00  0.00     0.329 A  
HETATM   10  C   UNL     1     -11.029  13.852  67.523  1.00  0.00    -0.276 A  
HETATM   11  F   UNL     1     -12.804  12.283  64.785  1.00  0.00    -0.539 F  
HETATM   12  H   UNL     1     -12.164  17.156  68.390  1.00  0.00     0.000 HD 
HETATM   13  F   UNL     1     -10.363  13.446  68.611  1.00  0.00    -0.230 F  
HETATM   14  C   UNL     1     -11.624  12.867  66.738  1.00  0.00    -0.416 A  
ENDROOT
BRANCH   2  15
HETATM   15  N   UNL     1      -8.114  15.852  66.897  1.00  0.00    -0.225 NA 
HETATM   16  C   UNL     1      -6.148  14.747  68.839  1.00  0.00    -0.082 C  
HETATM   17  C   UNL     1      -5.947  16.117  68.240  1.00  0.00    -0.112 C  
HETATM   18  C   UNL     1      -5.147  14.055  69.407  1.00  0.00    -0.082 C  
HETATM   19  C   UNL     1      -6.715  16.321  66.918  1.00  0.00    -0.130 C  
HETATM   20  C   UNL     1      -7.551  14.201  68.756  1.00  0.00    -0.125 C  
HETATM   21  C   UNL     1      -8.194  14.474  67.388  1.00  0.00    -0.202 C  
ENDBRANCH   2  15
BRANCH   8  22
HETATM   22  N   UNL     1     -11.502  15.897  70.296  1.00  0.00    -0.343 NA 
HETATM   23  C   UNL     1     -13.425  15.291  70.797  1.00  0.00    -0.307 A  
HETATM   24  C   UNL     1     -11.719  16.194  71.609  1.00  0.00    -0.484 A  
HETATM   25  N   UNL     1     -12.935  15.835  71.949  1.00  0.00    -0.458 NA 
HETATM   26  N   UNL     1     -12.583  15.298  69.762  1.00  0.00    -0.182 NA 
ENDBRANCH   8  22
TORSDOF 2
ENDMDL
MODEL      112
REMARK 921   NORMALIZED FREE ENERGY PREDICTED BY IDOCK:   -3.31 KCAL/MOL
REMARK 922        TOTAL FREE ENERGY PREDICTED BY IDOCK:   -4.20 KCAL/MOL
REMARK 923 INTER-LIGAND FREE ENERGY PREDICTED BY IDOCK:   -3.62 KCAL/MOL
REMARK 924 INTRA-LIGAND FREE ENERGY PREDICTED BY IDOCK:   -0.58 KCAL/MOL
REMARK 927      BINDING AFFINITY PREDICTED BY RF-SCORE:    0.00 PKD
ROOT
HETATM    1  C   UNL     1      -5.882   9.400  69.209  1.00  0.00    -0.035 C  
HETATM    2  C   UNL     1      -6.943   8.345  68.842  1.00  0.00    -0.062 C  
HETATM    3  C   UNL     1      -7.973   8.882  67.735  1.00  0.00    -0.102 C  
HETATM    4  C   UNL     1      -9.093   5.638  65.996  1.00  0.00    -0.164 A  
HETATM    5  O   UNL     1      -7.120   9.257  66.600  1.00  0.00    -0.080 OA 
HETATM    6  C   UNL     1     -10.433   5.572  66.348  1.00  0.00    -0.236 A  
HETATM    7  C   UNL     1      -8.867   7.728  67.257  1.00  0.00    -0.130 A  
HETATM    8  C   UNL     1      -8.673  10.208  68.154  1.00  0.00    -0.122 C  
HETATM    9  C   UNL     1      -8.316   6.707  66.447  1.00  0.00    -0.121 A  
HETATM   10  C   UNL     1     -10.212   7.587  67.629  1.00  0.00    -0.213 A  
HETATM   11  F   UNL     1     -11.180   4.550  65.909  1.00  0.00    -0.192 F  
HETATM   12  H   UNL     1      -7.730   9.575  65.945  1.00  0.00     0.000 HD 
HETATM   13  F   UNL     1     -10.781   8.442  68.486  1.00  0.00    -0.225 F  
HETATM   14  C   UNL     1     -11.000   6.537  67.163  1.00  0.00    -0.480 A  
ENDROOT
BRANCH   2  15
HETATM   15  N   UNL     1      -7.494   7.566  69.974  1.00  0.00    -0.081 NA 
HETATM   16  C   UNL     1      -5.693   6.184  71.899  1.00  0.00    -0.031 C  
HETATM   17  C   UNL     1      -5.966   5.588  70.540  1.00  0.00    -0.025 C  
HETATM   18  C   UNL     1      -5.213   5.458  72.921  1.00  0.00    -0.017 C  
HETATM   19  C   UNL     1      -7.267   6.110  69.898  1.00  0.00    -0.074 C  
HETATM   20  C   UNL     1      -5.997   7.655  72.036  1.00  0.00    -0.036 C  
HETATM   21  C   UNL     1      -7.319   8.035  71.351  1.00  0.00    -0.070 C  
ENDBRANCH   2  15
BRANCH   8  22
HETATM   22  N   UNL     1      -9.346  10.908  67.070  1.00  0.00    -0.163 NA 
HETATM   23  C   UNL     1      -9.695  11.758  65.207  1.00  0.00    -0.211 A  
HETATM   24  C   UNL     1     -10.672  11.210  66.976  1.00  0.00    -0.268 A  
HETATM   25  N   UNL     1     -10.918  11.765  65.812  1.00  0.00    -0.303 NA 
HETATM   26  N   UNL     1      -8.705  11.235  65.933  1.00  0.00    -0.178 NA 
ENDBRANCH   8  22
TORSDOF 2
ENDMDL
MODEL      113
REMARK 921   NORMALIZED FREE ENERGY PREDICTED BY IDOCK:   -3.22 KCAL/MOL
REMARK 922        TOTAL FREE ENERGY PREDICTED BY IDOCK:   -4.09 KCAL/MOL
REMARK 923 INTER-LIGAND FREE ENERGY PREDICTED BY IDOCK:   -3.62 KCAL/MOL
REMARK 924 INTRA-LIGAND FREE ENERGY PREDICTED BY IDOCK:   -0.48 KCAL/MOL
REMARK 927      BINDING AFFINITY PREDICTED BY RF-SCORE:    0.00 PKD
ROOT
HETATM    1  C   UNL     1      -9.079   1.786  68.112  1.00  0.00    -0.199 C  
HETATM    2  C   UNL     1      -9.169   3.323  68.179  1.00  0.00    -0.191 C  
HETATM    3  C   UNL     1      -8.964   4.004  66.741  1.00  0.00    -0.131 C  
HETATM    4  C   UNL     1     -10.936   7.290  67.087  1.00  0.00    -0.285 A  
HETATM    5  O   UNL     1     -10.010   3.404  65.904  1.00  0.00    -0.406 OA 
HETATM    6  C   UNL     1      -9.926   8.239  67.017  1.00  0.00    -0.255 A  
HETATM    7  C   UNL     1      -9.274   5.506  66.832  1.00  0.00    -0.119 A  
HETATM    8  C   UNL     1      -7.629   3.585  66.059  1.00  0.00    -0.081 C  
HETATM    9  C   UNL     1     -10.612   5.935  66.995  1.00  0.00    -0.376 A  
HETATM   10  C   UNL     1      -8.285   6.501  66.820  1.00  0.00    -0.110 A  
HETATM   11  F   UNL     1     -10.237   9.539  67.098  1.00  0.00    -0.232 F  
HETATM   12  H   UNL     1      -9.889   3.807  65.053  1.00  0.00     0.000 HD 
HETATM   13  F   UNL     1      -6.987   6.179  66.786  1.00  0.00    -0.062 F  
HETATM   14  C   UNL     1      -8.602   7.856  66.885  1.00  0.00    -0.130 A  
ENDROOT
BRANCH   2  15
HETATM   15  N   UNL     1      -8.506   3.956  69.342  1.00  0.00    -0.063 NA 
HETATM   16  C   UNL     1      -8.792   2.812  72.075  1.00  0.00    -0.112 C  
HETATM   17  C   UNL     1      -9.902   3.633  71.467  1.00  0.00    -0.227 C  
HETATM   18  C   UNL     1      -8.699   2.592  73.396  1.00  0.00    -0.078 C  
HETATM   19  C   UNL     1      -9.422   4.558  70.330  1.00  0.00    -0.171 C  
HETATM   20  C   UNL     1      -7.788   2.253  71.098  1.00  0.00    -0.043 C  
HETATM   21  C   UNL     1      -7.399   3.279  70.022  1.00  0.00    -0.041 C  
ENDBRANCH   2  15
BRANCH   8  22
HETATM   22  N   UNL     1      -7.549   3.895  64.640  1.00  0.00    -0.076 NA 
HETATM   23  C   UNL     1      -8.134   4.292  62.686  1.00  0.00    -0.072 A  
HETATM   24  C   UNL     1      -6.468   4.364  63.953  1.00  0.00    -0.034 A  
HETATM   25  N   UNL     1      -6.807   4.608  62.708  1.00  0.00    -0.030 NA 
HETATM   26  N   UNL     1      -8.635   3.860  63.845  1.00  0.00    -0.093 NA 
ENDBRANCH   8  22
TORSDOF 2
ENDMDL
MODEL      114
REMARK 921   NORMALIZED FREE ENERGY PREDICTED BY IDOCK:   -3.18 KCAL/MOL
REMARK 922        TOTAL FREE ENERGY PREDICTED BY IDOCK:   -4.05 KCAL/MOL
REMARK 923 INTER-LIGAND FREE ENERGY PREDICTED BY IDOCK:   -3.76 KCAL/MOL
REMARK 924 INTRA-LIGAND FREE ENERGY PREDICTED BY IDOCK:   -0.29 KCAL/MOL
REMARK 927      BINDING AFFINITY PREDICTED BY RF-SCORE:    0.00 PKD
ROOT
HETATM    1  C   UNL     1      -9.428  10.395  67.146  1.00  0.00    -0.183 C  
HETATM    2  C   UNL     1      -8.697   9.486  68.153  1.00  0.00    -0.120 C  
HETATM    3  C   UNL     1      -9.705   8.825  69.213  1.00  0.00    -0.172 C  
HETATM    4  C   UNL     1      -7.888   5.572  70.172  1.00  0.00    -0.089 A  
HETATM    5  O   UNL     1     -10.676   8.100  68.385  1.00  0.00    -0.386 OA 
HETATM    6  C   UNL     1      -7.580   5.798  71.506  1.00  0.00    -0.099 A  
HETATM    7  C   UNL     1      -8.959   7.774  70.048  1.00  0.00    -0.142 A  
HETATM    8  C   UNL     1     -10.555   9.881  69.978  1.00  0.00    -0.288 C  
HETATM    9  C   UNL     1      -8.571   6.552  69.449  1.00  0.00    -0.134 A  
HETATM   10  C   UNL     1      -8.578   7.975  71.383  1.00  0.00    -0.132 A  
HETATM   11  F   UNL     1      -6.931   4.855  72.201  1.00  0.00    -0.055 F  
HETATM   12  H   UNL     1     -11.272   7.709  69.012  1.00  0.00     0.000 HD 
HETATM   13  F   UNL     1      -8.801   9.146  71.992  1.00  0.00    -0.221 F  
HETATM   14  C   UNL     1      -7.918   6.992  72.118  1.00  0.00    -0.093 A  
ENDROOT
BRANCH   2  15
HETATM   15  N   UNL     1      -7.403   9.997  68.659  1.00  0.00    -0.079 NA 
HETATM   16  C   UNL     1      -6.117  12.384  67.432  1.00  0.00    -0.158 C  
HETATM   17  C   UNL     1      -6.035  11.036  66.758  1.00  0.00    -0.099 C  
HETATM   18  C   UNL     1      -5.272  13.387  67.142  1.00  0.00     0.554 C  
HETATM   19  C   UNL     1      -6.270   9.858  67.724  1.00  0.00    -0.055 C  
HETATM   20  C   UNL     1      -7.212  12.531  68.458  1.00  0.00    -0.110 C  
HETATM   21  C   UNL     1      -7.335  11.287  69.351  1.00  0.00    -0.025 C  
ENDBRANCH   2  15
BRANCH   8  22
HETATM   22  N   UNL     1     -11.701   9.337  70.690  1.00  0.00    -0.254 NA 
HETATM   23  C   UNL     1     -12.968   7.970  71.608  1.00  0.00    -0.328 A  
HETATM   24  C   UNL     1     -12.645  10.028  71.392  1.00  0.00    -0.415 A  
HETATM   25  N   UNL     1     -13.470   9.186  71.970  1.00  0.00    -0.416 NA 
HETATM   26  N   UNL     1     -11.882   8.011  70.833  1.00  0.00    -0.265 NA 
ENDBRANCH   8  22
TORSDOF 2
ENDMDL
MODEL      115
REMARK 921   NORMALIZED FREE ENERGY PREDICTED BY IDOCK:   -3.17 KCAL/MOL
REMARK 922        TOTAL FREE ENERGY PREDICTED BY IDOCK:   -4.05 KCAL/MOL
REMARK 923 INTER-LIGAND FREE ENERGY PREDICTED BY IDOCK:   -4.58 KCAL/MOL
REMARK 924 INTRA-LIGAND FREE ENERGY PREDICTED BY IDOCK:    0.53 KCAL/MOL
REMARK 927      BINDING AFFINITY PREDICTED BY RF-SCORE:    0.00 PKD
ROOT
HETATM    1  C   UNL     1      -8.327   9.987  68.461  1.00  0.00    -0.113 C  
HETATM    2  C   UNL     1      -9.055   8.993  69.388  1.00  0.00    -0.146 C  
HETATM    3  C   UNL     1      -8.334   7.560  69.422  1.00  0.00    -0.132 C  
HETATM    4  C   UNL     1      -9.303   6.224  72.897  1.00  0.00    -0.140 A  
HETATM    5  O   UNL     1      -6.965   7.854  69.860  1.00  0.00    -0.048 OA 
HETATM    6  C   UNL     1     -10.112   5.144  72.575  1.00  0.00    -0.180 A  
HETATM    7  C   UNL     1      -8.972   6.687  70.513  1.00  0.00    -0.152 A  
HETATM    8  C   UNL     1      -8.167   6.934  68.007  1.00  0.00    -0.115 C  
HETATM    9  C   UNL     1      -8.739   6.989  71.876  1.00  0.00    -0.127 A  
HETATM   10  C   UNL     1      -9.839   5.619  70.240  1.00  0.00    -0.194 A  
HETATM   11  F   UNL     1     -10.648   4.406  73.555  1.00  0.00    -0.193 F  
HETATM   12  H   UNL     1      -6.538   7.006  69.880  1.00  0.00     0.000 HD 
HETATM   13  F   UNL     1     -10.207   5.337  68.984  1.00  0.00    -0.229 F  
HETATM   14  C   UNL     1     -10.387   4.835  71.253  1.00  0.00    -0.184 A  
ENDROOT
BRANCH   2  15
HETATM   15  N   UNL     1     -10.534   9.020  69.323  1.00  0.00    -0.226 NA 
HETATM   16  C   UNL     1     -12.110  10.812  71.101  1.00  0.00    -0.415 C  
HETATM   17  C   UNL     1     -11.532   9.522  71.629  1.00  0.00    -0.433 C  
HETATM   18  C   UNL     1     -13.112  11.458  71.718  1.00  0.00    -0.523 C  
HETATM   19  C   UNL     1     -11.219   8.497  70.521  1.00  0.00    -0.242 C  
HETATM   20  C   UNL     1     -11.489  11.328  69.827  1.00  0.00    -0.386 C  
HETATM   21  C   UNL     1     -11.232  10.202  68.814  1.00  0.00    -0.164 C  
ENDBRANCH   2  15
BRANCH   8  22
HETATM   22  N   UNL     1      -7.236   5.817  67.943  1.00  0.00    -0.071 NA 
HETATM   23  C   UNL     1      -5.980   4.278  68.549  1.00  0.00    -0.027 A  
HETATM   24  C   UNL     1      -6.921   5.063  66.851  1.00  0.00    -0.064 A  
HETATM   25  N   UNL     1      -6.112   4.091  67.205  1.00  0.00    -0.027 NA 
HETATM   26  N   UNL     1      -6.655   5.316  69.048  1.00  0.00    -0.049 NA 
ENDBRANCH   8  22
TORSDOF 2
ENDMDL
MODEL      116
REMARK 921   NORMALIZED FREE ENERGY PREDICTED BY IDOCK:   -3.13 KCAL/MOL
REMARK 922        TOTAL FREE ENERGY PREDICTED BY IDOCK:   -4.00 KCAL/MOL
REMARK 923 INTER-LIGAND FREE ENERGY PREDICTED BY IDOCK:   -4.27 KCAL/MOL
REMARK 924 INTRA-LIGAND FREE ENERGY PREDICTED BY IDOCK:    0.27 KCAL/MOL
REMARK 927      BINDING AFFINITY PREDICTED BY RF-SCORE:    0.00 PKD
ROOT
HETATM    1  C   UNL     1      -6.561   8.524  67.236  1.00  0.00    -0.059 C  
HETATM    2  C   UNL     1      -7.725   8.270  68.214  1.00  0.00    -0.106 C  
HETATM    3  C   UNL     1      -8.343   6.799  68.050  1.00  0.00    -0.120 C  
HETATM    4  C   UNL     1      -9.752   6.091  71.559  1.00  0.00    -0.186 A  
HETATM    5  O   UNL     1      -7.202   5.901  68.270  1.00  0.00    -0.075 OA 
HETATM    6  C   UNL     1     -11.117   6.043  71.316  1.00  0.00    -0.274 A  
HETATM    7  C   UNL     1      -9.346   6.530  69.182  1.00  0.00    -0.133 A  
HETATM    8  C   UNL     1      -8.804   6.497  66.594  1.00  0.00    -0.132 C  
HETATM    9  C   UNL     1      -8.874   6.333  70.501  1.00  0.00    -0.144 A  
HETATM   10  C   UNL     1     -10.736   6.525  68.998  1.00  0.00    -0.278 A  
HETATM   11  F   UNL     1     -11.958   5.804  72.330  1.00  0.00    -0.349 F  
HETATM   12  H   UNL     1      -7.568   5.030  68.172  1.00  0.00     0.000 HD 
HETATM   13  F   UNL     1     -11.272   6.818  67.808  1.00  0.00    -0.312 F  
HETATM   14  C   UNL     1     -11.617   6.260  70.044  1.00  0.00    -0.378 A  
ENDROOT
BRANCH   2  15
HETATM   15  N   UNL     1      -8.667   9.397  68.398  1.00  0.00    -0.124 NA 
HETATM   16  C   UNL     1      -7.911  12.167  67.612  1.00  0.00    -0.157 C  
HETATM   17  C   UNL     1      -7.399  11.567  68.898  1.00  0.00    -0.116 C  
HETATM   18  C   UNL     1      -7.921  13.490  67.388  1.00  0.00    -0.165 C  
HETATM   19  C   UNL     1      -8.259  10.393  69.408  1.00  0.00    -0.151 C  
HETATM   20  C   UNL     1      -8.418  11.179  66.592  1.00  0.00    -0.164 C  
HETATM   21  C   UNL     1      -9.258  10.066  67.236  1.00  0.00    -0.141 C  
ENDBRANCH   2  15
BRANCH   8  22
HETATM   22  N   UNL     1      -9.052   5.091  66.315  1.00  0.00    -0.125 NA 
HETATM   23  C   UNL     1      -9.385   3.332  65.260  1.00  0.00    -0.146 A  
HETATM   24  C   UNL     1      -8.927   4.041  67.177  1.00  0.00    -0.133 A  
HETATM   25  N   UNL     1      -9.149   2.915  66.537  1.00  0.00    -0.152 NA 
HETATM   26  N   UNL     1      -9.328   4.653  65.073  1.00  0.00    -0.154 NA 
ENDBRANCH   8  22
TORSDOF 2
ENDMDL
MODEL      117
REMARK 921   NORMALIZED FREE ENERGY PREDICTED BY IDOCK:   -3.10 KCAL/MOL
REMARK 922        TOTAL FREE ENERGY PREDICTED BY IDOCK:   -3.97 KCAL/MOL
REMARK 923 INTER-LIGAND FREE ENERGY PREDICTED BY IDOCK:   -3.78 KCAL/MOL
REMARK 924 INTRA-LIGAND FREE ENERGY PREDICTED BY IDOCK:   -0.18 KCAL/MOL
REMARK 927      BINDING AFFINITY PREDICTED BY RF-SCORE:    0.00 PKD
ROOT
HETATM    1  C   UNL     1     -10.782   5.479  72.586  1.00  0.00    -0.289 C  
HETATM    2  C   UNL     1     -10.060   6.226  71.448  1.00  0.00    -0.191 C  
HETATM    3  C   UNL     1      -8.542   6.582  71.827  1.00  0.00    -0.124 C  
HETATM    4  C   UNL     1      -6.832   6.712  68.383  1.00  0.00    -0.074 A  
HETATM    5  O   UNL     1      -7.933   5.283  72.139  1.00  0.00    -0.106 OA 
HETATM    6  C   UNL     1      -6.493   8.053  68.281  1.00  0.00    -0.055 A  
HETATM    7  C   UNL     1      -7.815   7.129  70.590  1.00  0.00    -0.096 A  
HETATM    8  C   UNL     1      -8.424   7.397  73.149  1.00  0.00    -0.129 C  
HETATM    9  C   UNL     1      -7.488   6.254  69.527  1.00  0.00    -0.093 A  
HETATM   10  C   UNL     1      -7.498   8.484  70.415  1.00  0.00    -0.069 A  
HETATM   11  F   UNL     1      -5.857   8.490  67.187  1.00  0.00    -0.039 F  
HETATM   12  H   UNL     1      -7.034   5.494  72.363  1.00  0.00     0.000 HD 
HETATM   13  F   UNL     1      -7.874   9.399  71.317  1.00  0.00    -0.153 F  
HETATM   14  C   UNL     1      -6.821   8.945  69.288  1.00  0.00    -0.050 A  
ENDROOT
BRANCH   2  15
HETATM   15  N   UNL     1     -10.857   7.261  70.751  1.00  0.00    -0.236 NA 
HETATM   16  C   UNL     1     -13.256   8.466  72.034  1.00  0.00    -0.372 C  
HETATM   17  C   UNL     1     -13.328   7.095  71.407  1.00  0.00    -0.380 C  
HETATM   18  C   UNL     1     -14.351   9.202  72.284  1.00  0.00    -0.272 C  
HETATM   19  C   UNL     1     -12.219   6.844  70.366  1.00  0.00    -0.119 C  
HETATM   20  C   UNL     1     -11.869   8.959  72.360  1.00  0.00    -0.292 C  
HETATM   21  C   UNL     1     -10.867   8.642  71.238  1.00  0.00    -0.260 C  
ENDBRANCH   2  15
BRANCH   8  22
HETATM   22  N   UNL     1      -7.083   7.453  73.710  1.00  0.00    -0.082 NA 
HETATM   23  C   UNL     1      -5.183   6.860  74.305  1.00  0.00    -0.046 A  
HETATM   24  C   UNL     1      -6.365   8.567  74.029  1.00  0.00    -0.122 A  
HETATM   25  N   UNL     1      -5.162   8.219  74.425  1.00  0.00    -0.069 NA 
HETATM   26  N   UNL     1      -6.332   6.346  73.863  1.00  0.00    -0.065 NA 
ENDBRANCH   8  22
TORSDOF 2
ENDMDL
MODEL      118
REMARK 921   NORMALIZED FREE ENERGY PREDICTED BY IDOCK:   -3.09 KCAL/MOL
REMARK 922        TOTAL FREE ENERGY PREDICTED BY IDOCK:   -3.96 KCAL/MOL
REMARK 923 INTER-LIGAND FREE ENERGY PREDICTED BY IDOCK:   -3.63 KCAL/MOL
REMARK 924 INTRA-LIGAND FREE ENERGY PREDICTED BY IDOCK:   -0.33 KCAL/MOL
REMARK 927      BINDING AFFINITY PREDICTED BY RF-SCORE:    0.00 PKD
ROOT
HETATM    1  C   UNL     1      -9.684   4.169  67.966  1.00  0.00    -0.155 C  
HETATM    2  C   UNL     1      -9.482   5.697  67.924  1.00  0.00    -0.113 C  
HETATM    3  C   UNL     1      -8.705   6.167  66.602  1.00  0.00    -0.124 C  
HETATM    4  C   UNL     1      -9.985   9.763  66.120  1.00  0.00    -0.338 A  
HETATM    5  O   UNL     1      -9.535   5.668  65.498  1.00  0.00    -0.354 OA 
HETATM    6  C   UNL     1      -8.836  10.509  66.339  1.00  0.00    -0.153 A  
HETATM    7  C   UNL     1      -8.720   7.701  66.512  1.00  0.00    -0.161 A  
HETATM    8  C   UNL     1      -7.336   5.450  66.418  1.00  0.00    -0.082 C  
HETATM    9  C   UNL     1      -9.928   8.371  66.206  1.00  0.00    -0.216 A  
HETATM   10  C   UNL     1      -7.599   8.502  66.777  1.00  0.00    -0.090 A  
HETATM   11  F   UNL     1      -8.890  11.844  66.249  1.00  0.00    -0.193 F  
HETATM   12  H   UNL     1      -9.075   5.947  64.716  1.00  0.00     0.000 HD 
HETATM   13  F   UNL     1      -6.448   7.957  67.187  1.00  0.00    -0.050 F  
HETATM   14  C   UNL     1      -7.643   9.890  66.668  1.00  0.00    -0.103 A  
ENDROOT
BRANCH   2  15
HETATM   15  N   UNL     1      -9.103   6.330  69.208  1.00  0.00    -0.134 NA 
HETATM   16  C   UNL     1      -9.894   5.112  71.806  1.00  0.00    -0.228 C  
HETATM   17  C   UNL     1     -10.891   5.898  70.992  1.00  0.00    -0.339 C  
HETATM   18  C   UNL     1     -10.065   4.866  73.115  1.00  0.00    -0.194 C  
HETATM   19  C   UNL     1     -10.231   6.869  69.993  1.00  0.00    -0.196 C  
HETATM   20  C   UNL     1      -8.684   4.619  71.051  1.00  0.00    -0.140 C  
HETATM   21  C   UNL     1      -8.131   5.686  70.094  1.00  0.00    -0.103 C  
ENDBRANCH   2  15
BRANCH   8  22
HETATM   22  N   UNL     1      -6.756   5.581  65.090  1.00  0.00    -0.043 NA 
HETATM   23  C   UNL     1      -6.379   6.307  63.180  1.00  0.00    -0.029 A  
HETATM   24  C   UNL     1      -5.622   4.987  64.619  1.00  0.00    -0.014 A  
HETATM   25  N   UNL     1      -5.369   5.417  63.404  1.00  0.00    -0.013 NA 
HETATM   26  N   UNL     1      -7.246   6.448  64.185  1.00  0.00    -0.060 NA 
ENDBRANCH   8  22
TORSDOF 2
ENDMDL
MODEL      119
REMARK 921   NORMALIZED FREE ENERGY PREDICTED BY IDOCK:   -3.06 KCAL/MOL
REMARK 922        TOTAL FREE ENERGY PREDICTED BY IDOCK:   -3.92 KCAL/MOL
REMARK 923 INTER-LIGAND FREE ENERGY PREDICTED BY IDOCK:   -4.03 KCAL/MOL
REMARK 924 INTRA-LIGAND FREE ENERGY PREDICTED BY IDOCK:    0.11 KCAL/MOL
REMARK 927      BINDING AFFINITY PREDICTED BY RF-SCORE:    0.00 PKD
ROOT
HETATM    1  C   UNL     1      -6.965   4.583  67.336  1.00  0.00    -0.060 C  
HETATM    2  C   UNL     1      -7.881   5.716  67.838  1.00  0.00    -0.097 C  
HETATM    3  C   UNL     1      -8.415   5.447  69.327  1.00  0.00    -0.099 C  
HETATM    4  C   UNL     1      -9.017   9.008  70.653  1.00  0.00    -0.263 A  
HETATM    5  O   UNL     1      -7.194   5.299  70.127  1.00  0.00    -0.059 OA 
HETATM    6  C   UNL     1     -10.396   9.029  70.803  1.00  0.00    -0.243 A  
HETATM    7  C   UNL     1      -9.142   6.695  69.849  1.00  0.00    -0.143 A  
HETATM    8  C   UNL     1      -9.144   4.079  69.469  1.00  0.00    -0.126 C  
HETATM    9  C   UNL     1      -8.395   7.851  70.179  1.00  0.00    -0.127 A  
HETATM   10  C   UNL     1     -10.536   6.785  69.968  1.00  0.00    -0.220 A  
HETATM   11  F   UNL     1     -10.992  10.136  71.263  1.00  0.00    -0.388 F  
HETATM   12  H   UNL     1      -7.510   5.140  71.009  1.00  0.00     0.000 HD 
HETATM   13  F   UNL     1     -11.326   5.781  69.568  1.00  0.00    -0.442 F  
HETATM   14  C   UNL     1     -11.162   7.927  70.463  1.00  0.00    -0.259 A  
ENDROOT
BRANCH   2  15
HETATM   15  N   UNL     1      -8.843   6.252  66.848  1.00  0.00    -0.113 NA 
HETATM   16  C   UNL     1      -7.901   7.414  64.275  1.00  0.00    -0.127 C  
HETATM   17  C   UNL     1      -7.814   8.210  65.554  1.00  0.00    -0.104 C  
HETATM   18  C   UNL     1      -7.849   7.989  63.063  1.00  0.00    -0.148 C  
HETATM   19  C   UNL     1      -8.781   7.712  66.646  1.00  0.00    -0.141 C  
HETATM   20  C   UNL     1      -8.052   5.923  64.447  1.00  0.00    -0.128 C  
HETATM   21  C   UNL     1      -9.044   5.571  65.566  1.00  0.00    -0.091 C  
ENDBRANCH   2  15
BRANCH   8  22
HETATM   22  N   UNL     1      -9.345   3.637  70.841  1.00  0.00    -0.134 NA 
HETATM   23  C   UNL     1     -10.031   3.586  72.801  1.00  0.00    -0.154 A  
HETATM   24  C   UNL     1      -9.043   2.418  71.371  1.00  0.00    -0.096 A  
HETATM   25  N   UNL     1      -9.453   2.364  72.618  1.00  0.00    -0.087 NA 
HETATM   26  N   UNL     1      -9.998   4.396  71.740  1.00  0.00    -0.183 NA 
ENDBRANCH   8  22
TORSDOF 2
ENDMDL
MODEL      120
REMARK 921   NORMALIZED FREE ENERGY PREDICTED BY IDOCK:   -2.98 KCAL/MOL
REMARK 922        TOTAL FREE ENERGY PREDICTED BY IDOCK:   -3.83 KCAL/MOL
REMARK 923 INTER-LIGAND FREE ENERGY PREDICTED BY IDOCK:   -3.33 KCAL/MOL
REMARK 924 INTRA-LIGAND FREE ENERGY PREDICTED BY IDOCK:   -0.50 KCAL/MOL
REMARK 927      BINDING AFFINITY PREDICTED BY RF-SCORE:    0.00 PKD
ROOT
HETATM    1  C   UNL     1     -12.575  11.055  69.487  1.00  0.00    -0.002 C  
HETATM    2  C   UNL     1     -11.662  12.226  69.073  1.00  0.00    -0.324 C  
HETATM    3  C   UNL     1     -10.412  11.737  68.195  1.00  0.00    -0.201 C  
HETATM    4  C   UNL     1      -9.610  14.851  66.082  1.00  0.00    -0.340 A  
HETATM    5  O   UNL     1     -11.022  11.053  67.048  1.00  0.00    -0.277 OA 
HETATM    6  C   UNL     1      -8.363  15.215  66.569  1.00  0.00    -0.025 A  
HETATM    7  C   UNL     1      -9.663  12.957  67.638  1.00  0.00    -0.212 A  
HETATM    8  C   UNL     1      -9.568  10.638  68.904  1.00  0.00    -0.196 C  
HETATM    9  C   UNL     1     -10.255  13.732  66.612  1.00  0.00    -0.276 A  
HETATM   10  C   UNL     1      -8.427  13.397  68.132  1.00  0.00    -0.172 A  
HETATM   11  F   UNL     1      -7.742  16.284  66.055  1.00  0.00    -0.265 F  
HETATM   12  H   UNL     1     -10.282  10.763  66.528  1.00  0.00     0.000 HD 
HETATM   13  F   UNL     1      -7.851  12.793  69.178  1.00  0.00     0.012 F  
HETATM   14  C   UNL     1      -7.765  14.498  67.591  1.00  0.00    -0.194 A  
ENDROOT
BRANCH   2  15
HETATM   15  N   UNL     1     -11.414  13.247  70.117  1.00  0.00    -0.059 NA 
HETATM   16  C   UNL     1     -13.660  14.795  71.307  1.00  0.00    -0.480 C  
HETATM   17  C   UNL     1     -13.119  15.152  69.944  1.00  0.00     0.198 C  
HETATM   18  C   UNL     1     -14.388  15.653  72.040  1.00  0.00    -0.486 C  
HETATM   19  C   UNL     1     -11.685  14.638  69.705  1.00  0.00    -0.313 C  
HETATM   20  C   UNL     1     -13.326  13.408  71.795  1.00  0.00    -0.479 C  
HETATM   21  C   UNL     1     -11.869  13.027  71.492  1.00  0.00     1.278 C  
ENDBRANCH   2  15
BRANCH   8  22
HETATM   22  N   UNL     1      -8.643   9.928  68.035  1.00  0.00    -0.121 NA 
HETATM   23  C   UNL     1      -7.932   8.692  66.523  1.00  0.00    -0.099 A  
HETATM   24  C   UNL     1      -7.307  10.157  67.883  1.00  0.00    -0.087 A  
HETATM   25  N   UNL     1      -6.828   9.375  66.943  1.00  0.00    -0.079 NA 
HETATM   26  N   UNL     1      -9.066   9.002  67.154  1.00  0.00    -0.135 NA 
ENDBRANCH   8  22
TORSDOF 2
ENDMDL
MODEL      121
REMARK 921   NORMALIZED FREE ENERGY PREDICTED BY IDOCK:   -2.93 KCAL/MOL
REMARK 922        TOTAL FREE ENERGY PREDICTED BY IDOCK:   -3.78 KCAL/MOL
REMARK 923 INTER-LIGAND FREE ENERGY PREDICTED BY IDOCK:   -4.56 KCAL/MOL
REMARK 924 INTRA-LIGAND FREE ENERGY PREDICTED BY IDOCK:    0.78 KCAL/MOL
REMARK 927      BINDING AFFINITY PREDICTED BY RF-SCORE:    0.00 PKD
ROOT
HETATM    1  C   UNL     1      -8.209  14.314  69.554  1.00  0.00     0.412 C  
HETATM    2  C   UNL     1      -8.514  15.572  68.717  1.00  0.00    -0.190 C  
HETATM    3  C   UNL     1      -9.811  15.383  67.792  1.00  0.00    -0.220 C  
HETATM    4  C   UNL     1     -11.089  18.992  67.405  1.00  0.00    -0.194 A  
HETATM    5  O   UNL     1     -10.884  15.050  68.737  1.00  0.00    -0.233 OA 
HETATM    6  C   UNL     1     -10.892  19.223  66.051  1.00  0.00    -0.272 A  
HETATM    7  C   UNL     1     -10.186  16.727  67.149  1.00  0.00    -0.295 A  
HETATM    8  C   UNL     1      -9.712  14.142  66.858  1.00  0.00    -0.269 C  
HETATM    9  C   UNL     1     -10.739  17.755  67.950  1.00  0.00    -0.327 A  
HETATM   10  C   UNL     1      -9.958  17.028  65.798  1.00  0.00    -0.153 A  
HETATM   11  F   UNL     1     -11.234  20.407  65.528  1.00  0.00    -0.181 F  
HETATM   12  H   UNL     1     -11.651  14.938  68.189  1.00  0.00     0.000 HD 
HETATM   13  F   UNL     1      -9.334  16.157  64.996  1.00  0.00     0.170 F  
HETATM   14  C   UNL     1     -10.328  18.251  65.242  1.00  0.00     0.661 A  
ENDROOT
BRANCH   2  15
HETATM   15  N   UNL     1      -7.338  16.250  68.126  1.00  0.00    -0.136 NA 
HETATM   16  C   UNL     1      -5.973  18.472  69.559  1.00  0.00    -0.261 C  
HETATM   17  C   UNL     1      -7.268  18.715  68.824  1.00  0.00    -0.330 C  
HETATM   18  C   UNL     1      -5.137  19.468  69.895  1.00  0.00    -0.203 C  
HETATM   19  C   UNL     1      -7.559  17.657  67.740  1.00  0.00    -0.206 C  
HETATM   20  C   UNL     1      -5.675  17.032  69.892  1.00  0.00    -0.222 C  
HETATM   21  C   UNL     1      -6.011  16.091  68.725  1.00  0.00    -0.105 C  
ENDBRANCH   2  15
BRANCH   8  22
HETATM   22  N   UNL     1     -10.971  13.734  66.255  1.00  0.00    -0.296 NA 
HETATM   23  C   UNL     1     -12.840  13.849  65.355  1.00  0.00    -0.427 A  
HETATM   24  C   UNL     1     -11.310  12.492  65.804  1.00  0.00    -0.336 A  
HETATM   25  N   UNL     1     -12.496  12.533  65.244  1.00  0.00    -0.647 NA 
HETATM   26  N   UNL     1     -11.936  14.624  65.958  1.00  0.00    -0.297 NA 
ENDBRANCH   8  22
TORSDOF 2
ENDMDL
MODEL      122
REMARK 921   NORMALIZED FREE ENERGY PREDICTED BY IDOCK:   -2.87 KCAL/MOL
REMARK 922        TOTAL FREE ENERGY PREDICTED BY IDOCK:   -3.71 KCAL/MOL
REMARK 923 INTER-LIGAND FREE ENERGY PREDICTED BY IDOCK:   -3.64 KCAL/MOL
REMARK 924 INTRA-LIGAND FREE ENERGY PREDICTED BY IDOCK:   -0.07 KCAL/MOL
REMARK 927      BINDING AFFINITY PREDICTED BY RF-SCORE:    0.00 PKD
ROOT
HETATM    1  C   UNL     1     -11.762  11.288  67.178  1.00  0.00     0.035 C  
HETATM    2  C   UNL     1     -10.575  11.985  67.872  1.00  0.00    -0.202 C  
HETATM    3  C   UNL     1      -9.209  11.812  67.051  1.00  0.00    -0.187 C  
HETATM    4  C   UNL     1      -7.220  14.943  68.077  1.00  0.00    -0.143 A  
HETATM    5  O   UNL     1      -9.509  12.373  65.728  1.00  0.00    -0.386 OA 
HETATM    6  C   UNL     1      -6.164  14.392  68.788  1.00  0.00    -0.085 A  
HETATM    7  C   UNL     1      -8.117  12.697  67.672  1.00  0.00    -0.173 A  
HETATM    8  C   UNL     1      -8.854  10.323  66.773  1.00  0.00    -0.133 C  
HETATM    9  C   UNL     1      -8.189  14.103  67.524  1.00  0.00    -0.196 A  
HETATM   10  C   UNL     1      -7.060  12.194  68.444  1.00  0.00    -0.089 A  
HETATM   11  F   UNL     1      -5.232  15.197  69.313  1.00  0.00    -0.092 F  
HETATM   12  H   UNL     1      -8.699  12.271  65.241  1.00  0.00     0.000 HD 
HETATM   13  F   UNL     1      -6.981  10.890  68.732  1.00  0.00    -0.061 F  
HETATM   14  C   UNL     1      -6.076  13.023  68.978  1.00  0.00    -0.089 A  
ENDROOT
BRANCH   2  15
HETATM   15  N   UNL     1     -10.518  11.840  69.345  1.00  0.00     0.056 NA 
HETATM   16  C   UNL     1     -12.466  10.116  70.790  1.00  0.00    -0.417 C  
HETATM   17  C   UNL     1     -12.864  11.492  70.313  1.00  0.00     0.045 C  
HETATM   18  C   UNL     1     -13.146   9.460  71.743  1.00  0.00    -0.488 C  
HETATM   19  C   UNL     1     -11.660  12.424  70.073  1.00  0.00    -0.138 C  
HETATM   20  C   UNL     1     -11.248   9.526  70.125  1.00  0.00    -0.275 C  
HETATM   21  C   UNL     1     -10.129  10.564  69.949  1.00  0.00     0.001 C  
ENDBRANCH   2  15
BRANCH   8  22
HETATM   22  N   UNL     1      -7.829  10.121  65.761  1.00  0.00    -0.132 NA 
HETATM   23  C   UNL     1      -6.941   9.729  63.924  1.00  0.00    -0.119 A  
HETATM   24  C   UNL     1      -6.508  10.452  65.841  1.00  0.00    -0.123 A  
HETATM   25  N   UNL     1      -5.918  10.199  64.695  1.00  0.00    -0.116 NA 
HETATM   26  N   UNL     1      -8.129   9.672  64.528  1.00  0.00    -0.133 NA 
ENDBRANCH   8  22
TORSDOF 2
ENDMDL
MODEL      123
REMARK 921   NORMALIZED FREE ENERGY PREDICTED BY IDOCK:   -2.85 KCAL/MOL
REMARK 922        TOTAL FREE ENERGY PREDICTED BY IDOCK:   -3.68 KCAL/MOL
REMARK 923 INTER-LIGAND FREE ENERGY PREDICTED BY IDOCK:   -3.53 KCAL/MOL
REMARK 924 INTRA-LIGAND FREE ENERGY PREDICTED BY IDOCK:   -0.15 KCAL/MOL
REMARK 927      BINDING AFFINITY PREDICTED BY RF-SCORE:    0.00 PKD
ROOT
HETATM    1  C   UNL     1      -8.136  12.551  66.857  1.00  0.00    -0.039 C  
HETATM    2  C   UNL     1      -9.137  11.459  67.284  1.00  0.00    -0.162 C  
HETATM    3  C   UNL     1      -8.528  10.487  68.405  1.00  0.00    -0.128 C  
HETATM    4  C   UNL     1     -11.675   9.287  70.265  1.00  0.00    -0.088 A  
HETATM    5  O   UNL     1      -8.159  11.387  69.503  1.00  0.00    -0.345 OA 
HETATM    6  C   UNL     1     -11.695   7.936  69.954  1.00  0.00     0.374 A  
HETATM    7  C   UNL     1      -9.631   9.561  68.940  1.00  0.00    -0.156 A  
HETATM    8  C   UNL     1      -7.186   9.829  67.970  1.00  0.00    -0.080 C  
HETATM    9  C   UNL     1     -10.652  10.093  69.762  1.00  0.00    -0.298 A  
HETATM   10  C   UNL     1      -9.726   8.201  68.611  1.00  0.00    -0.153 A  
HETATM   11  F   UNL     1     -12.673   7.162  70.442  1.00  0.00    -0.203 F  
HETATM   12  H   UNL     1      -7.798  10.812  70.167  1.00  0.00     0.000 HD 
HETATM   13  F   UNL     1      -8.870   7.642  67.748  1.00  0.00    -0.125 F  
HETATM   14  C   UNL     1     -10.729   7.385  69.129  1.00  0.00    -0.180 A  
ENDROOT
BRANCH   2  15
HETATM   15  N   UNL     1      -9.922  10.844  66.190  1.00  0.00    -0.224 NA 
HETATM   16  C   UNL     1     -11.419  12.528  64.246  1.00  0.00    -0.423 C  
HETATM   17  C   UNL     1     -11.971  12.276  65.628  1.00  0.00    -0.373 C  
HETATM   18  C   UNL     1     -12.188  12.947  63.229  1.00  0.00    -0.481 C  
HETATM   19  C   UNL     1     -11.383  11.017  66.297  1.00  0.00     0.210 C  
HETATM   20  C   UNL     1      -9.942  12.275  64.081  1.00  0.00    -0.261 C  
HETATM   21  C   UNL     1      -9.494  10.992  64.797  1.00  0.00    -0.230 C  
ENDBRANCH   2  15
BRANCH   8  22
HETATM   22  N   UNL     1      -6.430   9.218  69.053  1.00  0.00    -0.046 NA 
HETATM   23  C   UNL     1      -5.413   7.792  70.170  1.00  0.00    -0.023 A  
HETATM   24  C   UNL     1      -5.768   9.853  70.062  1.00  0.00    -0.044 A  
HETATM   25  N   UNL     1      -5.128   8.971  70.795  1.00  0.00    -0.020 NA 
HETATM   26  N   UNL     1      -6.197   7.893  69.095  1.00  0.00    -0.035 NA 
ENDBRANCH   8  22
TORSDOF 2
ENDMDL
MODEL      124
REMARK 921   NORMALIZED FREE ENERGY PREDICTED BY IDOCK:   -2.79 KCAL/MOL
REMARK 922        TOTAL FREE ENERGY PREDICTED BY IDOCK:   -3.62 KCAL/MOL
REMARK 923 INTER-LIGAND FREE ENERGY PREDICTED BY IDOCK:   -2.97 KCAL/MOL
REMARK 924 INTRA-LIGAND FREE ENERGY PREDICTED BY IDOCK:   -0.65 KCAL/MOL
REMARK 927      BINDING AFFINITY PREDICTED BY RF-SCORE:    0.00 PKD
ROOT
HETATM    1  C   UNL     1      -5.968   3.717  68.500  1.00  0.00    -0.027 C  
HETATM    2  C   UNL     1      -7.212   4.620  68.620  1.00  0.00    -0.057 C  
HETATM    3  C   UNL     1      -7.633   4.867  70.148  1.00  0.00    -0.059 C  
HETATM    4  C   UNL     1      -9.393   8.284  69.982  1.00  0.00    -0.162 A  
HETATM    5  O   UNL     1      -6.437   5.455  70.762  1.00  0.00    -0.032 OA 
HETATM    6  C   UNL     1     -10.702   7.949  70.300  1.00  0.00    -0.236 A  
HETATM    7  C   UNL     1      -8.737   5.934  70.213  1.00  0.00    -0.142 A  
HETATM    8  C   UNL     1      -7.866   3.543  70.933  1.00  0.00    -0.047 C  
HETATM    9  C   UNL     1      -8.419   7.285  69.939  1.00  0.00    -0.140 A  
HETATM   10  C   UNL     1     -10.082   5.639  70.476  1.00  0.00    -0.217 A  
HETATM   11  F   UNL     1     -11.634   8.908  70.348  1.00  0.00    -0.268 F  
HETATM   12  H   UNL     1      -6.687   5.602  71.667  1.00  0.00     0.000 HD 
HETATM   13  F   UNL     1     -10.490   4.374  70.632  1.00  0.00    -0.229 F  
HETATM   14  C   UNL     1     -11.056   6.634  70.546  1.00  0.00    -0.359 A  
ENDROOT
BRANCH   2  15
HETATM   15  N   UNL     1      -8.291   4.359  67.640  1.00  0.00    -0.099 NA 
HETATM   16  C   UNL     1      -7.662   3.471  64.871  1.00  0.00    -0.078 C  
HETATM   17  C   UNL     1      -7.512   4.920  65.264  1.00  0.00    -0.077 C  
HETATM   18  C   UNL     1      -7.757   3.078  63.590  1.00  0.00    -0.068 C  
HETATM   19  C   UNL     1      -8.343   5.302  66.506  1.00  0.00    -0.108 C  
HETATM   20  C   UNL     1      -7.699   2.488  66.014  1.00  0.00    -0.080 C  
HETATM   21  C   UNL     1      -8.561   2.995  67.180  1.00  0.00    -0.107 C  
ENDBRANCH   2  15
BRANCH   8  22
HETATM   22  N   UNL     1      -7.916   3.695  72.379  1.00  0.00    -0.068 NA 
HETATM   23  C   UNL     1      -7.347   4.177  74.318  1.00  0.00    -0.071 A  
HETATM   24  C   UNL     1      -9.014   3.611  73.183  1.00  0.00    -0.098 A  
HETATM   25  N   UNL     1      -8.678   3.895  74.421  1.00  0.00    -0.094 NA 
HETATM   26  N   UNL     1      -6.838   4.077  73.088  1.00  0.00    -0.050 NA 
ENDBRANCH   8  22
TORSDOF 2
ENDMDL
MODEL      125
REMARK 921   NORMALIZED FREE ENERGY PREDICTED BY IDOCK:   -2.77 KCAL/MOL
REMARK 922        TOTAL FREE ENERGY PREDICTED BY IDOCK:   -3.60 KCAL/MOL
REMARK 923 INTER-LIGAND FREE ENERGY PREDICTED BY IDOCK:   -3.25 KCAL/MOL
REMARK 924 INTRA-LIGAND FREE ENERGY PREDICTED BY IDOCK:   -0.35 KCAL/MOL
REMARK 927      BINDING AFFINITY PREDICTED BY RF-SCORE:    0.00 PKD
ROOT
HETATM    1  C   UNL     1      -7.885   6.876  66.399  1.00  0.00    -0.103 C  
HETATM    2  C   UNL     1      -8.498   6.787  67.810  1.00  0.00    -0.122 C  
HETATM    3  C   UNL     1      -8.126   8.061  68.711  1.00  0.00    -0.125 C  
HETATM    4  C   UNL     1     -11.091   8.243  71.158  1.00  0.00    -0.289 A  
HETATM    5  O   UNL     1      -8.625   9.207  67.941  1.00  0.00    -0.121 OA 
HETATM    6  C   UNL     1     -10.480   7.956  72.370  1.00  0.00    -0.277 A  
HETATM    7  C   UNL     1      -8.931   8.021  70.020  1.00  0.00    -0.144 A  
HETATM    8  C   UNL     1      -6.592   8.299  68.818  1.00  0.00    -0.054 C  
HETATM    9  C   UNL     1     -10.323   8.275  69.993  1.00  0.00    -0.212 A  
HETATM   10  C   UNL     1      -8.372   7.683  71.261  1.00  0.00    -0.107 A  
HETATM   11  F   UNL     1     -11.216   7.932  73.489  1.00  0.00    -0.375 F  
HETATM   12  H   UNL     1      -8.405   9.961  68.475  1.00  0.00     0.000 HD 
HETATM   13  F   UNL     1      -7.089   7.316  71.359  1.00  0.00    -0.060 F  
HETATM   14  C   UNL     1      -9.126   7.674  72.432  1.00  0.00    -0.191 A  
ENDROOT
BRANCH   2  15
HETATM   15  N   UNL     1      -8.448   5.453  68.449  1.00  0.00    -0.097 NA 
HETATM   16  C   UNL     1      -7.165   3.146  67.075  1.00  0.00    -0.058 C  
HETATM   17  C   UNL     1      -8.550   3.599  66.683  1.00  0.00    -0.111 C  
HETATM   18  C   UNL     1      -6.694   1.925  66.773  1.00  0.00    -0.038 C  
HETATM   19  C   UNL     1      -9.258   4.413  67.785  1.00  0.00    -0.136 C  
HETATM   20  C   UNL     1      -6.342   4.157  67.833  1.00  0.00    -0.037 C  
HETATM   21  C   UNL     1      -7.170   4.893  68.896  1.00  0.00    -0.053 C  
ENDBRANCH   2  15
BRANCH   8  22
HETATM   22  N   UNL     1      -6.215   9.609  69.329  1.00  0.00    -0.040 NA 
HETATM   23  C   UNL     1      -5.816  11.647  69.389  1.00  0.00    -0.071 A  
HETATM   24  C   UNL     1      -6.093   9.986  70.634  1.00  0.00    -0.101 A  
HETATM   25  N   UNL     1      -5.824  11.269  70.700  1.00  0.00    -0.278 NA 
HETATM   26  N   UNL     1      -6.059  10.668  68.514  1.00  0.00    -0.046 NA 
ENDBRANCH   8  22
TORSDOF 2
ENDMDL
MODEL      126
REMARK 921   NORMALIZED FREE ENERGY PREDICTED BY IDOCK:   -2.77 KCAL/MOL
REMARK 922        TOTAL FREE ENERGY PREDICTED BY IDOCK:   -3.60 KCAL/MOL
REMARK 923 INTER-LIGAND FREE ENERGY PREDICTED BY IDOCK:   -3.66 KCAL/MOL
REMARK 924 INTRA-LIGAND FREE ENERGY PREDICTED BY IDOCK:    0.06 KCAL/MOL
REMARK 927      BINDING AFFINITY PREDICTED BY RF-SCORE:    0.00 PKD
ROOT
HETATM    1  C   UNL     1      -7.204   8.559  73.141  1.00  0.00    -0.045 C  
HETATM    2  C   UNL     1      -7.510   8.117  71.696  1.00  0.00    -0.085 C  
HETATM    3  C   UNL     1      -8.880   8.747  71.150  1.00  0.00    -0.219 C  
HETATM    4  C   UNL     1      -8.283   8.867  67.351  1.00  0.00    -0.108 A  
HETATM    5  O   UNL     1      -8.689  10.196  71.278  1.00  0.00     0.317 OA 
HETATM    6  C   UNL     1      -9.214   7.950  66.884  1.00  0.00    -0.155 A  
HETATM    7  C   UNL     1      -9.023   8.448  69.649  1.00  0.00    -0.145 A  
HETATM    8  C   UNL     1     -10.098   8.430  72.065  1.00  0.00    -0.294 C  
HETATM    9  C   UNL     1      -8.188   9.114  68.721  1.00  0.00    -0.109 A  
HETATM   10  C   UNL     1      -9.911   7.492  69.133  1.00  0.00    -0.170 A  
HETATM   11  F   UNL     1      -9.309   7.719  65.569  1.00  0.00    -0.086 F  
HETATM   12  H   UNL     1      -9.500  10.569  70.954  1.00  0.00     0.000 HD 
HETATM   13  F   UNL     1     -10.654   6.735  69.947  1.00  0.00    -0.203 F  
HETATM   14  C   UNL     1     -10.029   7.259  67.764  1.00  0.00    -0.205 A  
ENDROOT
BRANCH   2  15
HETATM   15  N   UNL     1      -7.232   6.696  71.386  1.00  0.00    -0.080 NA 
HETATM   16  C   UNL     1      -7.111   4.654  73.548  1.00  0.00    -0.072 C  
HETATM   17  C   UNL     1      -5.948   5.585  73.306  1.00  0.00    -0.036 C  
HETATM   18  C   UNL     1      -6.984   3.504  74.228  1.00  0.00    -0.047 C  
HETATM   19  C   UNL     1      -5.939   6.191  71.888  1.00  0.00    -0.036 C  
HETATM   20  C   UNL     1      -8.431   5.101  72.971  1.00  0.00    -0.111 C  
HETATM   21  C   UNL     1      -8.275   5.683  71.558  1.00  0.00    -0.119 C  
ENDBRANCH   2  15
BRANCH   8  22
HETATM   22  N   UNL     1     -11.278   9.242  71.809  1.00  0.00    -0.374 NA 
HETATM   23  C   UNL     1     -12.485  10.767  71.076  1.00  0.00    -0.420 A  
HETATM   24  C   UNL     1     -12.581   8.903  72.027  1.00  0.00    -0.394 A  
HETATM   25  N   UNL     1     -13.366   9.859  71.588  1.00  0.00    -0.394 NA 
HETATM   26  N   UNL     1     -11.197  10.429  71.180  1.00  0.00    -0.070 NA 
ENDBRANCH   8  22
TORSDOF 2
ENDMDL
MODEL      127
REMARK 921   NORMALIZED FREE ENERGY PREDICTED BY IDOCK:   -2.74 KCAL/MOL
REMARK 922        TOTAL FREE ENERGY PREDICTED BY IDOCK:   -3.57 KCAL/MOL
REMARK 923 INTER-LIGAND FREE ENERGY PREDICTED BY IDOCK:   -3.08 KCAL/MOL
REMARK 924 INTRA-LIGAND FREE ENERGY PREDICTED BY IDOCK:   -0.49 KCAL/MOL
REMARK 927      BINDING AFFINITY PREDICTED BY RF-SCORE:    0.00 PKD
ROOT
HETATM    1  C   UNL     1      -7.717  11.228  68.240  1.00  0.00    -0.122 C  
HETATM    2  C   UNL     1      -8.555  10.001  68.647  1.00  0.00    -0.123 C  
HETATM    3  C   UNL     1      -7.879   8.624  68.177  1.00  0.00    -0.103 C  
HETATM    4  C   UNL     1      -9.210   6.115  70.772  1.00  0.00    -0.163 A  
HETATM    5  O   UNL     1      -6.550   8.643  68.800  1.00  0.00    -0.052 OA 
HETATM    6  C   UNL     1     -10.012   5.294  69.992  1.00  0.00    -0.245 A  
HETATM    7  C   UNL     1      -8.641   7.439  68.789  1.00  0.00    -0.129 A  
HETATM    8  C   UNL     1      -7.593   8.582  66.647  1.00  0.00    -0.082 C  
HETATM    9  C   UNL     1      -8.531   7.178  70.176  1.00  0.00    -0.139 A  
HETATM   10  C   UNL     1      -9.505   6.613  68.055  1.00  0.00    -0.118 A  
HETATM   11  F   UNL     1     -10.659   4.269  70.564  1.00  0.00    -0.099 F  
HETATM   12  H   UNL     1      -6.150   7.828  68.522  1.00  0.00     0.000 HD 
HETATM   13  F   UNL     1      -9.758   6.859  66.764  1.00  0.00    -0.178 F  
HETATM   14  C   UNL     1     -10.167   5.534  68.638  1.00  0.00    -0.261 A  
ENDROOT
BRANCH   2  15
HETATM   15  N   UNL     1     -10.020  10.140  68.482  1.00  0.00    -0.158 NA 
HETATM   16  C   UNL     1     -11.310  12.822  68.475  1.00  0.00    -0.326 C  
HETATM   17  C   UNL     1     -10.886  12.178  69.772  1.00  0.00     0.325 C  
HETATM   18  C   UNL     1     -12.205  13.821  68.426  1.00  0.00    -0.181 C  
HETATM   19  C   UNL     1     -10.735  10.647  69.670  1.00  0.00    -0.244 C  
HETATM   20  C   UNL     1     -10.661  12.267  67.232  1.00  0.00    -0.263 C  
HETATM   21  C   UNL     1     -10.576  10.733  67.264  1.00  0.00    -0.257 C  
ENDBRANCH   2  15
BRANCH   8  22
HETATM   22  N   UNL     1      -6.690   7.521  66.227  1.00  0.00    -0.056 NA 
HETATM   23  C   UNL     1      -5.168   6.108  66.285  1.00  0.00    -0.012 A  
HETATM   24  C   UNL     1      -6.813   6.711  65.137  1.00  0.00    -0.050 A  
HETATM   25  N   UNL     1      -5.852   5.817  65.140  1.00  0.00    -0.024 NA 
HETATM   26  N   UNL     1      -5.648   7.136  66.988  1.00  0.00    -0.021 NA 
ENDBRANCH   8  22
TORSDOF 2
ENDMDL
MODEL      128
REMARK 921   NORMALIZED FREE ENERGY PREDICTED BY IDOCK:   -2.73 KCAL/MOL
REMARK 922        TOTAL FREE ENERGY PREDICTED BY IDOCK:   -3.55 KCAL/MOL
REMARK 923 INTER-LIGAND FREE ENERGY PREDICTED BY IDOCK:   -3.21 KCAL/MOL
REMARK 924 INTRA-LIGAND FREE ENERGY PREDICTED BY IDOCK:   -0.34 KCAL/MOL
REMARK 927      BINDING AFFINITY PREDICTED BY RF-SCORE:    0.00 PKD
ROOT
HETATM    1  C   UNL     1      -9.589   7.657  67.568  1.00  0.00    -0.178 C  
HETATM    2  C   UNL     1      -8.886   8.989  67.899  1.00  0.00    -0.129 C  
HETATM    3  C   UNL     1      -8.037   9.548  66.657  1.00  0.00    -0.108 C  
HETATM    4  C   UNL     1      -8.049  13.344  67.285  1.00  0.00    -0.147 A  
HETATM    5  O   UNL     1      -9.020   9.672  65.574  1.00  0.00    -0.158 OA 
HETATM    6  C   UNL     1      -6.710  13.596  67.546  1.00  0.00    -0.124 A  
HETATM    7  C   UNL     1      -7.539  10.967  66.970  1.00  0.00    -0.122 A  
HETATM    8  C   UNL     1      -6.995   8.521  66.126  1.00  0.00    -0.076 C  
HETATM    9  C   UNL     1      -8.460  12.041  67.000  1.00  0.00    -0.183 A  
HETATM   10  C   UNL     1      -6.207  11.265  67.293  1.00  0.00    -0.081 A  
HETATM   11  F   UNL     1      -6.314  14.847  67.812  1.00  0.00    -0.124 F  
HETATM   12  H   UNL     1      -8.517  10.003  64.839  1.00  0.00     0.000 HD 
HETATM   13  F   UNL     1      -5.293  10.293  67.402  1.00  0.00    -0.040 F  
HETATM   14  C   UNL     1      -5.784  12.567  67.553  1.00  0.00    -0.139 A  
ENDROOT
BRANCH   2  15
HETATM   15  N   UNL     1      -8.278   9.077  69.245  1.00  0.00    -0.115 NA 
HETATM   16  C   UNL     1      -9.472   7.638  71.561  1.00  0.00    -0.166 C  
HETATM   17  C   UNL     1     -10.077   8.928  71.064  1.00  0.00    -0.324 C  
HETATM   18  C   UNL     1      -9.719   7.152  72.788  1.00  0.00    -0.190 C  
HETATM   19  C   UNL     1      -9.090   9.789  70.250  1.00  0.00    -0.157 C  
HETATM   20  C   UNL     1      -8.565   6.929  70.586  1.00  0.00    -0.141 C  
HETATM   21  C   UNL     1      -7.638   7.905  69.848  1.00  0.00    -0.089 C  
ENDBRANCH   2  15
BRANCH   8  22
HETATM   22  N   UNL     1      -6.446   8.836  64.816  1.00  0.00    -0.066 NA 
HETATM   23  C   UNL     1      -6.010   9.883  63.075  1.00  0.00    -0.115 A  
HETATM   24  C   UNL     1      -5.453   8.177  64.153  1.00  0.00    -0.045 A  
HETATM   25  N   UNL     1      -5.169   8.810  63.039  1.00  0.00    -0.068 NA 
HETATM   26  N   UNL     1      -6.804   9.947  64.146  1.00  0.00    -0.122 NA 
ENDBRANCH   8  22
TORSDOF 2
ENDMDL
MODEL      129
REMARK 921   NORMALIZED FREE ENERGY PREDICTED BY IDOCK:   -2.54 KCAL/MOL
REMARK 922        TOTAL FREE ENERGY PREDICTED BY IDOCK:   -3.34 KCAL/MOL
REMARK 923 INTER-LIGAND FREE ENERGY PREDICTED BY IDOCK:   -2.79 KCAL/MOL
REMARK 924 INTRA-LIGAND FREE ENERGY PREDICTED BY IDOCK:   -0.55 KCAL/MOL
REMARK 927      BINDING AFFINITY PREDICTED BY RF-SCORE:    0.00 PKD
ROOT
HETATM    1  C   UNL     1     -10.103   8.647  69.115  1.00  0.00    -0.203 C  
HETATM    2  C   UNL     1      -9.215   7.455  68.710  1.00  0.00    -0.144 C  
HETATM    3  C   UNL     1      -9.056   6.389  69.898  1.00  0.00    -0.142 C  
HETATM    4  C   UNL     1      -8.417   3.108  67.992  1.00  0.00    -0.105 A  
HETATM    5  O   UNL     1     -10.434   5.995  70.218  1.00  0.00    -0.206 OA 
HETATM    6  C   UNL     1      -7.111   2.814  68.357  1.00  0.00    -0.048 A  
HETATM    7  C   UNL     1      -8.345   5.132  69.373  1.00  0.00    -0.090 A  
HETATM    8  C   UNL     1      -8.516   7.024  71.212  1.00  0.00    -0.118 C  
HETATM    9  C   UNL     1      -9.029   4.257  68.496  1.00  0.00    -0.154 A  
HETATM   10  C   UNL     1      -7.010   4.819  69.668  1.00  0.00    -0.053 A  
HETATM   11  F   UNL     1      -6.527   1.708  67.879  1.00  0.00    -0.026 F  
HETATM   12  H   UNL     1     -10.339   5.364  70.921  1.00  0.00     0.000 HD 
HETATM   13  F   UNL     1      -6.254   5.651  70.395  1.00  0.00    -0.022 F  
HETATM   14  C   UNL     1      -6.401   3.661  69.190  1.00  0.00    -0.029 A  
ENDROOT
BRANCH   2  15
HETATM   15  N   UNL     1      -8.009   7.791  67.920  1.00  0.00    -0.123 NA 
HETATM   16  C   UNL     1      -8.216   9.394  65.421  1.00  0.00    -0.126 C  
HETATM   17  C   UNL     1      -8.571   7.928  65.424  1.00  0.00    -0.118 C  
HETATM   18  C   UNL     1      -7.932  10.065  64.293  1.00  0.00    -0.152 C  
HETATM   19  C   UNL     1      -7.935   7.150  66.593  1.00  0.00    -0.111 C  
HETATM   20  C   UNL     1      -8.198  10.060  66.774  1.00  0.00    -0.121 C  
HETATM   21  C   UNL     1      -7.537   9.175  67.842  1.00  0.00    -0.085 C  
ENDBRANCH   2  15
BRANCH   8  22
HETATM   22  N   UNL     1      -8.670   6.194  72.397  1.00  0.00    -0.126 NA 
HETATM   23  C   UNL     1      -9.519   4.905  73.788  1.00  0.00    -0.128 A  
HETATM   24  C   UNL     1      -7.690   5.766  73.243  1.00  0.00    -0.099 A  
HETATM   25  N   UNL     1      -8.204   4.961  74.145  1.00  0.00    -0.100 NA 
HETATM   26  N   UNL     1      -9.851   5.634  72.720  1.00  0.00    -0.163 NA 
ENDBRANCH   8  22
TORSDOF 2
ENDMDL
MODEL      130
REMARK 921   NORMALIZED FREE ENERGY PREDICTED BY IDOCK:   -2.53 KCAL/MOL
REMARK 922        TOTAL FREE ENERGY PREDICTED BY IDOCK:   -3.33 KCAL/MOL
REMARK 923 INTER-LIGAND FREE ENERGY PREDICTED BY IDOCK:   -3.79 KCAL/MOL
REMARK 924 INTRA-LIGAND FREE ENERGY PREDICTED BY IDOCK:    0.46 KCAL/MOL
REMARK 927      BINDING AFFINITY PREDICTED BY RF-SCORE:    0.00 PKD
ROOT
HETATM    1  C   UNL     1      -6.336  10.599  69.199  1.00  0.00    -0.053 C  
HETATM    2  C   UNL     1      -7.590   9.703  69.226  1.00  0.00    -0.091 C  
HETATM    3  C   UNL     1      -7.545   8.638  70.424  1.00  0.00    -0.075 C  
HETATM    4  C   UNL     1     -11.277   8.017  71.126  1.00  0.00    -0.287 A  
HETATM    5  O   UNL     1      -7.401   9.458  71.633  1.00  0.00    -0.324 OA 
HETATM    6  C   UNL     1     -11.424   6.691  70.748  1.00  0.00    -0.353 A  
HETATM    7  C   UNL     1      -8.901   7.923  70.531  1.00  0.00    -0.141 A  
HETATM    8  C   UNL     1      -6.266   7.751  70.398  1.00  0.00    -0.037 C  
HETATM    9  C   UNL     1     -10.027   8.628  71.018  1.00  0.00    -0.272 A  
HETATM   10  C   UNL     1      -9.113   6.601  70.112  1.00  0.00    -0.155 A  
HETATM   11  F   UNL     1     -12.622   6.103  70.858  1.00  0.00    -0.050 F  
HETATM   12  H   UNL     1      -7.375   8.827  72.342  1.00  0.00     0.000 HD 
HETATM   13  F   UNL     1      -8.133   5.899  69.532  1.00  0.00    -0.098 F  
HETATM   14  C   UNL     1     -10.352   5.977  70.240  1.00  0.00    -0.282 A  
ENDROOT
BRANCH   2  15
HETATM   15  N   UNL     1      -8.075   9.237  67.907  1.00  0.00    -0.104 NA 
HETATM   16  C   UNL     1      -9.828  10.957  66.226  1.00  0.00    -0.261 C  
HETATM   17  C   UNL     1     -10.395  10.200  67.403  1.00  0.00    -0.289 C  
HETATM   18  C   UNL     1     -10.600  11.432  65.236  1.00  0.00    -0.336 C  
HETATM   19  C   UNL     1      -9.528   8.997  67.827  1.00  0.00    -0.141 C  
HETATM   20  C   UNL     1      -8.331  11.143  66.235  1.00  0.00    -0.163 C  
HETATM   21  C   UNL     1      -7.595   9.869  66.675  1.00  0.00    -0.103 C  
ENDBRANCH   2  15
BRANCH   8  22
HETATM   22  N   UNL     1      -6.011   7.016  71.628  1.00  0.00    -0.037 NA 
HETATM   23  C   UNL     1      -5.776   5.429  72.947  1.00  0.00    -0.023 A  
HETATM   24  C   UNL     1      -5.440   7.488  72.772  1.00  0.00    -0.037 A  
HETATM   25  N   UNL     1      -5.294   6.506  73.632  1.00  0.00    -0.041 NA 
HETATM   26  N   UNL     1      -6.217   5.689  71.715  1.00  0.00    -0.038 NA 
ENDBRANCH   8  22
TORSDOF 2
ENDMDL
MODEL      131
REMARK 921   NORMALIZED FREE ENERGY PREDICTED BY IDOCK:   -2.52 KCAL/MOL
REMARK 922        TOTAL FREE ENERGY PREDICTED BY IDOCK:   -3.32 KCAL/MOL
REMARK 923 INTER-LIGAND FREE ENERGY PREDICTED BY IDOCK:   -3.94 KCAL/MOL
REMARK 924 INTRA-LIGAND FREE ENERGY PREDICTED BY IDOCK:    0.62 KCAL/MOL
REMARK 927      BINDING AFFINITY PREDICTED BY RF-SCORE:    0.00 PKD
ROOT
HETATM    1  C   UNL     1      -8.719  15.421  66.326  1.00  0.00    -0.240 C  
HETATM    2  C   UNL     1      -8.826  13.967  66.826  1.00  0.00    -0.149 C  
HETATM    3  C   UNL     1      -9.785  13.078  65.896  1.00  0.00    -0.178 C  
HETATM    4  C   UNL     1      -8.375   9.533  66.397  1.00  0.00    -0.120 A  
HETATM    5  O   UNL     1      -9.189  13.181  64.558  1.00  0.00     0.151 OA 
HETATM    6  C   UNL     1      -9.419   8.899  67.054  1.00  0.00    -0.166 A  
HETATM    7  C   UNL     1      -9.686  11.603  66.314  1.00  0.00    -0.241 A  
HETATM    8  C   UNL     1     -11.209  13.686  65.738  1.00  0.00    -0.295 C  
HETATM    9  C   UNL     1      -8.507  10.873  66.030  1.00  0.00    -0.167 A  
HETATM   10  C   UNL     1     -10.691  10.932  67.026  1.00  0.00    -0.271 A  
HETATM   11  F   UNL     1      -9.295   7.611  67.400  1.00  0.00    -0.135 F  
HETATM   12  H   UNL     1      -9.756  12.655  64.008  1.00  0.00     0.000 HD 
HETATM   13  F   UNL     1     -11.789  11.577  67.437  1.00  0.00    -0.346 F  
HETATM   14  C   UNL     1     -10.577   9.587  67.374  1.00  0.00    -0.337 A  
ENDROOT
BRANCH   2  15
HETATM   15  N   UNL     1      -8.939  13.798  68.292  1.00  0.00    -0.185 NA 
HETATM   16  C   UNL     1     -10.684  15.588  69.907  1.00  0.00    -0.321 C  
HETATM   17  C   UNL     1      -9.330  16.058  69.436  1.00  0.00    -0.218 C  
HETATM   18  C   UNL     1     -11.340  16.178  70.920  1.00  0.00    -0.394 C  
HETATM   19  C   UNL     1      -8.371  14.901  69.091  1.00  0.00    -0.150 C  
HETATM   20  C   UNL     1     -11.255  14.405  69.166  1.00  0.00    -0.300 C  
HETATM   21  C   UNL     1     -10.192  13.331  68.890  1.00  0.00    -0.019 C  
ENDBRANCH   2  15
BRANCH   8  22
HETATM   22  N   UNL     1     -11.997  13.116  64.656  1.00  0.00    -0.368 NA 
HETATM   23  C   UNL     1     -12.530  12.453  62.761  1.00  0.00     0.718 A  
HETATM   24  C   UNL     1     -13.144  12.387  64.762  1.00  0.00     0.326 A  
HETATM   25  N   UNL     1     -13.514  11.969  63.573  1.00  0.00    -0.176 NA 
HETATM   26  N   UNL     1     -11.576  13.153  63.379  1.00  0.00    -0.357 NA 
ENDBRANCH   8  22
TORSDOF 2
ENDMDL
MODEL      132
REMARK 921   NORMALIZED FREE ENERGY PREDICTED BY IDOCK:   -2.42 KCAL/MOL
REMARK 922        TOTAL FREE ENERGY PREDICTED BY IDOCK:   -3.20 KCAL/MOL
REMARK 923 INTER-LIGAND FREE ENERGY PREDICTED BY IDOCK:   -2.89 KCAL/MOL
REMARK 924 INTRA-LIGAND FREE ENERGY PREDICTED BY IDOCK:   -0.31 KCAL/MOL
REMARK 927      BINDING AFFINITY PREDICTED BY RF-SCORE:    0.00 PKD
ROOT
HETATM    1  C   UNL     1      -7.175  14.830  67.714  1.00  0.00    -0.192 C  
HETATM    2  C   UNL     1      -8.530  14.141  67.968  1.00  0.00    -0.171 C  
HETATM    3  C   UNL     1      -8.376  12.555  68.157  1.00  0.00    -0.175 C  
HETATM    4  C   UNL     1     -11.394  11.685  70.379  1.00  0.00     0.189 A  
HETATM    5  O   UNL     1      -7.443  12.415  69.281  1.00  0.00    -0.325 OA 
HETATM    6  C   UNL     1     -12.164  10.907  69.526  1.00  0.00    -0.261 A  
HETATM    7  C   UNL     1      -9.715  11.957  68.614  1.00  0.00    -0.116 A  
HETATM    8  C   UNL     1      -7.654  11.871  66.960  1.00  0.00    -0.134 C  
HETATM    9  C   UNL     1     -10.181  12.206  69.927  1.00  0.00     1.510 A  
HETATM   10  C   UNL     1     -10.554  11.210  67.774  1.00  0.00    -0.209 A  
HETATM   11  F   UNL     1     -13.324  10.402  69.963  1.00  0.00    -0.233 F  
HETATM   12  H   UNL     1      -7.351  11.476  69.393  1.00  0.00     0.000 HD 
HETATM   13  F   UNL     1     -10.248  11.024  66.485  1.00  0.00    -0.236 F  
HETATM   14  C   UNL     1     -11.755  10.665  68.226  1.00  0.00    -0.136 A  
ENDROOT
BRANCH   2  15
HETATM   15  N   UNL     1      -9.663  14.630  67.149  1.00  0.00    -0.230 NA 
HETATM   16  C   UNL     1     -10.261  17.539  66.949  1.00  0.00    -0.329 C  
HETATM   17  C   UNL     1     -10.668  16.754  68.171  1.00  0.00    -0.361 C  
HETATM   18  C   UNL     1     -10.812  18.723  66.636  1.00  0.00    -0.214 C  
HETATM   19  C   UNL     1     -10.769  15.237  67.915  1.00  0.00    -0.275 C  
HETATM   20  C   UNL     1      -9.192  16.903  66.096  1.00  0.00    -0.270 C  
HETATM   21  C   UNL     1      -9.416  15.393  65.923  1.00  0.00    -0.334 C  
ENDBRANCH   2  15
BRANCH   8  22
HETATM   22  N   UNL     1      -7.192  10.517  67.223  1.00  0.00    -0.088 NA 
HETATM   23  C   UNL     1      -5.977   8.947  67.836  1.00  0.00    -0.050 A  
HETATM   24  C   UNL     1      -7.936   9.374  67.231  1.00  0.00    -0.106 A  
HETATM   25  N   UNL     1      -7.186   8.361  67.600  1.00  0.00    -0.087 NA 
HETATM   26  N   UNL     1      -5.933  10.264  67.629  1.00  0.00    -0.052 NA 
ENDBRANCH   8  22
TORSDOF 2
ENDMDL
MODEL      133
REMARK 921   NORMALIZED FREE ENERGY PREDICTED BY IDOCK:   -2.33 KCAL/MOL
REMARK 922        TOTAL FREE ENERGY PREDICTED BY IDOCK:   -3.10 KCAL/MOL
REMARK 923 INTER-LIGAND FREE ENERGY PREDICTED BY IDOCK:   -4.33 KCAL/MOL
REMARK 924 INTRA-LIGAND FREE ENERGY PREDICTED BY IDOCK:    1.23 KCAL/MOL
REMARK 927      BINDING AFFINITY PREDICTED BY RF-SCORE:    0.00 PKD
ROOT
HETATM    1  C   UNL     1      -9.509  11.933  67.393  1.00  0.00    -0.175 C  
HETATM    2  C   UNL     1      -9.305  10.405  67.395  1.00  0.00    -0.145 C  
HETATM    3  C   UNL     1     -10.461   9.643  68.205  1.00  0.00    -0.222 C  
HETATM    4  C   UNL     1     -10.531   6.192  66.504  1.00  0.00    -0.195 A  
HETATM    5  O   UNL     1     -11.702  10.054  67.537  1.00  0.00    -0.341 OA 
HETATM    6  C   UNL     1     -10.093   5.360  67.524  1.00  0.00    -0.180 A  
HETATM    7  C   UNL     1     -10.325   8.127  67.995  1.00  0.00    -0.267 A  
HETATM    8  C   UNL     1     -10.615  10.155  69.666  1.00  0.00    -0.257 C  
HETATM    9  C   UNL     1     -10.646   7.564  66.737  1.00  0.00    -0.269 A  
HETATM   10  C   UNL     1      -9.837   7.252  68.976  1.00  0.00    -0.165 A  
HETATM   11  F   UNL     1      -9.990   4.044  67.302  1.00  0.00    -0.234 F  
HETATM   12  H   UNL     1     -12.387   9.603  68.016  1.00  0.00     0.000 HD 
HETATM   13  F   UNL     1      -9.401   7.714  70.154  1.00  0.00    -0.155 F  
HETATM   14  C   UNL     1      -9.744   5.878  68.759  1.00  0.00    -0.161 A  
ENDROOT
BRANCH   2  15
HETATM   15  N   UNL     1      -7.911   9.943  67.585  1.00  0.00    -0.108 NA 
HETATM   16  C   UNL     1      -6.182  11.128  69.698  1.00  0.00    -0.108 C  
HETATM   17  C   UNL     1      -6.425  11.863  68.404  1.00  0.00    -0.054 C  
HETATM   18  C   UNL     1      -5.151  11.415  70.508  1.00  0.00    -0.096 C  
HETATM   19  C   UNL     1      -6.874  10.939  67.254  1.00  0.00    -0.084 C  
HETATM   20  C   UNL     1      -7.177  10.042  70.024  1.00  0.00    -0.158 C  
HETATM   21  C   UNL     1      -7.535   9.200  68.790  1.00  0.00    -0.076 C  
ENDBRANCH   2  15
BRANCH   8  22
HETATM   22  N   UNL     1     -11.846   9.748  70.326  1.00  0.00    -0.196 NA 
HETATM   23  C   UNL     1     -13.141   8.780  71.631  1.00  0.00    -0.352 A  
HETATM   24  C   UNL     1     -13.065  10.354  70.252  1.00  0.00     0.046 A  
HETATM   25  N   UNL     1     -13.909   9.750  71.057  1.00  0.00    -0.084 NA 
HETATM   26  N   UNL     1     -11.870   8.745  71.223  1.00  0.00    -0.293 NA 
ENDBRANCH   8  22
TORSDOF 2
ENDMDL
MODEL      134
REMARK 921   NORMALIZED FREE ENERGY PREDICTED BY IDOCK:   -2.30 KCAL/MOL
REMARK 922        TOTAL FREE ENERGY PREDICTED BY IDOCK:   -3.07 KCAL/MOL
REMARK 923 INTER-LIGAND FREE ENERGY PREDICTED BY IDOCK:   -2.90 KCAL/MOL
REMARK 924 INTRA-LIGAND FREE ENERGY PREDICTED BY IDOCK:   -0.16 KCAL/MOL
REMARK 927      BINDING AFFINITY PREDICTED BY RF-SCORE:    0.00 PKD
ROOT
HETATM    1  C   UNL     1      -9.024   6.427  66.125  1.00  0.00    -0.162 C  
HETATM    2  C   UNL     1      -8.943   5.602  67.424  1.00  0.00    -0.107 C  
HETATM    3  C   UNL     1      -8.555   6.506  68.691  1.00  0.00    -0.124 C  
HETATM    4  C   UNL     1     -10.158   4.581  71.611  1.00  0.00    -0.249 A  
HETATM    5  O   UNL     1      -9.597   7.539  68.732  1.00  0.00    -0.148 OA 
HETATM    6  C   UNL     1      -9.045   4.159  72.323  1.00  0.00    -0.116 A  
HETATM    7  C   UNL     1      -8.697   5.680  69.978  1.00  0.00    -0.132 A  
HETATM    8  C   UNL     1      -7.229   7.296  68.486  1.00  0.00    -0.094 C  
HETATM    9  C   UNL     1      -9.986   5.334  70.449  1.00  0.00    -0.303 A  
HETATM   10  C   UNL     1      -7.603   5.185  70.704  1.00  0.00    -0.071 A  
HETATM   11  F   UNL     1      -9.210   3.443  73.442  1.00  0.00    -0.097 F  
HETATM   12  H   UNL     1      -9.367   8.074  69.482  1.00  0.00     0.000 HD 
HETATM   13  F   UNL     1      -6.351   5.366  70.267  1.00  0.00    -0.025 F  
HETATM   14  C   UNL     1      -7.767   4.454  71.879  1.00  0.00    -0.084 A  
ENDROOT
BRANCH   2  15
HETATM   15  N   UNL     1      -8.301   4.274  67.303  1.00  0.00    -0.100 NA 
HETATM   16  C   UNL     1      -7.831   3.041  64.635  1.00  0.00    -0.078 C  
HETATM   17  C   UNL     1      -9.203   3.015  65.261  1.00  0.00    -0.146 C  
HETATM   18  C   UNL     1      -7.474   2.205  63.647  1.00  0.00    -0.054 C  
HETATM   19  C   UNL     1      -9.178   3.202  66.791  1.00  0.00    -0.154 C  
HETATM   20  C   UNL     1      -6.880   4.068  65.197  1.00  0.00    -0.053 C  
HETATM   21  C   UNL     1      -6.959   4.149  66.729  1.00  0.00    -0.059 C  
ENDBRANCH   2  15
BRANCH   8  22
HETATM   22  N   UNL     1      -7.008   8.370  69.442  1.00  0.00    -0.049 NA 
HETATM   23  C   UNL     1      -6.159   9.481  70.979  1.00  0.00    -0.080 A  
HETATM   24  C   UNL     1      -7.560   9.618  69.429  1.00  0.00    -0.097 A  
HETATM   25  N   UNL     1      -7.051  10.337  70.402  1.00  0.00    -0.290 NA 
HETATM   26  N   UNL     1      -6.090   8.270  70.421  1.00  0.00    -0.032 NA 
ENDBRANCH   8  22
TORSDOF 2
ENDMDL
MODEL      135
REMARK 921   NORMALIZED FREE ENERGY PREDICTED BY IDOCK:   -1.95 KCAL/MOL
REMARK 922        TOTAL FREE ENERGY PREDICTED BY IDOCK:   -2.68 KCAL/MOL
REMARK 923 INTER-LIGAND FREE ENERGY PREDICTED BY IDOCK:   -2.39 KCAL/MOL
REMARK 924 INTRA-LIGAND FREE ENERGY PREDICTED BY IDOCK:   -0.29 KCAL/MOL
REMARK 927      BINDING AFFINITY PREDICTED BY RF-SCORE:    0.00 PKD
ROOT
HETATM    1  C   UNL     1      -8.480  10.203  67.373  1.00  0.00    -0.122 C  
HETATM    2  C   UNL     1      -8.277   9.293  68.600  1.00  0.00    -0.113 C  
HETATM    3  C   UNL     1      -7.671  10.094  69.852  1.00  0.00    -0.160 C  
HETATM    4  C   UNL     1      -8.986   8.071  72.849  1.00  0.00    -0.304 A  
HETATM    5  O   UNL     1      -8.636  11.174  70.091  1.00  0.00     0.501 OA 
HETATM    6  C   UNL     1      -7.815   7.548  73.379  1.00  0.00    -0.111 A  
HETATM    7  C   UNL     1      -7.690   9.196  71.098  1.00  0.00    -0.116 A  
HETATM    8  C   UNL     1      -6.340  10.826  69.514  1.00  0.00    -0.079 C  
HETATM    9  C   UNL     1      -8.924   8.887  71.718  1.00  0.00    -0.203 A  
HETATM   10  C   UNL     1      -6.542   8.600  71.639  1.00  0.00    -0.074 A  
HETATM   11  F   UNL     1      -7.873   6.771  74.467  1.00  0.00    -0.112 F  
HETATM   12  H   UNL     1      -8.277  11.648  70.832  1.00  0.00     0.000 HD 
HETATM   13  F   UNL     1      -5.350   8.744  71.048  1.00  0.00    -0.028 F  
HETATM   14  C   UNL     1      -6.592   7.805  72.783  1.00  0.00    -0.068 A  
ENDROOT
BRANCH   2  15
HETATM   15  N   UNL     1      -7.736   7.944  68.318  1.00  0.00    -0.119 NA 
HETATM   16  C   UNL     1      -8.134   6.662  65.662  1.00  0.00    -0.125 C  
HETATM   17  C   UNL     1      -9.250   6.687  66.677  1.00  0.00    -0.179 C  
HETATM   18  C   UNL     1      -8.118   5.802  64.631  1.00  0.00    -0.132 C  
HETATM   19  C   UNL     1      -8.754   6.894  68.123  1.00  0.00    -0.126 C  
HETATM   20  C   UNL     1      -7.032   7.667  65.884  1.00  0.00    -0.061 C  
HETATM   21  C   UNL     1      -6.637   7.770  67.365  1.00  0.00    -0.063 C  
ENDBRANCH   2  15
BRANCH   8  22
HETATM   22  N   UNL     1      -5.932  11.825  70.490  1.00  0.00    -0.281 NA 
HETATM   23  C   UNL     1      -5.748  13.651  71.464  1.00  0.00    -0.125 A  
HETATM   24  C   UNL     1      -5.363  11.607  71.710  1.00  0.00     0.259 A  
HETATM   25  N   UNL     1      -5.220  12.749  72.342  1.00  0.00    -0.375 NA 
HETATM   26  N   UNL     1      -6.204  13.132  70.322  1.00  0.00    -0.069 NA 
ENDBRANCH   8  22
TORSDOF 2
ENDMDL
MODEL      136
REMARK 921   NORMALIZED FREE ENERGY PREDICTED BY IDOCK:   -1.89 KCAL/MOL
REMARK 922        TOTAL FREE ENERGY PREDICTED BY IDOCK:   -2.62 KCAL/MOL
REMARK 923 INTER-LIGAND FREE ENERGY PREDICTED BY IDOCK:   -4.81 KCAL/MOL
REMARK 924 INTRA-LIGAND FREE ENERGY PREDICTED BY IDOCK:    2.19 KCAL/MOL
REMARK 927      BINDING AFFINITY PREDICTED BY RF-SCORE:    0.00 PKD
ROOT
HETATM    1  C   UNL     1     -11.447  13.233  70.356  1.00  0.00     0.157 C  
HETATM    2  C   UNL     1     -11.591  13.528  68.850  1.00  0.00    -0.323 C  
HETATM    3  C   UNL     1     -10.608  12.626  67.960  1.00  0.00    -0.221 C  
HETATM    4  C   UNL     1     -12.484  12.406  64.609  1.00  0.00    -0.500 A  
HETATM    5  O   UNL     1     -10.966  11.247  68.311  1.00  0.00    -0.192 OA 
HETATM    6  C   UNL     1     -11.640  13.107  63.760  1.00  0.00    -0.425 A  
HETATM    7  C   UNL     1     -10.943  12.809  66.472  1.00  0.00    -0.291 A  
HETATM    8  C   UNL     1      -9.115  12.762  68.382  1.00  0.00    -0.129 C  
HETATM    9  C   UNL     1     -12.140  12.259  65.953  1.00  0.00    -0.261 A  
HETATM   10  C   UNL     1     -10.151  13.553  65.586  1.00  0.00    -0.278 A  
HETATM   11  F   UNL     1     -11.967  13.242  62.469  1.00  0.00    -0.044 F  
HETATM   12  H   UNL     1     -10.384  10.712  67.784  1.00  0.00     0.000 HD 
HETATM   13  F   UNL     1      -9.064  14.204  66.018  1.00  0.00    -0.209 F  
HETATM   14  C   UNL     1     -10.475  13.683  64.237  1.00  0.00    -0.180 A  
ENDROOT
BRANCH   2  15
HETATM   15  N   UNL     1     -11.734  14.956  68.486  1.00  0.00    -0.316 NA 
HETATM   16  C   UNL     1      -9.528  16.890  68.985  1.00  0.00    -0.199 C  
HETATM   17  C   UNL     1     -10.424  16.441  70.113  1.00  0.00    -0.030 C  
HETATM   18  C   UNL     1      -8.783  18.005  69.057  1.00  0.00    -0.011 C  
HETATM   19  C   UNL     1     -11.780  15.889  69.629  1.00  0.00    -0.317 C  
HETATM   20  C   UNL     1      -9.525  16.003  67.765  1.00  0.00    -0.217 C  
HETATM   21  C   UNL     1     -10.938  15.527  67.397  1.00  0.00    -0.306 C  
ENDBRANCH   2  15
BRANCH   8  22
HETATM   22  N   UNL     1      -8.237  11.732  67.848  1.00  0.00    -0.139 NA 
HETATM   23  C   UNL     1      -7.358   9.876  67.539  1.00  0.00    -0.090 A  
HETATM   24  C   UNL     1      -7.461  11.804  66.729  1.00  0.00    -0.057 A  
HETATM   25  N   UNL     1      -6.879  10.645  66.519  1.00  0.00    -0.115 NA 
HETATM   26  N   UNL     1      -8.198  10.493  68.372  1.00  0.00    -0.116 NA 
ENDBRANCH   8  22
TORSDOF 2
ENDMDL
MODEL      137
REMARK 921   NORMALIZED FREE ENERGY PREDICTED BY IDOCK:   -1.82 KCAL/MOL
REMARK 922        TOTAL FREE ENERGY PREDICTED BY IDOCK:   -2.54 KCAL/MOL
REMARK 923 INTER-LIGAND FREE ENERGY PREDICTED BY IDOCK:   -2.86 KCAL/MOL
REMARK 924 INTRA-LIGAND FREE ENERGY PREDICTED BY IDOCK:    0.32 KCAL/MOL
REMARK 927      BINDING AFFINITY PREDICTED BY RF-SCORE:    0.00 PKD
ROOT
HETATM    1  C   UNL     1      -8.220  15.960  66.190  1.00  0.00     0.037 C  
HETATM    2  C   UNL     1      -8.428  14.788  67.169  1.00  0.00    -0.223 C  
HETATM    3  C   UNL     1      -9.397  13.661  66.564  1.00  0.00    -0.228 C  
HETATM    4  C   UNL     1      -8.208  10.483  68.378  1.00  0.00    -0.121 A  
HETATM    5  O   UNL     1      -8.744  13.255  65.314  1.00  0.00     0.831 OA 
HETATM    6  C   UNL     1      -9.311  10.167  69.157  1.00  0.00    -0.197 A  
HETATM    7  C   UNL     1      -9.397  12.432  67.486  1.00  0.00    -0.181 A  
HETATM    8  C   UNL     1     -10.777  14.226  66.120  1.00  0.00    -0.295 C  
HETATM    9  C   UNL     1      -8.250  11.606  67.550  1.00  0.00    -0.148 A  
HETATM   10  C   UNL     1     -10.465  12.101  68.333  1.00  0.00    -0.231 A  
HETATM   11  F   UNL     1      -9.273   9.086  69.946  1.00  0.00    -0.146 F  
HETATM   12  H   UNL     1      -9.317  12.587  64.957  1.00  0.00     0.000 HD 
HETATM   13  F   UNL     1     -11.541  12.891  68.423  1.00  0.00    -0.285 F  
HETATM   14  C   UNL     1     -10.440  10.968  69.143  1.00  0.00    -0.238 A  
ENDROOT
BRANCH   2  15
HETATM   15  N   UNL     1      -8.608  15.162  68.590  1.00  0.00    -0.163 NA 
HETATM   16  C   UNL     1      -6.290  16.007  70.254  1.00  0.00     0.095 C  
HETATM   17  C   UNL     1      -6.531  14.548  69.958  1.00  0.00    -0.160 C  
HETATM   18  C   UNL     1      -5.516  16.418  71.271  1.00  0.00     0.188 C  
HETATM   19  C   UNL     1      -7.988  14.240  69.560  1.00  0.00     0.321 C  
HETATM   20  C   UNL     1      -6.982  16.979  69.331  1.00  0.00    -0.140 C  
HETATM   21  C   UNL     1      -8.424  16.550  69.020  1.00  0.00    -0.204 C  
ENDBRANCH   2  15
BRANCH   8  22
HETATM   22  N   UNL     1     -11.552  13.335  65.269  1.00  0.00    -0.302 NA 
HETATM   23  C   UNL     1     -13.169  12.294  64.482  1.00  0.00     0.445 A  
HETATM   24  C   UNL     1     -11.177  12.795  64.074  1.00  0.00    -0.413 A  
HETATM   25  N   UNL     1     -12.177  12.117  63.562  1.00  0.00    -0.555 NA 
HETATM   26  N   UNL     1     -12.837  13.039  65.539  1.00  0.00    -0.543 NA 
ENDBRANCH   8  22
TORSDOF 2
ENDMDL
MODEL      138
REMARK 921   NORMALIZED FREE ENERGY PREDICTED BY IDOCK:   -1.66 KCAL/MOL
REMARK 922        TOTAL FREE ENERGY PREDICTED BY IDOCK:   -2.36 KCAL/MOL
REMARK 923 INTER-LIGAND FREE ENERGY PREDICTED BY IDOCK:   -3.19 KCAL/MOL
REMARK 924 INTRA-LIGAND FREE ENERGY PREDICTED BY IDOCK:    0.83 KCAL/MOL
REMARK 927      BINDING AFFINITY PREDICTED BY RF-SCORE:    0.00 PKD
ROOT
HETATM    1  C   UNL     1      -8.775   9.353  67.130  1.00  0.00    -0.134 C  
HETATM    2  C   UNL     1      -8.480  10.861  67.248  1.00  0.00    -0.125 C  
HETATM    3  C   UNL     1      -9.336  11.555  68.414  1.00  0.00    -0.194 C  
HETATM    4  C   UNL     1      -7.108  14.523  69.428  1.00  0.00    -0.140 A  
HETATM    5  O   UNL     1      -8.975  10.804  69.623  1.00  0.00    -0.398 OA 
HETATM    6  C   UNL     1      -7.878  15.608  69.036  1.00  0.00    -0.204 A  
HETATM    7  C   UNL     1      -8.849  12.997  68.624  1.00  0.00     0.060 A  
HETATM    8  C   UNL     1     -10.868  11.329  68.256  1.00  0.00    -0.205 C  
HETATM    9  C   UNL     1      -7.589  13.228  69.224  1.00  0.00     0.347 A  
HETATM   10  C   UNL     1      -9.566  14.124  68.198  1.00  0.00    -0.218 A  
HETATM   11  F   UNL     1      -7.419  16.849  69.238  1.00  0.00    -0.243 F  
HETATM   12  H   UNL     1      -9.481  11.215  70.313  1.00  0.00     0.000 HD 
HETATM   13  F   UNL     1     -10.711  13.994  67.518  1.00  0.00    -0.258 F  
HETATM   14  C   UNL     1      -9.104  15.420  68.421  1.00  0.00    -0.191 A  
ENDROOT
BRANCH   2  15
HETATM   15  N   UNL     1      -8.343  11.591  65.967  1.00  0.00    -0.034 NA 
HETATM   16  C   UNL     1      -9.964  10.828  63.590  1.00  0.00    -0.405 C  
HETATM   17  C   UNL     1      -8.750  10.022  63.982  1.00  0.00    -0.222 C  
HETATM   18  C   UNL     1     -10.501  10.771  62.361  1.00  0.00     0.856 C  
HETATM   19  C   UNL     1      -7.757  10.807  64.863  1.00  0.00     0.175 C  
HETATM   20  C   UNL     1     -10.536  11.708  64.673  1.00  0.00    -0.366 C  
HETATM   21  C   UNL     1      -9.438  12.428  65.470  1.00  0.00     0.020 C  
ENDBRANCH   2  15
BRANCH   8  22
HETATM   22  N   UNL     1     -11.653  11.637  69.442  1.00  0.00    -0.299 NA 
HETATM   23  C   UNL     1     -12.794  12.702  70.813  1.00  0.00    -0.021 A  
HETATM   24  C   UNL     1     -12.196  10.754  70.329  1.00  0.00    -0.348 A  
HETATM   25  N   UNL     1     -12.911  11.404  71.218  1.00  0.00    -0.368 NA 
HETATM   26  N   UNL     1     -12.042  12.893  69.727  1.00  0.00    -0.280 NA 
ENDBRANCH   8  22
TORSDOF 2
ENDMDL
MODEL      139
REMARK 921   NORMALIZED FREE ENERGY PREDICTED BY IDOCK:   -1.47 KCAL/MOL
REMARK 922        TOTAL FREE ENERGY PREDICTED BY IDOCK:   -2.15 KCAL/MOL
REMARK 923 INTER-LIGAND FREE ENERGY PREDICTED BY IDOCK:   -2.00 KCAL/MOL
REMARK 924 INTRA-LIGAND FREE ENERGY PREDICTED BY IDOCK:   -0.15 KCAL/MOL
REMARK 927      BINDING AFFINITY PREDICTED BY RF-SCORE:    0.00 PKD
ROOT
HETATM    1  C   UNL     1      -6.538   3.817  65.875  1.00  0.00    -0.041 C  
HETATM    2  C   UNL     1      -7.215   5.115  66.357  1.00  0.00    -0.077 C  
HETATM    3  C   UNL     1      -6.919   5.411  67.906  1.00  0.00    -0.065 C  
HETATM    4  C   UNL     1      -7.199   9.244  68.088  1.00  0.00    -0.078 A  
HETATM    5  O   UNL     1      -5.455   5.462  67.992  1.00  0.00    -0.010 OA 
HETATM    6  C   UNL     1      -8.321   9.413  68.886  1.00  0.00    -0.120 A  
HETATM    7  C   UNL     1      -7.435   6.811  68.272  1.00  0.00    -0.099 A  
HETATM    8  C   UNL     1      -7.325   4.231  68.835  1.00  0.00    -0.055 C  
HETATM    9  C   UNL     1      -6.760   7.955  67.783  1.00  0.00    -0.068 A  
HETATM   10  C   UNL     1      -8.595   7.035  69.029  1.00  0.00    -0.129 A  
HETATM   11  F   UNL     1      -8.738  10.650  69.183  1.00  0.00    -0.147 F  
HETATM   12  H   UNL     1      -5.280   5.638  68.909  1.00  0.00     0.000 HD 
HETATM   13  F   UNL     1      -9.359   6.013  69.432  1.00  0.00    -0.129 F  
HETATM   14  C   UNL     1      -9.025   8.319  69.358  1.00  0.00    -0.147 A  
ENDROOT
BRANCH   2  15
HETATM   15  N   UNL     1      -8.591   5.345  65.862  1.00  0.00    -0.126 NA 
HETATM   16  C   UNL     1      -9.559   4.031  63.373  1.00  0.00    -0.149 C  
HETATM   17  C   UNL     1      -8.660   5.241  63.302  1.00  0.00    -0.050 C  
HETATM   18  C   UNL     1     -10.312   3.631  62.336  1.00  0.00    -0.166 C  
HETATM   19  C   UNL     1      -8.679   6.088  64.590  1.00  0.00     0.171 C  
HETATM   20  C   UNL     1      -9.557   3.297  64.691  1.00  0.00    -0.156 C  
HETATM   21  C   UNL     1      -9.577   4.262  65.886  1.00  0.00    -0.191 C  
ENDBRANCH   2  15
BRANCH   8  22
HETATM   22  N   UNL     1      -6.780   4.302  70.182  1.00  0.00    -0.033 NA 
HETATM   23  C   UNL     1      -6.666   4.593  72.236  1.00  0.00    -0.050 A  
HETATM   24  C   UNL     1      -5.596   3.790  70.625  1.00  0.00    -0.013 A  
HETATM   25  N   UNL     1      -5.491   3.975  71.921  1.00  0.00     0.000 NA 
HETATM   26  N   UNL     1      -7.490   4.806  71.208  1.00  0.00    -0.074 NA 
ENDBRANCH   8  22
TORSDOF 2
ENDMDL
MODEL      140
REMARK 921   NORMALIZED FREE ENERGY PREDICTED BY IDOCK:   -1.44 KCAL/MOL
REMARK 922        TOTAL FREE ENERGY PREDICTED BY IDOCK:   -2.12 KCAL/MOL
REMARK 923 INTER-LIGAND FREE ENERGY PREDICTED BY IDOCK:   -2.73 KCAL/MOL
REMARK 924 INTRA-LIGAND FREE ENERGY PREDICTED BY IDOCK:    0.61 KCAL/MOL
REMARK 927      BINDING AFFINITY PREDICTED BY RF-SCORE:    0.00 PKD
ROOT
HETATM    1  C   UNL     1     -11.973   8.911  72.383  1.00  0.00    -0.320 C  
HETATM    2  C   UNL     1     -11.635   8.528  70.929  1.00  0.00    -0.263 C  
HETATM    3  C   UNL     1     -10.203   7.815  70.809  1.00  0.00    -0.197 C  
HETATM    4  C   UNL     1     -10.626   5.624  67.675  1.00  0.00    -0.279 A  
HETATM    5  O   UNL     1     -10.303   6.652  71.699  1.00  0.00    -0.203 OA 
HETATM    6  C   UNL     1      -9.739   6.216  66.788  1.00  0.00    -0.158 A  
HETATM    7  C   UNL     1     -10.015   7.271  69.384  1.00  0.00    -0.170 A  
HETATM    8  C   UNL     1      -9.049   8.670  71.409  1.00  0.00    -0.229 C  
HETATM    9  C   UNL     1     -10.763   6.146  68.962  1.00  0.00    -0.377 A  
HETATM   10  C   UNL     1      -9.172   7.866  68.434  1.00  0.00    -0.134 A  
HETATM   11  F   UNL     1      -9.602   5.711  65.556  1.00  0.00    -0.126 F  
HETATM   12  H   UNL     1      -9.455   6.230  71.627  1.00  0.00     0.000 HD 
HETATM   13  F   UNL     1      -8.517   8.999  68.712  1.00  0.00    -0.122 F  
HETATM   14  C   UNL     1      -9.011   7.335  67.156  1.00  0.00    -0.132 A  
ENDROOT
BRANCH   2  15
HETATM   15  N   UNL     1     -11.993   9.532  69.901  1.00  0.00     0.159 NA 
HETATM   16  C   UNL     1     -11.924  12.443  70.516  1.00  0.00    -0.284 C  
HETATM   17  C   UNL     1     -13.077  11.588  70.982  1.00  0.00    -0.102 C  
HETATM   18  C   UNL     1     -12.007  13.780  70.432  1.00  0.00    -0.385 C  
HETATM   19  C   UNL     1     -13.233  10.285  70.171  1.00  0.00     0.306 C  
HETATM   20  C   UNL     1     -10.667  11.695  70.148  1.00  0.00     0.831 C  
HETATM   21  C   UNL     1     -10.971  10.421  69.345  1.00  0.00    -0.251 C  
ENDBRANCH   2  15
BRANCH   8  22
HETATM   22  N   UNL     1      -7.808   7.944  71.632  1.00  0.00    -0.087 NA 
HETATM   23  C   UNL     1      -5.823   7.358  71.452  1.00  0.00    -0.036 A  
HETATM   24  C   UNL     1      -7.506   7.119  72.675  1.00  0.00    -0.083 A  
HETATM   25  N   UNL     1      -6.259   6.720  72.577  1.00  0.00    -0.049 NA 
HETATM   26  N   UNL     1      -6.731   8.125  70.845  1.00  0.00    -0.037 NA 
ENDBRANCH   8  22
TORSDOF 2
ENDMDL
MODEL      141
REMARK 921   NORMALIZED FREE ENERGY PREDICTED BY IDOCK:   -1.23 KCAL/MOL
REMARK 922        TOTAL FREE ENERGY PREDICTED BY IDOCK:   -1.88 KCAL/MOL
REMARK 923 INTER-LIGAND FREE ENERGY PREDICTED BY IDOCK:   -3.20 KCAL/MOL
REMARK 924 INTRA-LIGAND FREE ENERGY PREDICTED BY IDOCK:    1.32 KCAL/MOL
REMARK 927      BINDING AFFINITY PREDICTED BY RF-SCORE:    0.00 PKD
ROOT
HETATM    1  C   UNL     1      -9.988  14.553  70.275  1.00  0.00     0.857 C  
HETATM    2  C   UNL     1      -9.698  15.794  69.409  1.00  0.00    -0.286 C  
HETATM    3  C   UNL     1     -10.617  15.842  68.095  1.00  0.00    -0.280 C  
HETATM    4  C   UNL     1     -10.828  19.614  67.364  1.00  0.00    -0.497 A  
HETATM    5  O   UNL     1     -11.990  15.813  68.612  1.00  0.00    -0.505 OA 
HETATM    6  C   UNL     1     -10.142  19.712  66.162  1.00  0.00    -0.480 A  
HETATM    7  C   UNL     1     -10.437  17.194  67.387  1.00  0.00    -0.334 A  
HETATM    8  C   UNL     1     -10.498  14.556  67.227  1.00  0.00    -0.266 C  
HETATM    9  C   UNL     1     -10.974  18.366  67.972  1.00  0.00    -0.003 A  
HETATM   10  C   UNL     1      -9.707  17.354  66.200  1.00  0.00    -0.217 A  
HETATM   11  F   UNL     1     -10.009  20.909  65.576  1.00  0.00    -0.066 F  
HETATM   12  H   UNL     1     -12.534  15.841  67.834  1.00  0.00     0.000 HD 
HETATM   13  F   UNL     1      -9.068  16.320  65.642  1.00  0.00    -0.330 F  
HETATM   14  C   UNL     1      -9.579  18.593  65.575  1.00  0.00     0.853 A  
ENDROOT
BRANCH   2  15
HETATM   15  N   UNL     1      -8.270  16.158  69.265  1.00  0.00    -0.227 NA 
HETATM   16  C   UNL     1      -6.269  14.159  68.336  1.00  0.00    -0.103 C  
HETATM   17  C   UNL     1      -6.768  14.141  69.760  1.00  0.00    -0.065 C  
HETATM   18  C   UNL     1      -5.131  13.553  67.964  1.00  0.00    -0.107 C  
HETATM   19  C   UNL     1      -7.358  15.491  70.215  1.00  0.00     0.478 C  
HETATM   20  C   UNL     1      -7.135  14.908  67.355  1.00  0.00    -0.194 C  
HETATM   21  C   UNL     1      -7.654  16.231  67.938  1.00  0.00    -0.137 C  
ENDBRANCH   2  15
BRANCH   8  22
HETATM   22  N   UNL     1     -11.541  14.401  66.225  1.00  0.00    -0.363 NA 
HETATM   23  C   UNL     1     -13.402  14.036  65.375  1.00  0.00     0.282 A  
HETATM   24  C   UNL     1     -11.509  14.810  64.924  1.00  0.00    -0.412 A  
HETATM   25  N   UNL     1     -12.670  14.576  64.358  1.00  0.00    -0.608 NA 
HETATM   26  N   UNL     1     -12.758  13.918  66.538  1.00  0.00    -0.193 NA 
ENDBRANCH   8  22
TORSDOF 2
ENDMDL
MODEL      142
REMARK 921   NORMALIZED FREE ENERGY PREDICTED BY IDOCK:   -0.91 KCAL/MOL
REMARK 922        TOTAL FREE ENERGY PREDICTED BY IDOCK:   -1.52 KCAL/MOL
REMARK 923 INTER-LIGAND FREE ENERGY PREDICTED BY IDOCK:   -2.58 KCAL/MOL
REMARK 924 INTRA-LIGAND FREE ENERGY PREDICTED BY IDOCK:    1.06 KCAL/MOL
REMARK 927      BINDING AFFINITY PREDICTED BY RF-SCORE:    0.00 PKD
ROOT
HETATM    1  C   UNL     1     -11.188  12.343  64.168  1.00  0.00    -0.434 C  
HETATM    2  C   UNL     1     -10.637  13.137  65.369  1.00  0.00    -0.299 C  
HETATM    3  C   UNL     1      -9.975  12.180  66.473  1.00  0.00    -0.213 C  
HETATM    4  C   UNL     1      -7.386  14.493  68.132  1.00  0.00    -0.129 A  
HETATM    5  O   UNL     1      -8.932  11.452  65.741  1.00  0.00    -0.245 OA 
HETATM    6  C   UNL     1      -7.897  14.623  69.415  1.00  0.00    -0.028 A  
HETATM    7  C   UNL     1      -9.262  13.033  67.534  1.00  0.00    -0.195 A  
HETATM    8  C   UNL     1     -10.947  11.074  66.976  1.00  0.00    -0.272 C  
HETATM    9  C   UNL     1      -8.062  13.705  67.199  1.00  0.00    -0.094 A  
HETATM   10  C   UNL     1      -9.765  13.239  68.826  1.00  0.00     0.033 A  
HETATM   11  F   UNL     1      -7.244  15.373  70.311  1.00  0.00    -0.092 F  
HETATM   12  H   UNL     1      -8.540  10.885  66.395  1.00  0.00     0.000 HD 
HETATM   13  F   UNL     1     -10.951  12.736  69.190  1.00  0.00    -0.258 F  
HETATM   14  C   UNL     1      -9.083  14.003  69.771  1.00  0.00     1.259 A  
ENDROOT
BRANCH   2  15
HETATM   15  N   UNL     1     -11.486  14.254  65.844  1.00  0.00    -0.329 NA 
HETATM   16  C   UNL     1     -10.752  17.081  65.274  1.00  0.00    -0.108 C  
HETATM   17  C   UNL     1     -10.058  16.315  66.372  1.00  0.00    -0.318 C  
HETATM   18  C   UNL     1     -10.741  18.423  65.213  1.00  0.00     0.467 C  
HETATM   19  C   UNL     1     -10.871  15.107  66.879  1.00  0.00    -0.317 C  
HETATM   20  C   UNL     1     -11.466  16.240  64.246  1.00  0.00    -0.007 C  
HETATM   21  C   UNL     1     -12.234  15.075  64.889  1.00  0.00    -0.148 C  
ENDBRANCH   2  15
BRANCH   8  22
HETATM   22  N   UNL     1     -10.308   9.991  67.709  1.00  0.00    -0.200 NA 
HETATM   23  C   UNL     1      -9.017   8.429  68.163  1.00  0.00    -0.139 A  
HETATM   24  C   UNL     1     -10.421   9.712  69.039  1.00  0.00    -0.213 A  
HETATM   25  N   UNL     1      -9.626   8.715  69.350  1.00  0.00    -0.165 NA 
HETATM   26  N   UNL     1      -9.395   9.189  67.133  1.00  0.00    -0.140 NA 
ENDBRANCH   8  22
TORSDOF 2
ENDMDL
MODEL      143
REMARK 921   NORMALIZED FREE ENERGY PREDICTED BY IDOCK:   -0.38 KCAL/MOL
REMARK 922        TOTAL FREE ENERGY PREDICTED BY IDOCK:   -0.93 KCAL/MOL
REMARK 923 INTER-LIGAND FREE ENERGY PREDICTED BY IDOCK:   -3.09 KCAL/MOL
REMARK 924 INTRA-LIGAND FREE ENERGY PREDICTED BY IDOCK:    2.16 KCAL/MOL
REMARK 927      BINDING AFFINITY PREDICTED BY RF-SCORE:    0.00 PKD
ROOT
HETATM    1  C   UNL     1     -11.487  12.013  68.092  1.00  0.00    -0.383 C  
HETATM    2  C   UNL     1     -10.373  13.078  68.091  1.00  0.00    -0.240 C  
HETATM    3  C   UNL     1     -10.541  14.130  69.291  1.00  0.00    -0.104 C  
HETATM    4  C   UNL     1      -6.920  15.274  69.908  1.00  0.00    -0.121 A  
HETATM    5  O   UNL     1     -10.540  13.300  70.502  1.00  0.00     1.112 OA 
HETATM    6  C   UNL     1      -6.972  16.608  69.527  1.00  0.00    -0.111 A  
HETATM    7  C   UNL     1      -9.299  15.030  69.367  1.00  0.00    -0.120 A  
HETATM    8  C   UNL     1     -11.934  14.826  69.294  1.00  0.00    -0.294 C  
HETATM    9  C   UNL     1      -8.074  14.492  69.828  1.00  0.00     0.385 A  
HETATM   10  C   UNL     1      -9.285  16.367  68.944  1.00  0.00    -0.259 A  
HETATM   11  F   UNL     1      -5.867  17.359  69.610  1.00  0.00    -0.189 F  
HETATM   12  H   UNL     1     -10.640  13.923  71.212  1.00  0.00     0.000 HD 
HETATM   13  F   UNL     1     -10.368  16.922  68.387  1.00  0.00    -0.267 F  
HETATM   14  C   UNL     1      -8.145  17.161  69.044  1.00  0.00    -0.119 A  
ENDROOT
BRANCH   2  15
HETATM   15  N   UNL     1      -9.989  13.605  66.762  1.00  0.00    -0.263 NA 
HETATM   16  C   UNL     1     -12.025  14.776  64.934  1.00  0.00    -0.359 C  
HETATM   17  C   UNL     1     -11.891  13.280  65.075  1.00  0.00    -0.384 C  
HETATM   18  C   UNL     1     -12.639  15.348  63.886  1.00  0.00     0.537 C  
HETATM   19  C   UNL     1     -10.514  12.841  65.613  1.00  0.00    -0.278 C  
HETATM   20  C   UNL     1     -11.421  15.590  66.050  1.00  0.00     0.090 C  
HETATM   21  C   UNL     1     -10.054  15.042  66.487  1.00  0.00    -0.276 C  
ENDBRANCH   2  15
BRANCH   8  22
HETATM   22  N   UNL     1     -12.262  15.521  70.529  1.00  0.00    -0.379 NA 
HETATM   23  C   UNL     1     -13.340  16.178  72.180  1.00  0.00     0.137 A  
HETATM   24  C   UNL     1     -11.399  16.126  71.395  1.00  0.00    -0.258 A  
HETATM   25  N   UNL     1     -12.058  16.566  72.442  1.00  0.00    -0.397 NA 
HETATM   26  N   UNL     1     -13.513  15.528  71.027  1.00  0.00    -0.549 NA 
ENDBRANCH   8  22
TORSDOF 2
ENDMDL
MODEL      144
REMARK 921   NORMALIZED FREE ENERGY PREDICTED BY IDOCK:   -0.28 KCAL/MOL
REMARK 922        TOTAL FREE ENERGY PREDICTED BY IDOCK:   -0.81 KCAL/MOL
REMARK 923 INTER-LIGAND FREE ENERGY PREDICTED BY IDOCK:   -1.07 KCAL/MOL
REMARK 924 INTRA-LIGAND FREE ENERGY PREDICTED BY IDOCK:    0.25 KCAL/MOL
REMARK 927      BINDING AFFINITY PREDICTED BY RF-SCORE:    0.00 PKD
ROOT
HETATM    1  C   UNL     1      -5.127   8.860  66.468  1.00  0.00    -0.034 C  
HETATM    2  C   UNL     1      -6.530   8.999  67.092  1.00  0.00    -0.061 C  
HETATM    3  C   UNL     1      -7.404   7.666  66.914  1.00  0.00    -0.090 C  
HETATM    4  C   UNL     1      -9.794   7.831  69.926  1.00  0.00    -0.177 A  
HETATM    5  O   UNL     1      -6.596   6.616  67.547  1.00  0.00    -0.052 OA 
HETATM    6  C   UNL     1     -11.023   8.005  69.307  1.00  0.00     0.039 A  
HETATM    7  C   UNL     1      -8.699   7.785  67.733  1.00  0.00    -0.123 A  
HETATM    8  C   UNL     1      -7.532   7.220  65.429  1.00  0.00    -0.087 C  
HETATM    9  C   UNL     1      -8.641   7.722  69.145  1.00  0.00    -0.138 A  
HETATM   10  C   UNL     1      -9.958   8.015  67.159  1.00  0.00    -0.235 A  
HETATM   11  F   UNL     1     -12.129   8.103  70.056  1.00  0.00     0.138 F  
HETATM   12  H   UNL     1      -7.114   5.827  67.442  1.00  0.00     0.000 HD 
HETATM   13  F   UNL     1     -10.088   8.203  65.840  1.00  0.00    -0.174 F  
HETATM   14  C   UNL     1     -11.116   8.099  67.929  1.00  0.00     0.303 A  
ENDROOT
BRANCH   2  15
HETATM   15  N   UNL     1      -7.203  10.299  66.876  1.00  0.00    -0.091 NA 
HETATM   16  C   UNL     1      -5.977  12.836  67.834  1.00  0.00    -0.118 C  
HETATM   17  C   UNL     1      -6.689  11.917  68.796  1.00  0.00    -0.088 C  
HETATM   18  C   UNL     1      -5.740  14.127  68.114  1.00  0.00    -0.128 C  
HETATM   19  C   UNL     1      -7.684  10.964  68.102  1.00  0.00    -0.103 C  
HETATM   20  C   UNL     1      -5.549  12.207  66.532  1.00  0.00     0.458 C  
HETATM   21  C   UNL     1      -6.633  11.285  65.954  1.00  0.00     0.201 C  
ENDBRANCH   2  15
BRANCH   8  22
HETATM   22  N   UNL     1      -8.015   5.860  65.242  1.00  0.00    -0.108 NA 
HETATM   23  C   UNL     1      -8.799   4.169  64.325  1.00  0.00    -0.139 A  
HETATM   24  C   UNL     1      -7.837   4.796  66.076  1.00  0.00    -0.095 A  
HETATM   25  N   UNL     1      -8.340   3.714  65.526  1.00  0.00    -0.104 NA 
HETATM   26  N   UNL     1      -8.616   5.472  64.102  1.00  0.00    -0.056 NA 
ENDBRANCH   8  22
TORSDOF 2
ENDMDL
MODEL      145
REMARK 921   NORMALIZED FREE ENERGY PREDICTED BY IDOCK:    0.18 KCAL/MOL
REMARK 922        TOTAL FREE ENERGY PREDICTED BY IDOCK:   -0.30 KCAL/MOL
REMARK 923 INTER-LIGAND FREE ENERGY PREDICTED BY IDOCK:   -2.04 KCAL/MOL
REMARK 924 INTRA-LIGAND FREE ENERGY PREDICTED BY IDOCK:    1.73 KCAL/MOL
REMARK 927      BINDING AFFINITY PREDICTED BY RF-SCORE:    0.00 PKD
ROOT
HETATM    1  C   UNL     1     -12.882  13.155  67.392  1.00  0.00     1.590 C  
HETATM    2  C   UNL     1     -11.385  13.381  67.684  1.00  0.00    -0.290 C  
HETATM    3  C   UNL     1     -10.463  13.029  66.420  1.00  0.00    -0.276 C  
HETATM    4  C   UNL     1      -7.401  15.294  66.967  1.00  0.00    -0.072 A  
HETATM    5  O   UNL     1     -10.974  13.891  65.348  1.00  0.00    -0.300 OA 
HETATM    6  C   UNL     1      -6.396  14.366  67.204  1.00  0.00     0.702 A  
HETATM    7  C   UNL     1      -9.017  13.471  66.696  1.00  0.00    -0.133 A  
HETATM    8  C   UNL     1     -10.683  11.580  65.896  1.00  0.00    -0.272 C  
HETATM    9  C   UNL     1      -8.700  14.850  66.716  1.00  0.00    -0.278 A  
HETATM   10  C   UNL     1      -7.979  12.577  66.994  1.00  0.00    -0.085 A  
HETATM   11  F   UNL     1      -5.149  14.792  67.439  1.00  0.00    -0.018 F  
HETATM   12  H   UNL     1     -10.427  13.682  64.599  1.00  0.00     0.000 HD 
HETATM   13  F   UNL     1      -8.215  11.265  67.111  1.00  0.00    -0.128 F  
HETATM   14  C   UNL     1      -6.674  13.010  67.221  1.00  0.00    -0.020 A  
ENDROOT
BRANCH   2  15
HETATM   15  N   UNL     1     -10.919  12.946  69.020  1.00  0.00    -0.230 NA 
HETATM   16  C   UNL     1     -11.515  10.211  70.032  1.00  0.00    -0.344 C  
HETATM   17  C   UNL     1     -12.572  11.287  70.060  1.00  0.00    -0.169 C  
HETATM   18  C   UNL     1     -11.590   9.106  70.791  1.00  0.00    -0.329 C  
HETATM   19  C   UNL     1     -11.990  12.714  70.009  1.00  0.00    -0.306 C  
HETATM   20  C   UNL     1     -10.360  10.460  69.094  1.00  0.00    -0.241 C  
HETATM   21  C   UNL     1      -9.882  11.919  69.145  1.00  0.00     0.272 C  
ENDBRANCH   2  15
BRANCH   8  22
HETATM   22  N   UNL     1     -10.136  11.323  64.572  1.00  0.00    -0.272 NA 
HETATM   23  C   UNL     1      -9.304  10.312  62.960  1.00  0.00    -0.310 A  
HETATM   24  C   UNL     1     -10.220  12.124  63.471  1.00  0.00    -0.424 A  
HETATM   25  N   UNL     1      -9.685  11.514  62.439  1.00  0.00     0.200 NA 
HETATM   26  N   UNL     1      -9.567  10.145  64.257  1.00  0.00    -0.304 NA 
ENDBRANCH   8  22
TORSDOF 2
ENDMDL
MODEL      146
REMARK 921   NORMALIZED FREE ENERGY PREDICTED BY IDOCK:    0.39 KCAL/MOL
REMARK 922        TOTAL FREE ENERGY PREDICTED BY IDOCK:   -0.07 KCAL/MOL
REMARK 923 INTER-LIGAND FREE ENERGY PREDICTED BY IDOCK:   -2.38 KCAL/MOL
REMARK 924 INTRA-LIGAND FREE ENERGY PREDICTED BY IDOCK:    2.31 KCAL/MOL
REMARK 927      BINDING AFFINITY PREDICTED BY RF-SCORE:    0.00 PKD
ROOT
HETATM    1  C   UNL     1     -11.773   9.571  69.238  1.00  0.00     0.415 C  
HETATM    2  C   UNL     1     -11.023   9.897  67.931  1.00  0.00    -0.223 C  
HETATM    3  C   UNL     1      -9.496   9.407  67.972  1.00  0.00    -0.133 C  
HETATM    4  C   UNL     1      -8.713   8.811  64.252  1.00  0.00    -0.038 A  
HETATM    5  O   UNL     1      -9.586   7.966  68.237  1.00  0.00    -0.152 OA 
HETATM    6  C   UNL     1      -7.766   9.793  63.997  1.00  0.00    -0.134 A  
HETATM    7  C   UNL     1      -8.865   9.565  66.580  1.00  0.00    -0.150 A  
HETATM    8  C   UNL     1      -8.709   9.981  69.187  1.00  0.00    -0.167 C  
HETATM    9  C   UNL     1      -9.258   8.698  65.533  1.00  0.00    -0.158 A  
HETATM   10  C   UNL     1      -7.946  10.574  66.258  1.00  0.00    -0.144 A  
HETATM   11  F   UNL     1      -7.239   9.897  62.771  1.00  0.00    -0.107 F  
HETATM   12  H   UNL     1      -8.681   7.676  68.262  1.00  0.00     0.000 HD 
HETATM   13  F   UNL     1      -7.607  11.506  67.156  1.00  0.00    -0.116 F  
HETATM   14  C   UNL     1      -7.378  10.677  64.990  1.00  0.00     0.085 A  
ENDROOT
BRANCH   2  15
HETATM   15  N   UNL     1     -11.305  11.227  67.343  1.00  0.00    -0.436 NA 
HETATM   16  C   UNL     1     -10.640  13.724  68.820  1.00  0.00    -0.253 C  
HETATM   17  C   UNL     1     -11.870  12.926  69.176  1.00  0.00    -0.353 C  
HETATM   18  C   UNL     1     -10.488  15.010  69.174  1.00  0.00    -0.247 C  
HETATM   19  C   UNL     1     -12.350  12.005  68.036  1.00  0.00     0.659 C  
HETATM   20  C   UNL     1      -9.589  12.980  68.035  1.00  0.00    -0.224 C  
HETATM   21  C   UNL     1     -10.205  12.104  66.934  1.00  0.00    -0.208 C  
ENDBRANCH   2  15
BRANCH   8  22
HETATM   22  N   UNL     1      -7.445   9.315  69.460  1.00  0.00    -0.075 NA 
HETATM   23  C   UNL     1      -5.666   8.287  69.153  1.00  0.00    -0.034 A  
HETATM   24  C   UNL     1      -6.710   9.372  70.608  1.00  0.00    -0.097 A  
HETATM   25  N   UNL     1      -5.585   8.714  70.446  1.00  0.00    -0.027 NA 
HETATM   26  N   UNL     1      -6.780   8.637  68.507  1.00  0.00    -0.059 NA 
ENDBRANCH   8  22
TORSDOF 2
ENDMDL
MODEL      147
REMARK 921   NORMALIZED FREE ENERGY PREDICTED BY IDOCK:    0.69 KCAL/MOL
REMARK 922        TOTAL FREE ENERGY PREDICTED BY IDOCK:    0.27 KCAL/MOL
REMARK 923 INTER-LIGAND FREE ENERGY PREDICTED BY IDOCK:   -0.34 KCAL/MOL
REMARK 924 INTRA-LIGAND FREE ENERGY PREDICTED BY IDOCK:    0.61 KCAL/MOL
REMARK 927      BINDING AFFINITY PREDICTED BY RF-SCORE:    0.00 PKD
ROOT
HETATM    1  C   UNL     1      -5.542  13.689  69.125  1.00  0.00    -0.075 C  
HETATM    2  C   UNL     1      -7.024  14.110  69.143  1.00  0.00    -0.111 C  
HETATM    3  C   UNL     1      -7.973  13.008  68.465  1.00  0.00    -0.090 C  
HETATM    4  C   UNL     1     -11.330  13.588  70.255  1.00  0.00     0.131 A  
HETATM    5  O   UNL     1      -7.715  11.786  69.235  1.00  0.00    -0.341 OA 
HETATM    6  C   UNL     1     -12.131  14.049  69.220  1.00  0.00    -0.338 A  
HETATM    7  C   UNL     1      -9.445  13.380  68.701  1.00  0.00    -0.039 A  
HETATM    8  C   UNL     1      -7.545  12.654  67.011  1.00  0.00     0.013 C  
HETATM    9  C   UNL     1      -9.999  13.256  69.998  1.00  0.00     2.248 A  
HETATM   10  C   UNL     1     -10.281  13.900  67.702  1.00  0.00    -0.242 A  
HETATM   11  F   UNL     1     -13.410  14.360  69.466  1.00  0.00     0.294 F  
HETATM   12  H   UNL     1      -8.277  11.134  68.833  1.00  0.00     0.000 HD 
HETATM   13  F   UNL     1      -9.808  14.159  66.477  1.00  0.00    -0.252 F  
HETATM   14  C   UNL     1     -11.617  14.210  67.945  1.00  0.00    -0.370 A  
ENDROOT
BRANCH   2  15
HETATM   15  N   UNL     1      -7.292  15.533  68.836  1.00  0.00    -0.138 NA 
HETATM   16  C   UNL     1      -5.748  16.960  66.730  1.00  0.00    -0.177 C  
HETATM   17  C   UNL     1      -5.145  16.718  68.092  1.00  0.00    -0.116 C  
HETATM   18  C   UNL     1      -5.274  17.893  65.888  1.00  0.00    -0.235 C  
HETATM   19  C   UNL     1      -6.200  16.462  69.187  1.00  0.00    -0.169 C  
HETATM   20  C   UNL     1      -6.923  16.084  66.375  1.00  0.00     0.671 C  
HETATM   21  C   UNL     1      -7.892  15.915  67.556  1.00  0.00    -0.153 C  
ENDBRANCH   2  15
BRANCH   8  22
HETATM   22  N   UNL     1      -8.148  11.441  66.480  1.00  0.00    -0.162 NA 
HETATM   23  C   UNL     1      -8.533   9.426  66.155  1.00  0.00    -0.120 A  
HETATM   24  C   UNL     1      -9.317  11.332  65.787  1.00  0.00    -0.223 A  
HETATM   25  N   UNL     1      -9.576  10.066  65.553  1.00  0.00    -0.244 NA 
HETATM   26  N   UNL     1      -7.638  10.223  66.742  1.00  0.00    -0.104 NA 
ENDBRANCH   8  22
TORSDOF 2
ENDMDL
MODEL      148
REMARK 921   NORMALIZED FREE ENERGY PREDICTED BY IDOCK:    0.85 KCAL/MOL
REMARK 922        TOTAL FREE ENERGY PREDICTED BY IDOCK:    0.45 KCAL/MOL
REMARK 923 INTER-LIGAND FREE ENERGY PREDICTED BY IDOCK:    0.12 KCAL/MOL
REMARK 924 INTRA-LIGAND FREE ENERGY PREDICTED BY IDOCK:    0.33 KCAL/MOL
REMARK 927      BINDING AFFINITY PREDICTED BY RF-SCORE:    0.00 PKD
ROOT
HETATM    1  C   UNL     1     -11.569  11.524  67.006  1.00  0.00    -0.203 C  
HETATM    2  C   UNL     1     -10.482  12.082  67.946  1.00  0.00    -0.202 C  
HETATM    3  C   UNL     1      -9.004  11.691  67.458  1.00  0.00    -0.165 C  
HETATM    4  C   UNL     1      -6.874  14.562  68.880  1.00  0.00    -0.099 A  
HETATM    5  O   UNL     1      -8.918  12.232  66.097  1.00  0.00    -0.389 OA 
HETATM    6  C   UNL     1      -6.093  13.903  69.818  1.00  0.00    -0.129 A  
HETATM    7  C   UNL     1      -7.966  12.445  68.303  1.00  0.00    -0.160 A  
HETATM    8  C   UNL     1      -8.811  10.157  67.283  1.00  0.00    -0.132 C  
HETATM    9  C   UNL     1      -7.802  13.840  68.129  1.00  0.00    -0.149 A  
HETATM   10  C   UNL     1      -7.191  11.835  69.301  1.00  0.00     0.009 A  
HETATM   11  F   UNL     1      -5.197  14.595  70.534  1.00  0.00    -0.100 F  
HETATM   12  H   UNL     1      -8.043  12.001  65.808  1.00  0.00     0.000 HD 
HETATM   13  F   UNL     1      -7.364  10.545  69.612  1.00  0.00    -0.102 F  
HETATM   14  C   UNL     1      -6.244  12.545  70.037  1.00  0.00    -0.066 A  
ENDROOT
BRANCH   2  15
HETATM   15  N   UNL     1     -10.777  11.992  69.394  1.00  0.00    -0.015 NA 
HETATM   16  C   UNL     1     -12.756  13.813  70.668  1.00  0.00    -0.330 C  
HETATM   17  C   UNL     1     -11.365  14.298  70.343  1.00  0.00    -0.096 C  
HETATM   18  C   UNL     1     -13.549  14.438  71.553  1.00  0.00    -0.445 C  
HETATM   19  C   UNL     1     -10.341  13.155  70.191  1.00  0.00     2.079 C  
HETATM   20  C   UNL     1     -13.199  12.573  69.933  1.00  0.00     1.508 C  
HETATM   21  C   UNL     1     -12.084  11.520  69.857  1.00  0.00    -0.316 C  
ENDBRANCH   2  15
BRANCH   8  22
HETATM   22  N   UNL     1      -7.625   9.776  66.533  1.00  0.00    -0.098 NA 
HETATM   23  C   UNL     1      -5.658   9.255  66.110  1.00  0.00    -0.048 A  
HETATM   24  C   UNL     1      -7.568   9.308  65.253  1.00  0.00    -0.099 A  
HETATM   25  N   UNL     1      -6.331   8.986  64.954  1.00  0.00    -0.065 NA 
HETATM   26  N   UNL     1      -6.408   9.730  67.107  1.00  0.00    -0.067 NA 
ENDBRANCH   8  22
TORSDOF 2
ENDMDL
MODEL      149
REMARK 921   NORMALIZED FREE ENERGY PREDICTED BY IDOCK:    1.05 KCAL/MOL
REMARK 922        TOTAL FREE ENERGY PREDICTED BY IDOCK:    0.67 KCAL/MOL
REMARK 923 INTER-LIGAND FREE ENERGY PREDICTED BY IDOCK:   -2.19 KCAL/MOL
REMARK 924 INTRA-LIGAND FREE ENERGY PREDICTED BY IDOCK:    2.86 KCAL/MOL
REMARK 927      BINDING AFFINITY PREDICTED BY RF-SCORE:    0.00 PKD
ROOT
HETATM    1  C   UNL     1      -9.124  16.084  69.848  1.00  0.00     0.391 C  
HETATM    2  C   UNL     1      -9.822  15.651  68.544  1.00  0.00    -0.205 C  
HETATM    3  C   UNL     1      -9.099  14.391  67.862  1.00  0.00    -0.187 C  
HETATM    4  C   UNL     1     -11.979  12.727  65.928  1.00  0.00    -0.506 A  
HETATM    5  O   UNL     1      -9.128  13.353  68.900  1.00  0.00    -0.387 OA 
HETATM    6  C   UNL     1     -11.584  12.910  64.611  1.00  0.00    -0.346 A  
HETATM    7  C   UNL     1      -9.954  13.876  66.694  1.00  0.00    -0.279 A  
HETATM    8  C   UNL     1      -7.586  14.635  67.593  1.00  0.00    -0.180 C  
HETATM    9  C   UNL     1     -11.172  13.206  66.961  1.00  0.00    -0.325 A  
HETATM   10  C   UNL     1      -9.625  14.082  65.346  1.00  0.00     0.062 A  
HETATM   11  F   UNL     1     -12.355  12.444  63.620  1.00  0.00    -0.497 F  
HETATM   12  H   UNL     1      -8.700  12.607  68.496  1.00  0.00     0.000 HD 
HETATM   13  F   UNL     1      -8.553  14.805  65.004  1.00  0.00     1.633 F  
HETATM   14  C   UNL     1     -10.413  13.585  64.310  1.00  0.00    -0.258 A  
ENDROOT
BRANCH   2  15
HETATM   15  N   UNL     1     -10.270  16.750  67.660  1.00  0.00    -0.280 NA 
HETATM   16  C   UNL     1      -8.301  18.464  66.231  1.00  0.00    -0.231 C  
HETATM   17  C   UNL     1      -8.590  18.684  67.696  1.00  0.00    -0.288 C  
HETATM   18  C   UNL     1      -7.730  19.404  65.460  1.00  0.00     0.125 C  
HETATM   19  C   UNL     1      -9.949  18.108  68.141  1.00  0.00    -0.359 C  
HETATM   20  C   UNL     1      -8.698  17.115  65.687  1.00  0.00     0.478 C  
HETATM   21  C   UNL     1     -10.070  16.665  66.211  1.00  0.00    -0.328 C  
ENDBRANCH   2  15
BRANCH   8  22
HETATM   22  N   UNL     1      -6.821  13.434  67.297  1.00  0.00    -0.149 NA 
HETATM   23  C   UNL     1      -6.378  11.477  66.755  1.00  0.00    -0.134 A  
HETATM   24  C   UNL     1      -5.477  13.338  67.086  1.00  0.00     0.501 A  
HETATM   25  N   UNL     1      -5.167  12.105  66.757  1.00  0.00    -0.332 NA 
HETATM   26  N   UNL     1      -7.420  12.250  67.070  1.00  0.00    -0.110 NA 
ENDBRANCH   8  22
TORSDOF 2
ENDMDL
MODEL      150
REMARK 921   NORMALIZED FREE ENERGY PREDICTED BY IDOCK:    1.16 KCAL/MOL
REMARK 922        TOTAL FREE ENERGY PREDICTED BY IDOCK:    0.79 KCAL/MOL
REMARK 923 INTER-LIGAND FREE ENERGY PREDICTED BY IDOCK:   -0.93 KCAL/MOL
REMARK 924 INTRA-LIGAND FREE ENERGY PREDICTED BY IDOCK:    1.72 KCAL/MOL
REMARK 927      BINDING AFFINITY PREDICTED BY RF-SCORE:    0.00 PKD
ROOT
HETATM    1  C   UNL     1     -10.735   5.061  70.765  1.00  0.00    -0.045 C  
HETATM    2  C   UNL     1     -10.737   6.061  69.592  1.00  0.00    -0.335 C  
HETATM    3  C   UNL     1      -9.266   6.608  69.262  1.00  0.00    -0.140 C  
HETATM    4  C   UNL     1      -9.520   7.475  65.522  1.00  0.00     0.528 A  
HETATM    5  O   UNL     1      -8.484   5.398  68.982  1.00  0.00    -0.099 OA 
HETATM    6  C   UNL     1      -9.382   8.855  65.537  1.00  0.00    -0.145 A  
HETATM    7  C   UNL     1      -9.299   7.428  67.963  1.00  0.00    -0.136 A  
HETATM    8  C   UNL     1      -8.567   7.248  70.497  1.00  0.00    -0.143 C  
HETATM    9  C   UNL     1      -9.479   6.767  66.724  1.00  0.00    -0.199 A  
HETATM   10  C   UNL     1      -9.217   8.827  67.929  1.00  0.00    -0.139 A  
HETATM   11  F   UNL     1      -9.414   9.533  64.383  1.00  0.00    -0.301 F  
HETATM   12  H   UNL     1      -7.613   5.722  68.786  1.00  0.00     0.000 HD 
HETATM   13  F   UNL     1      -9.162   9.539  69.061  1.00  0.00    -0.140 F  
HETATM   14  C   UNL     1      -9.232   9.539  66.731  1.00  0.00    -0.184 A  
ENDROOT
BRANCH   2  15
HETATM   15  N   UNL     1     -11.853   7.034  69.580  1.00  0.00     0.147 NA 
HETATM   16  C   UNL     1     -12.611   8.525  72.042  1.00  0.00    -0.414 C  
HETATM   17  C   UNL     1     -13.033   7.088  71.854  1.00  0.00    -0.283 C  
HETATM   18  C   UNL     1     -13.214   9.344  72.918  1.00  0.00     0.135 C  
HETATM   19  C   UNL     1     -13.031   6.642  70.378  1.00  0.00     1.104 C  
HETATM   20  C   UNL     1     -11.464   8.983  71.176  1.00  0.00    -0.376 C  
HETATM   21  C   UNL     1     -11.589   8.467  69.735  1.00  0.00     0.403 C  
ENDBRANCH   2  15
BRANCH   8  22
HETATM   22  N   UNL     1      -7.134   7.449  70.348  1.00  0.00    -0.063 NA 
HETATM   23  C   UNL     1      -5.126   7.666  70.834  1.00  0.00    -0.023 A  
HETATM   24  C   UNL     1      -6.402   7.376  69.200  1.00  0.00    -0.036 A  
HETATM   25  N   UNL     1      -5.128   7.527  69.477  1.00  0.00    -0.015 NA 
HETATM   26  N   UNL     1      -6.328   7.616  71.413  1.00  0.00    -0.035 NA 
ENDBRANCH   8  22
TORSDOF 2
ENDMDL
MODEL      151
REMARK 921   NORMALIZED FREE ENERGY PREDICTED BY IDOCK:    1.51 KCAL/MOL
REMARK 922        TOTAL FREE ENERGY PREDICTED BY IDOCK:    1.18 KCAL/MOL
REMARK 923 INTER-LIGAND FREE ENERGY PREDICTED BY IDOCK:   -1.08 KCAL/MOL
REMARK 924 INTRA-LIGAND FREE ENERGY PREDICTED BY IDOCK:    2.26 KCAL/MOL
REMARK 927      BINDING AFFINITY PREDICTED BY RF-SCORE:    0.00 PKD
ROOT
HETATM    1  C   UNL     1     -11.205   8.067  67.133  1.00  0.00     0.680 C  
HETATM    2  C   UNL     1     -10.110   8.000  68.216  1.00  0.00    -0.196 C  
HETATM    3  C   UNL     1      -8.727   8.642  67.717  1.00  0.00    -0.137 C  
HETATM    4  C   UNL     1      -7.116   9.808  71.011  1.00  0.00     0.129 A  
HETATM    5  O   UNL     1      -9.080  10.016  67.343  1.00  0.00    -0.134 OA 
HETATM    6  C   UNL     1      -6.009   8.976  71.099  1.00  0.00    -0.055 A  
HETATM    7  C   UNL     1      -7.748   8.739  68.897  1.00  0.00    -0.095 A  
HETATM    8  C   UNL     1      -8.203   8.000  66.400  1.00  0.00    -0.113 C  
HETATM    9  C   UNL     1      -7.978   9.690  69.920  1.00  0.00    -0.174 A  
HETATM   10  C   UNL     1      -6.646   7.887  69.060  1.00  0.00    -0.044 A  
HETATM   11  F   UNL     1      -5.178   9.094  72.142  1.00  0.00    -0.039 F  
HETATM   12  H   UNL     1      -8.261  10.396  67.048  1.00  0.00     0.000 HD 
HETATM   13  F   UNL     1      -6.420   6.885  68.202  1.00  0.00    -0.041 F  
HETATM   14  C   UNL     1      -5.766   8.015  70.133  1.00  0.00    -0.022 A  
ENDROOT
BRANCH   2  15
HETATM   15  N   UNL     1     -10.046   6.738  68.988  1.00  0.00    -0.159 NA 
HETATM   16  C   UNL     1      -9.363   4.165  67.657  1.00  0.00    -0.208 C  
HETATM   17  C   UNL     1     -10.748   4.750  67.532  1.00  0.00     0.369 C  
HETATM   18  C   UNL     1      -9.102   2.871  67.411  1.00  0.00    -0.209 C  
HETATM   19  C   UNL     1     -11.090   5.750  68.654  1.00  0.00     0.013 C  
HETATM   20  C   UNL     1      -8.286   5.132  68.082  1.00  0.00    -0.097 C  
HETATM   21  C   UNL     1      -8.763   6.066  69.204  1.00  0.00    -0.120 C  
ENDBRANCH   2  15
BRANCH   8  22
HETATM   22  N   UNL     1      -7.155   8.755  65.731  1.00  0.00    -0.079 NA 
HETATM   23  C   UNL     1      -5.973  10.355  65.130  1.00  0.00    -0.133 A  
HETATM   24  C   UNL     1      -6.046   8.262  65.110  1.00  0.00    -0.045 A  
HETATM   25  N   UNL     1      -5.288   9.254  64.704  1.00  0.00    -0.052 NA 
HETATM   26  N   UNL     1      -7.116  10.100  65.771  1.00  0.00    -0.120 NA 
ENDBRANCH   8  22
TORSDOF 2
ENDMDL
MODEL      152
REMARK 921   NORMALIZED FREE ENERGY PREDICTED BY IDOCK:    1.99 KCAL/MOL
REMARK 922        TOTAL FREE ENERGY PREDICTED BY IDOCK:    1.71 KCAL/MOL
REMARK 923 INTER-LIGAND FREE ENERGY PREDICTED BY IDOCK:   -1.22 KCAL/MOL
REMARK 924 INTRA-LIGAND FREE ENERGY PREDICTED BY IDOCK:    2.93 KCAL/MOL
REMARK 927      BINDING AFFINITY PREDICTED BY RF-SCORE:    0.00 PKD
ROOT
HETATM    1  C   UNL     1     -11.924  13.110  68.629  1.00  0.00    -0.319 C  
HETATM    2  C   UNL     1     -10.703  14.043  68.519  1.00  0.00    -0.256 C  
HETATM    3  C   UNL     1      -9.398  13.272  67.993  1.00  0.00    -0.218 C  
HETATM    4  C   UNL     1      -7.400  16.083  66.289  1.00  0.00     0.569 A  
HETATM    5  O   UNL     1      -9.808  12.709  66.701  1.00  0.00    -0.232 OA 
HETATM    6  C   UNL     1      -6.283  16.178  67.107  1.00  0.00    -0.099 A  
HETATM    7  C   UNL     1      -8.281  14.285  67.703  1.00  0.00    -0.193 A  
HETATM    8  C   UNL     1      -9.037  12.033  68.863  1.00  0.00     0.207 C  
HETATM    9  C   UNL     1      -8.390  15.145  66.585  1.00  0.00    -0.162 A  
HETATM   10  C   UNL     1      -7.160  14.457  68.528  1.00  0.00    -0.109 A  
HETATM   11  F   UNL     1      -5.330  17.073  66.819  1.00  0.00    -0.159 F  
HETATM   12  H   UNL     1      -9.035  12.252  66.389  1.00  0.00     0.000 HD 
HETATM   13  F   UNL     1      -7.034  13.767  69.668  1.00  0.00    -0.100 F  
HETATM   14  C   UNL     1      -6.154  15.373  68.226  1.00  0.00    -0.120 A  
ENDROOT
BRANCH   2  15
HETATM   15  N   UNL     1     -10.532  15.010  69.627  1.00  0.00    -0.235 NA 
HETATM   16  C   UNL     1     -10.436  17.938  69.100  1.00  0.00    -0.002 C  
HETATM   17  C   UNL     1      -9.229  17.071  68.837  1.00  0.00    -0.215 C  
HETATM   18  C   UNL     1     -10.349  19.270  69.241  1.00  0.00     0.080 C  
HETATM   19  C   UNL     1      -9.251  15.743  69.622  1.00  0.00    -0.144 C  
HETATM   20  C   UNL     1     -11.752  17.207  69.198  1.00  0.00     1.297 C  
HETATM   21  C   UNL     1     -11.628  15.905  70.005  1.00  0.00    -0.344 C  
ENDBRANCH   2  15
BRANCH   8  22
HETATM   22  N   UNL     1      -8.087  11.117  68.250  1.00  0.00    -0.124 NA 
HETATM   23  C   UNL     1      -7.081  10.018  66.802  1.00  0.00    -0.091 A  
HETATM   24  C   UNL     1      -6.958  10.596  68.811  1.00  0.00    -0.068 A  
HETATM   25  N   UNL     1      -6.310   9.882  67.920  1.00  0.00    -0.055 NA 
HETATM   26  N   UNL     1      -8.172  10.771  66.952  1.00  0.00    -0.126 NA 
ENDBRANCH   8  22
TORSDOF 2
ENDMDL
MODEL      153
REMARK 921   NORMALIZED FREE ENERGY PREDICTED BY IDOCK:    2.78 KCAL/MOL
REMARK 922        TOTAL FREE ENERGY PREDICTED BY IDOCK:    2.61 KCAL/MOL
REMARK 923 INTER-LIGAND FREE ENERGY PREDICTED BY IDOCK:    0.57 KCAL/MOL
REMARK 924 INTRA-LIGAND FREE ENERGY PREDICTED BY IDOCK:    2.03 KCAL/MOL
REMARK 927      BINDING AFFINITY PREDICTED BY RF-SCORE:    0.00 PKD
ROOT
HETATM    1  C   UNL     1     -11.246   6.314  67.876  1.00  0.00    -0.216 C  
HETATM    2  C   UNL     1     -10.454   7.488  68.484  1.00  0.00    -0.180 C  
HETATM    3  C   UNL     1      -8.890   7.157  68.619  1.00  0.00    -0.126 C  
HETATM    4  C   UNL     1      -7.280  10.646  68.424  1.00  0.00    -0.084 A  
HETATM    5  O   UNL     1      -8.470   6.829  67.252  1.00  0.00    -0.119 OA 
HETATM    6  C   UNL     1      -6.750  10.789  69.698  1.00  0.00    -0.122 A  
HETATM    7  C   UNL     1      -8.127   8.426  69.028  1.00  0.00    -0.116 A  
HETATM    8  C   UNL     1      -8.616   5.859  69.434  1.00  0.00    -0.113 C  
HETATM    9  C   UNL     1      -7.963   9.474  68.092  1.00  0.00    -0.094 A  
HETATM   10  C   UNL     1      -7.619   8.641  70.317  1.00  0.00    -0.074 A  
HETATM   11  F   UNL     1      -6.089  11.910  70.014  1.00  0.00    -0.112 F  
HETATM   12  H   UNL     1      -7.545   6.633  67.332  1.00  0.00     0.000 HD 
HETATM   13  F   UNL     1      -7.830   7.753  71.296  1.00  0.00    -0.079 F  
HETATM   14  C   UNL     1      -6.914   9.797  70.649  1.00  0.00    -0.102 A  
ENDROOT
BRANCH   2  15
HETATM   15  N   UNL     1     -11.110   8.190  69.611  1.00  0.00    -0.088 NA 
HETATM   16  C   UNL     1     -11.831   6.738  72.106  1.00  0.00    -0.326 C  
HETATM   17  C   UNL     1     -12.686   6.609  70.869  1.00  0.00    -0.005 C  
HETATM   18  C   UNL     1     -12.285   6.427  73.331  1.00  0.00     1.739 C  
HETATM   19  C   UNL     1     -12.501   7.776  69.878  1.00  0.00     1.354 C  
HETATM   20  C   UNL     1     -10.429   7.243  71.877  1.00  0.00    -0.224 C  
HETATM   21  C   UNL     1     -10.392   8.403  70.870  1.00  0.00    -0.194 C  
ENDBRANCH   2  15
BRANCH   8  22
HETATM   22  N   UNL     1      -7.265   5.334  69.303  1.00  0.00    -0.056 NA 
HETATM   23  C   UNL     1      -5.216   5.262  68.971  1.00  0.00     0.000 A  
HETATM   24  C   UNL     1      -6.802   4.124  69.727  1.00  0.00    -0.041 A  
HETATM   25  N   UNL     1      -5.509   4.045  69.513  1.00  0.00    -0.015 NA 
HETATM   26  N   UNL     1      -6.255   6.088  68.831  1.00  0.00    -0.034 NA 
ENDBRANCH   8  22
TORSDOF 2
ENDMDL
MODEL      154
REMARK 921   NORMALIZED FREE ENERGY PREDICTED BY IDOCK:    2.82 KCAL/MOL
REMARK 922        TOTAL FREE ENERGY PREDICTED BY IDOCK:    2.64 KCAL/MOL
REMARK 923 INTER-LIGAND FREE ENERGY PREDICTED BY IDOCK:    0.71 KCAL/MOL
REMARK 924 INTRA-LIGAND FREE ENERGY PREDICTED BY IDOCK:    1.94 KCAL/MOL
REMARK 927      BINDING AFFINITY PREDICTED BY RF-SCORE:    0.00 PKD
ROOT
HETATM    1  C   UNL     1      -8.797   4.830  65.654  1.00  0.00    -0.135 C  
HETATM    2  C   UNL     1      -9.613   5.709  66.622  1.00  0.00    -0.152 C  
HETATM    3  C   UNL     1      -8.850   7.071  66.990  1.00  0.00    -0.124 C  
HETATM    4  C   UNL     1     -11.756   9.460  67.797  1.00  0.00     1.878 A  
HETATM    5  O   UNL     1      -8.612   7.715  65.693  1.00  0.00    -0.148 OA 
HETATM    6  C   UNL     1     -11.571   9.690  69.152  1.00  0.00     0.291 A  
HETATM    7  C   UNL     1      -9.792   7.994  67.779  1.00  0.00    -0.207 A  
HETATM    8  C   UNL     1      -7.428   6.828  67.574  1.00  0.00    -0.097 C  
HETATM    9  C   UNL     1     -10.874   8.619  67.116  1.00  0.00    -0.061 A  
HETATM   10  C   UNL     1      -9.680   8.215  69.159  1.00  0.00    -0.163 A  
HETATM   11  F   UNL     1     -12.413  10.503  69.804  1.00  0.00    -0.336 F  
HETATM   12  H   UNL     1      -8.161   8.522  65.911  1.00  0.00     0.000 HD 
HETATM   13  F   UNL     1      -8.758   7.573  69.885  1.00  0.00    -0.134 F  
HETATM   14  C   UNL     1     -10.541   9.074  69.841  1.00  0.00    -0.240 A  
ENDROOT
BRANCH   2  15
HETATM   15  N   UNL     1     -10.305   4.989  67.715  1.00  0.00    -0.101 NA 
HETATM   16  C   UNL     1      -8.790   3.271  69.615  1.00  0.00    -0.148 C  
HETATM   17  C   UNL     1      -9.125   2.774  68.230  1.00  0.00    -0.227 C  
HETATM   18  C   UNL     1      -8.455   2.443  70.617  1.00  0.00    -0.088 C  
HETATM   19  C   UNL     1     -10.312   3.519  67.586  1.00  0.00     1.473 C  
HETATM   20  C   UNL     1      -8.860   4.766  69.802  1.00  0.00    -0.128 C  
HETATM   21  C   UNL     1     -10.089   5.376  69.111  1.00  0.00    -0.223 C  
ENDBRANCH   2  15
BRANCH   8  22
HETATM   22  N   UNL     1      -6.576   8.007  67.607  1.00  0.00    -0.056 NA 
HETATM   23  C   UNL     1      -5.379   9.539  68.341  1.00  0.00    -0.036 A  
HETATM   24  C   UNL     1      -5.946   8.605  66.555  1.00  0.00    -0.052 A  
HETATM   25  N   UNL     1      -5.194   9.589  66.990  1.00  0.00    -0.035 NA 
HETATM   26  N   UNL     1      -6.208   8.583  68.767  1.00  0.00    -0.044 NA 
ENDBRANCH   8  22
TORSDOF 2
ENDMDL
MODEL      155
REMARK 921   NORMALIZED FREE ENERGY PREDICTED BY IDOCK:    3.01 KCAL/MOL
REMARK 922        TOTAL FREE ENERGY PREDICTED BY IDOCK:    2.86 KCAL/MOL
REMARK 923 INTER-LIGAND FREE ENERGY PREDICTED BY IDOCK:    1.17 KCAL/MOL
REMARK 924 INTRA-LIGAND FREE ENERGY PREDICTED BY IDOCK:    1.69 KCAL/MOL
REMARK 927      BINDING AFFINITY PREDICTED BY RF-SCORE:    0.00 PKD
ROOT
HETATM    1  C   UNL     1      -7.504  13.772  71.196  1.00  0.00     3.729 C  
HETATM    2  C   UNL     1      -7.239  14.732  70.019  1.00  0.00     0.035 C  
HETATM    3  C   UNL     1      -8.593  15.158  69.271  1.00  0.00    -0.211 C  
HETATM    4  C   UNL     1      -7.692  18.606  67.822  1.00  0.00    -0.253 A  
HETATM    5  O   UNL     1      -9.416  15.758  70.326  1.00  0.00     0.115 OA 
HETATM    6  C   UNL     1      -7.719  18.361  66.457  1.00  0.00    -0.252 A  
HETATM    7  C   UNL     1      -8.292  16.269  68.253  1.00  0.00    -0.185 A  
HETATM    8  C   UNL     1      -9.420  13.935  68.776  1.00  0.00    -0.043 C  
HETATM    9  C   UNL     1      -7.976  17.570  68.713  1.00  0.00    -0.238 A  
HETATM   10  C   UNL     1      -8.254  16.059  66.867  1.00  0.00    -0.242 A  
HETATM   11  F   UNL     1      -7.453  19.357  65.603  1.00  0.00    -0.299 F  
HETATM   12  H   UNL     1     -10.217  16.011  69.883  1.00  0.00     0.000 HD 
HETATM   13  F   UNL     1      -8.426  14.836  66.353  1.00  0.00    -0.235 F  
HETATM   14  C   UNL     1      -7.996  17.094  65.971  1.00  0.00    -0.189 A  
ENDROOT
BRANCH   2  15
HETATM   15  N   UNL     1      -6.060  14.413  69.183  1.00  0.00    -0.090 NA 
HETATM   16  C   UNL     1      -5.823  11.782  67.813  1.00  0.00    -0.057 C  
HETATM   17  C   UNL     1      -5.527  11.908  69.287  1.00  0.00    -0.057 C  
HETATM   18  C   UNL     1      -5.387  10.747  67.077  1.00  0.00    -0.047 C  
HETATM   19  C   UNL     1      -5.187  13.350  69.717  1.00  0.00    -0.088 C  
HETATM   20  C   UNL     1      -6.641  12.899  67.216  1.00  0.00    -0.047 C  
HETATM   21  C   UNL     1      -6.196  14.277  67.731  1.00  0.00    -0.137 C  
ENDBRANCH   2  15
BRANCH   8  22
HETATM   22  N   UNL     1     -10.792  14.243  68.401  1.00  0.00    -0.246 NA 
HETATM   23  C   UNL     1     -12.656  15.159  68.373  1.00  0.00     0.703 A  
HETATM   24  C   UNL     1     -11.456  13.835  67.282  1.00  0.00    -0.341 A  
HETATM   25  N   UNL     1     -12.646  14.388  67.248  1.00  0.00     0.151 NA 
HETATM   26  N   UNL     1     -11.541  15.110  69.105  1.00  0.00    -0.304 NA 
ENDBRANCH   8  22
TORSDOF 2
ENDMDL
MODEL      156
REMARK 921   NORMALIZED FREE ENERGY PREDICTED BY IDOCK:    3.26 KCAL/MOL
REMARK 922        TOTAL FREE ENERGY PREDICTED BY IDOCK:    3.14 KCAL/MOL
REMARK 923 INTER-LIGAND FREE ENERGY PREDICTED BY IDOCK:   -1.60 KCAL/MOL
REMARK 924 INTRA-LIGAND FREE ENERGY PREDICTED BY IDOCK:    4.75 KCAL/MOL
REMARK 927      BINDING AFFINITY PREDICTED BY RF-SCORE:    0.00 PKD
ROOT
HETATM    1  C   UNL     1     -10.768  15.623  66.401  1.00  0.00    -0.291 C  
HETATM    2  C   UNL     1      -9.795  14.726  67.190  1.00  0.00    -0.232 C  
HETATM    3  C   UNL     1      -9.388  13.408  66.371  1.00  0.00    -0.172 C  
HETATM    4  C   UNL     1      -5.913  12.579  67.799  1.00  0.00    -0.119 A  
HETATM    5  O   UNL     1      -8.810  13.921  65.124  1.00  0.00     0.923 OA 
HETATM    6  C   UNL     1      -6.149  11.378  68.451  1.00  0.00    -0.045 A  
HETATM    7  C   UNL     1      -8.264  12.666  67.111  1.00  0.00    -0.159 A  
HETATM    8  C   UNL     1     -10.621  12.574  65.917  1.00  0.00    -0.265 C  
HETATM    9  C   UNL     1      -6.961  13.219  67.135  1.00  0.00     0.185 A  
HETATM   10  C   UNL     1      -8.463  11.478  67.829  1.00  0.00    -0.137 A  
HETATM   11  F   UNL     1      -5.142  10.762  69.083  1.00  0.00    -0.042 F  
HETATM   12  H   UNL     1      -8.569  13.141  64.639  1.00  0.00     0.000 HD 
HETATM   13  F   UNL     1      -9.685  10.949  67.955  1.00  0.00    -0.154 F  
HETATM   14  C   UNL     1      -7.416  10.822  68.473  1.00  0.00    -0.100 A  
ENDROOT
BRANCH   2  15
HETATM   15  N   UNL     1     -10.086  14.578  68.634  1.00  0.00    -0.239 NA 
HETATM   16  C   UNL     1     -11.998  12.514  69.605  1.00  0.00    -0.339 C  
HETATM   17  C   UNL     1     -12.500  13.800  68.996  1.00  0.00     0.114 C  
HETATM   18  C   UNL     1     -12.769  11.735  70.380  1.00  0.00    -0.071 C  
HETATM   19  C   UNL     1     -11.460  14.938  69.033  1.00  0.00    -0.301 C  
HETATM   20  C   UNL     1     -10.567  12.161  69.287  1.00  0.00     0.041 C  
HETATM   21  C   UNL     1      -9.642  13.386  69.361  1.00  0.00     0.896 C  
ENDBRANCH   2  15
BRANCH   8  22
HETATM   22  N   UNL     1     -10.337  11.572  64.901  1.00  0.00    -0.273 NA 
HETATM   23  C   UNL     1     -10.089  10.690  63.037  1.00  0.00    -0.073 A  
HETATM   24  C   UNL     1      -9.708  10.374  65.071  1.00  0.00    -0.300 A  
HETATM   25  N   UNL     1      -9.553   9.786  63.908  1.00  0.00    -0.056 NA 
HETATM   26  N   UNL     1     -10.573  11.801  63.596  1.00  0.00    -0.394 NA 
ENDBRANCH   8  22
TORSDOF 2
ENDMDL
MODEL      157
REMARK 921   NORMALIZED FREE ENERGY PREDICTED BY IDOCK:    4.78 KCAL/MOL
REMARK 922        TOTAL FREE ENERGY PREDICTED BY IDOCK:    4.83 KCAL/MOL
REMARK 923 INTER-LIGAND FREE ENERGY PREDICTED BY IDOCK:    5.01 KCAL/MOL
REMARK 924 INTRA-LIGAND FREE ENERGY PREDICTED BY IDOCK:   -0.18 KCAL/MOL
REMARK 927      BINDING AFFINITY PREDICTED BY RF-SCORE:    0.00 PKD
ROOT
HETATM    1  C   UNL     1     -11.051   8.837  66.691  1.00  0.00     0.900 C  
HETATM    2  C   UNL     1      -9.983   8.775  67.801  1.00  0.00    -0.194 C  
HETATM    3  C   UNL     1      -8.619   9.498  67.368  1.00  0.00    -0.125 C  
HETATM    4  C   UNL     1      -7.150  10.598  70.750  1.00  0.00     0.948 A  
HETATM    5  O   UNL     1      -9.025  10.870  67.040  1.00  0.00    -0.141 OA 
HETATM    6  C   UNL     1      -6.008   9.814  70.835  1.00  0.00    -0.089 A  
HETATM    7  C   UNL     1      -7.676   9.591  68.578  1.00  0.00    -0.081 A  
HETATM    8  C   UNL     1      -8.031   8.936  66.041  1.00  0.00    -0.106 C  
HETATM    9  C   UNL     1      -7.977  10.487  69.631  1.00  0.00    -0.076 A  
HETATM   10  C   UNL     1      -6.541   8.783  68.737  1.00  0.00    -0.054 A  
HETATM   11  F   UNL     1      -5.211   9.926  71.905  1.00  0.00    -0.066 F  
HETATM   12  H   UNL     1      -8.217  11.298  66.783  1.00  0.00     0.000 HD 
HETATM   13  F   UNL     1      -6.247   7.829  67.846  1.00  0.00    -0.042 F  
HETATM   14  C   UNL     1      -5.697   8.906  69.838  1.00  0.00    -0.028 A  
ENDROOT
BRANCH   2  15
HETATM   15  N   UNL     1      -9.881   7.486  68.523  1.00  0.00    -0.160 NA 
HETATM   16  C   UNL     1     -12.115   6.507  70.229  1.00  0.00    -0.113 C  
HETATM   17  C   UNL     1     -11.179   7.579  70.730  1.00  0.00    -0.287 C  
HETATM   18  C   UNL     1     -12.882   5.776  71.053  1.00  0.00     2.400 C  
HETATM   19  C   UNL     1      -9.825   7.598  69.993  1.00  0.00    -0.180 C  
HETATM   20  C   UNL     1     -12.132   6.308  68.734  1.00  0.00     2.084 C  
HETATM   21  C   UNL     1     -10.719   6.350  68.132  1.00  0.00    -0.291 C  
ENDBRANCH   2  15
BRANCH   8  22
HETATM   22  N   UNL     1      -7.002   9.765  65.433  1.00  0.00    -0.099 NA 
HETATM   23  C   UNL     1      -5.738  11.377  65.084  1.00  0.00     1.000 A  
HETATM   24  C   UNL     1      -6.045   9.377  64.541  1.00  0.00    -0.077 A  
HETATM   25  N   UNL     1      -5.241  10.384  64.290  1.00  0.00    -0.127 NA 
HETATM   26  N   UNL     1      -6.809  11.043  65.808  1.00  0.00     0.015 NA 
ENDBRANCH   8  22
TORSDOF 2
ENDMDL
MODEL      158
REMARK 921   NORMALIZED FREE ENERGY PREDICTED BY IDOCK:    6.18 KCAL/MOL
REMARK 922        TOTAL FREE ENERGY PREDICTED BY IDOCK:    6.40 KCAL/MOL
REMARK 923 INTER-LIGAND FREE ENERGY PREDICTED BY IDOCK:   -0.80 KCAL/MOL
REMARK 924 INTRA-LIGAND FREE ENERGY PREDICTED BY IDOCK:    7.20 KCAL/MOL
REMARK 927      BINDING AFFINITY PREDICTED BY RF-SCORE:    0.00 PKD
ROOT
HETATM    1  C   UNL     1     -11.229  13.440  71.002  1.00  0.00     1.791 C  
HETATM    2  C   UNL     1     -11.237  13.007  69.522  1.00  0.00    -0.077 C  
HETATM    3  C   UNL     1      -9.783  12.550  69.019  1.00  0.00     0.334 C  
HETATM    4  C   UNL     1     -10.621  10.073  66.197  1.00  0.00    -0.071 A  
HETATM    5  O   UNL     1      -9.410  11.464  69.932  1.00  0.00     0.426 OA 
HETATM    6  C   UNL     1     -10.142  10.740  65.078  1.00  0.00    -0.313 A  
HETATM    7  C   UNL     1      -9.893  11.935  67.616  1.00  0.00    -0.192 A  
HETATM    8  C   UNL     1      -8.696  13.641  69.243  1.00  0.00     0.672 C  
HETATM    9  C   UNL     1     -10.498  10.665  67.455  1.00  0.00    -0.280 A  
HETATM   10  C   UNL     1      -9.474  12.590  66.449  1.00  0.00    -0.233 A  
HETATM   11  F   UNL     1     -10.255  10.168  63.873  1.00  0.00    -0.320 F  
HETATM   12  H   UNL     1      -8.549  11.193  69.634  1.00  0.00     0.000 HD 
HETATM   13  F   UNL     1      -8.998  13.840  66.497  1.00  0.00    -0.239 F  
HETATM   14  C   UNL     1      -9.570  11.995  65.193  1.00  0.00    -0.091 A  
ENDROOT
BRANCH   2  15
HETATM   15  N   UNL     1     -12.049  13.845  68.612  1.00  0.00    -0.352 NA 
HETATM   16  C   UNL     1     -10.756  15.720  66.697  1.00  0.00    -0.287 C  
HETATM   17  C   UNL     1     -10.882  16.081  68.156  1.00  0.00    -0.322 C  
HETATM   18  C   UNL     1     -10.535  16.640  65.744  1.00  0.00    -0.324 C  
HETATM   19  C   UNL     1     -11.992  15.295  68.883  1.00  0.00    -0.264 C  
HETATM   20  C   UNL     1     -10.896  14.253  66.376  1.00  0.00    -0.307 C  
HETATM   21  C   UNL     1     -12.038  13.598  67.168  1.00  0.00    -0.362 C  
ENDBRANCH   2  15
BRANCH   8  22
HETATM   22  N   UNL     1      -7.326  13.166  69.122  1.00  0.00     0.053 NA 
HETATM   23  C   UNL     1      -5.390  12.932  68.405  1.00  0.00    -0.067 A  
HETATM   24  C   UNL     1      -6.600  12.486  70.055  1.00  0.00     0.216 A  
HETATM   25  N   UNL     1      -5.374  12.309  69.619  1.00  0.00    -0.073 NA 
HETATM   26  N   UNL     1      -6.558  13.479  68.062  1.00  0.00    -0.119 NA 
ENDBRANCH   8  22
TORSDOF 2
ENDMDL
MODEL      159
REMARK 921   NORMALIZED FREE ENERGY PREDICTED BY IDOCK:    6.76 KCAL/MOL
REMARK 922        TOTAL FREE ENERGY PREDICTED BY IDOCK:    7.04 KCAL/MOL
REMARK 923 INTER-LIGAND FREE ENERGY PREDICTED BY IDOCK:   -3.27 KCAL/MOL
REMARK 924 INTRA-LIGAND FREE ENERGY PREDICTED BY IDOCK:   10.31 KCAL/MOL
REMARK 927      BINDING AFFINITY PREDICTED BY RF-SCORE:    0.00 PKD
ROOT
HETATM    1  C   UNL     1      -7.645  13.705  67.677  1.00  0.00    -0.186 C  
HETATM    2  C   UNL     1      -8.053  15.191  67.647  1.00  0.00    -0.162 C  
HETATM    3  C   UNL     1      -9.096  15.554  68.811  1.00  0.00    -0.207 C  
HETATM    4  C   UNL     1      -8.405  19.292  69.411  1.00  0.00     0.079 A  
HETATM    5  O   UNL     1      -8.403  15.175  70.048  1.00  0.00    -0.341 OA 
HETATM    6  C   UNL     1      -9.590  19.874  68.986  1.00  0.00    -0.151 A  
HETATM    7  C   UNL     1      -9.301  17.076  68.865  1.00  0.00    -0.224 A  
HETATM    8  C   UNL     1     -10.368  14.659  68.784  1.00  0.00    -0.248 C  
HETATM    9  C   UNL     1      -8.261  17.904  69.350  1.00  0.00     0.430 A  
HETATM   10  C   UNL     1     -10.458  17.717  68.398  1.00  0.00    -0.347 A  
HETATM   11  F   UNL     1      -9.730  21.204  69.051  1.00  0.00     0.649 F  
HETATM   12  H   UNL     1      -9.021  15.390  70.737  1.00  0.00     0.000 HD 
HETATM   13  F   UNL     1     -11.442  17.021  67.817  1.00  0.00    -0.171 F  
HETATM   14  C   UNL     1     -10.619  19.099  68.479  1.00  0.00    -0.062 A  
ENDROOT
BRANCH   2  15
HETATM   15  N   UNL     1      -8.293  15.765  66.304  1.00  0.00    -0.238 NA 
HETATM   16  C   UNL     1      -9.490  18.471  65.987  1.00  0.00    -0.038 C  
HETATM   17  C   UNL     1     -10.358  17.282  66.322  1.00  0.00    -0.323 C  
HETATM   18  C   UNL     1      -9.991  19.607  65.475  1.00  0.00     0.078 C  
HETATM   19  C   UNL     1      -9.713  15.933  65.942  1.00  0.00    -0.351 C  
HETATM   20  C   UNL     1      -8.018  18.299  66.264  1.00  0.00    -0.267 C  
HETATM   21  C   UNL     1      -7.511  16.912  65.838  1.00  0.00     0.248 C  
ENDBRANCH   2  15
BRANCH   8  22
HETATM   22  N   UNL     1     -11.175  14.712  69.994  1.00  0.00    -0.238 NA 
HETATM   23  C   UNL     1     -11.822  15.248  71.894  1.00  0.00    -0.420 A  
HETATM   24  C   UNL     1     -12.443  14.242  70.166  1.00  0.00    -0.335 A  
HETATM   25  N   UNL     1     -12.871  14.554  71.367  1.00  0.00    -0.316 NA 
HETATM   26  N   UNL     1     -10.765  15.379  71.089  1.00  0.00    -0.126 NA 
ENDBRANCH   8  22
TORSDOF 2
ENDMDL
MODEL      160
REMARK 921   NORMALIZED FREE ENERGY PREDICTED BY IDOCK:    6.93 KCAL/MOL
REMARK 922        TOTAL FREE ENERGY PREDICTED BY IDOCK:    7.24 KCAL/MOL
REMARK 923 INTER-LIGAND FREE ENERGY PREDICTED BY IDOCK:   -2.21 KCAL/MOL
REMARK 924 INTRA-LIGAND FREE ENERGY PREDICTED BY IDOCK:    9.44 KCAL/MOL
REMARK 927      BINDING AFFINITY PREDICTED BY RF-SCORE:    0.00 PKD
ROOT
HETATM    1  C   UNL     1      -8.006  18.696  66.433  1.00  0.00    -0.298 C  
HETATM    2  C   UNL     1      -9.053  17.945  67.278  1.00  0.00    -0.251 C  
HETATM    3  C   UNL     1      -8.385  16.823  68.210  1.00  0.00    -0.213 C  
HETATM    4  C   UNL     1     -10.867  16.589  71.141  1.00  0.00     0.582 A  
HETATM    5  O   UNL     1      -7.413  17.562  69.025  1.00  0.00    -0.249 OA 
HETATM    6  C   UNL     1     -11.375  15.308  70.985  1.00  0.00    -0.351 A  
HETATM    7  C   UNL     1      -9.438  16.260  69.176  1.00  0.00    -0.246 A  
HETATM    8  C   UNL     1      -7.528  15.802  67.407  1.00  0.00    -0.194 C  
HETATM    9  C   UNL     1      -9.907  17.062  70.244  1.00  0.00     1.453 A  
HETATM   10  C   UNL     1     -10.022  14.992  69.031  1.00  0.00    -0.246 A  
HETATM   11  F   UNL     1     -12.291  14.852  71.850  1.00  0.00    -0.330 F  
HETATM   12  H   UNL     1      -7.017  16.897  69.577  1.00  0.00     0.000 HD 
HETATM   13  F   UNL     1      -9.722  14.215  67.984  1.00  0.00    -0.202 F  
HETATM   14  C   UNL     1     -10.961  14.504  69.937  1.00  0.00    -0.147 A  
ENDROOT
BRANCH   2  15
HETATM   15  N   UNL     1     -10.314  17.602  66.583  1.00  0.00    -0.343 NA 
HETATM   16  C   UNL     1     -11.376  14.822  66.624  1.00  0.00    -0.347 C  
HETATM   17  C   UNL     1     -10.239  15.196  65.705  1.00  0.00    -0.365 C  
HETATM   18  C   UNL     1     -12.129  13.727  66.431  1.00  0.00    -0.483 C  
HETATM   19  C   UNL     1     -10.161  16.709  65.419  1.00  0.00    -0.018 C  
HETATM   20  C   UNL     1     -11.616  15.764  67.777  1.00  0.00    -0.097 C  
HETATM   21  C   UNL     1     -11.508  17.236  67.350  1.00  0.00     0.698 C  
ENDBRANCH   2  15
BRANCH   8  22
HETATM   22  N   UNL     1      -6.641  14.983  68.218  1.00  0.00    -0.103 NA 
HETATM   23  C   UNL     1      -5.645  14.227  69.878  1.00  0.00    -0.104 A  
HETATM   24  C   UNL     1      -6.036  13.814  67.862  1.00  0.00    -0.142 A  
HETATM   25  N   UNL     1      -5.384  13.321  68.891  1.00  0.00    -0.071 NA 
HETATM   26  N   UNL     1      -6.416  15.255  69.517  1.00  0.00    -0.141 NA 
ENDBRANCH   8  22
TORSDOF 2
ENDMDL
MODEL      161
REMARK 921   NORMALIZED FREE ENERGY PREDICTED BY IDOCK:    9.06 KCAL/MOL
REMARK 922        TOTAL FREE ENERGY PREDICTED BY IDOCK:    9.62 KCAL/MOL
REMARK 923 INTER-LIGAND FREE ENERGY PREDICTED BY IDOCK:   -1.41 KCAL/MOL
REMARK 924 INTRA-LIGAND FREE ENERGY PREDICTED BY IDOCK:   11.02 KCAL/MOL
REMARK 927      BINDING AFFINITY PREDICTED BY RF-SCORE:    0.00 PKD
ROOT
HETATM    1  C   UNL     1      -7.261  17.601  67.386  1.00  0.00    -0.198 C  
HETATM    2  C   UNL     1      -7.169  16.067  67.512  1.00  0.00    -0.169 C  
HETATM    3  C   UNL     1      -8.538  15.422  68.045  1.00  0.00    -0.151 C  
HETATM    4  C   UNL     1      -8.426  11.880  66.548  1.00  0.00    -0.097 A  
HETATM    5  O   UNL     1      -9.546  15.858  67.072  1.00  0.00    -0.217 OA 
HETATM    6  C   UNL     1      -8.309  11.092  67.684  1.00  0.00    -0.117 A  
HETATM    7  C   UNL     1      -8.459  13.891  67.949  1.00  0.00    -0.177 A  
HETATM    8  C   UNL     1      -9.008  16.034  69.397  1.00  0.00    -0.170 C  
HETATM    9  C   UNL     1      -8.500  13.268  66.679  1.00  0.00     0.127 A  
HETATM   10  C   UNL     1      -8.286  13.054  69.061  1.00  0.00     0.422 A  
HETATM   11  F   UNL     1      -8.245   9.760  67.558  1.00  0.00    -0.111 F  
HETATM   12  H   UNL     1     -10.356  15.476  67.388  1.00  0.00     0.000 HD 
HETATM   13  F   UNL     1      -8.121  13.566  70.287  1.00  0.00     1.496 F  
HETATM   14  C   UNL     1      -8.237  11.667  68.941  1.00  0.00     0.017 A  
ENDROOT
BRANCH   2  15
HETATM   15  N   UNL     1      -5.899  15.543  68.064  1.00  0.00    -0.126 NA 
HETATM   16  C   UNL     1      -5.880  13.201  69.900  1.00  0.00    -0.133 C  
HETATM   17  C   UNL     1      -6.262  14.570  70.406  1.00  0.00    -0.174 C  
HETATM   18  C   UNL     1      -5.497  12.210  70.721  1.00  0.00    -0.151 C  
HETATM   19  C   UNL     1      -5.734  15.716  69.520  1.00  0.00    -0.120 C  
HETATM   20  C   UNL     1      -5.955  13.018  68.405  1.00  0.00    -0.077 C  
HETATM   21  C   UNL     1      -5.396  14.232  67.648  1.00  0.00     0.099 C  
ENDBRANCH   2  15
BRANCH   8  22
HETATM   22  N   UNL     1     -10.388  15.737  69.751  1.00  0.00    -0.292 NA 
HETATM   23  C   UNL     1     -12.101  15.463  70.893  1.00  0.00    -0.364 A  
HETATM   24  C   UNL     1     -11.456  15.642  68.909  1.00  0.00    -0.361 A  
HETATM   25  N   UNL     1     -12.553  15.451  69.606  1.00  0.00    -0.133 NA 
HETATM   26  N   UNL     1     -10.786  15.644  71.033  1.00  0.00    -0.232 NA 
ENDBRANCH   8  22
TORSDOF 2
ENDMDL
MODEL      162
REMARK 921   NORMALIZED FREE ENERGY PREDICTED BY IDOCK:    9.65 KCAL/MOL
REMARK 922        TOTAL FREE ENERGY PREDICTED BY IDOCK:   10.28 KCAL/MOL
REMARK 923 INTER-LIGAND FREE ENERGY PREDICTED BY IDOCK:    8.90 KCAL/MOL
REMARK 924 INTRA-LIGAND FREE ENERGY PREDICTED BY IDOCK:    1.38 KCAL/MOL
REMARK 927      BINDING AFFINITY PREDICTED BY RF-SCORE:    0.00 PKD
ROOT
HETATM    1  C   UNL     1      -8.053   9.119  72.122  1.00  0.00     0.522 C  
HETATM    2  C   UNL     1      -7.636   8.421  70.813  1.00  0.00    -0.071 C  
HETATM    3  C   UNL     1      -8.898   8.076  69.884  1.00  0.00    -0.144 C  
HETATM    4  C   UNL     1      -7.361   8.085  66.357  1.00  0.00    -0.083 A  
HETATM    5  O   UNL     1      -9.547   9.373  69.661  1.00  0.00    -0.167 OA 
HETATM    6  C   UNL     1      -7.481   6.753  65.988  1.00  0.00    -0.081 A  
HETATM    7  C   UNL     1      -8.410   7.581  68.514  1.00  0.00    -0.126 A  
HETATM    8  C   UNL     1      -9.972   7.221  70.617  1.00  0.00    -0.186 C  
HETATM    9  C   UNL     1      -7.821   8.495  67.609  1.00  0.00    -0.103 A  
HETATM   10  C   UNL     1      -8.460   6.237  68.116  1.00  0.00    -0.114 A  
HETATM   11  F   UNL     1      -7.046   6.361  64.784  1.00  0.00    -0.049 F  
HETATM   12  H   UNL     1     -10.294   9.169  69.111  1.00  0.00     0.000 HD 
HETATM   13  F   UNL     1      -8.894   5.288  68.953  1.00  0.00    -0.093 F  
HETATM   14  C   UNL     1      -8.026   5.824  66.858  1.00  0.00    -0.102 A  
ENDROOT
BRANCH   2  15
HETATM   15  N   UNL     1      -6.574   7.398  70.941  1.00  0.00    -0.043 NA 
HETATM   16  C   UNL     1      -6.649   5.379  73.126  1.00  0.00    -0.071 C  
HETATM   17  C   UNL     1      -6.192   6.790  73.401  1.00  0.00    -0.063 C  
HETATM   18  C   UNL     1      -6.360   4.356  73.945  1.00  0.00    -0.046 C  
HETATM   19  C   UNL     1      -5.718   7.533  72.135  1.00  0.00    -0.036 C  
HETATM   20  C   UNL     1      -7.454   5.191  71.864  1.00  0.00    -0.094 C  
HETATM   21  C   UNL     1      -6.870   5.986  70.686  1.00  0.00    -0.058 C  
ENDBRANCH   2  15
BRANCH   8  22
HETATM   22  N   UNL     1     -11.264   7.167  69.950  1.00  0.00    -0.240 NA 
HETATM   23  C   UNL     1     -12.769   6.586  68.642  1.00  0.00     6.237 A  
HETATM   24  C   UNL     1     -12.437   7.720  70.371  1.00  0.00     0.461 A  
HETATM   25  N   UNL     1     -13.405   7.381  69.550  1.00  0.00     3.877 NA 
HETATM   26  N   UNL     1     -11.462   6.418  68.849  1.00  0.00    -0.224 NA 
ENDBRANCH   8  22
TORSDOF 2
ENDMDL
MODEL      163
REMARK 921   NORMALIZED FREE ENERGY PREDICTED BY IDOCK:   11.45 KCAL/MOL
REMARK 922        TOTAL FREE ENERGY PREDICTED BY IDOCK:   12.29 KCAL/MOL
REMARK 923 INTER-LIGAND FREE ENERGY PREDICTED BY IDOCK:    4.19 KCAL/MOL
REMARK 924 INTRA-LIGAND FREE ENERGY PREDICTED BY IDOCK:    8.10 KCAL/MOL
REMARK 927      BINDING AFFINITY PREDICTED BY RF-SCORE:    0.00 PKD
ROOT
HETATM    1  C   UNL     1      -7.848   9.838  69.043  1.00  0.00    -0.087 C  
HETATM    2  C   UNL     1      -8.528   8.869  70.030  1.00  0.00    -0.139 C  
HETATM    3  C   UNL     1      -7.825   7.427  70.043  1.00  0.00    -0.104 C  
HETATM    4  C   UNL     1      -8.590   6.161  73.595  1.00  0.00    -0.124 A  
HETATM    5  O   UNL     1      -6.427   7.710  70.389  1.00  0.00    -0.037 OA 
HETATM    6  C   UNL     1      -9.431   5.087  73.342  1.00  0.00    -0.136 A  
HETATM    7  C   UNL     1      -8.404   6.581  71.187  1.00  0.00    -0.122 A  
HETATM    8  C   UNL     1      -7.755   6.776  68.631  1.00  0.00    -0.113 C  
HETATM    9  C   UNL     1      -8.081   6.902  72.527  1.00  0.00    -0.105 A  
HETATM   10  C   UNL     1      -9.300   5.520  70.987  1.00  0.00    -0.153 A  
HETATM   11  F   UNL     1      -9.914   4.373  74.366  1.00  0.00    -0.145 F  
HETATM   12  H   UNL     1      -6.011   6.856  70.397  1.00  0.00     0.000 HD 
HETATM   13  F   UNL     1      -9.750   5.223  69.762  1.00  0.00    -0.181 F  
HETATM   14  C   UNL     1      -9.792   4.761  72.046  1.00  0.00    -0.234 A  
ENDROOT
BRANCH   2  15
HETATM   15  N   UNL     1     -10.008   8.915  70.058  1.00  0.00    -0.183 NA 
HETATM   16  C   UNL     1     -11.627   6.565  69.215  1.00  0.00    -0.183 C  
HETATM   17  C   UNL     1     -10.994   7.469  68.186  1.00  0.00     0.031 C  
HETATM   18  C   UNL     1     -12.644   5.740  68.920  1.00  0.00     7.101 C  
HETATM   19  C   UNL     1     -10.657   8.871  68.734  1.00  0.00    -0.157 C  
HETATM   20  C   UNL     1     -11.042   6.650  70.602  1.00  0.00    -0.349 C  
HETATM   21  C   UNL     1     -10.756   8.101  71.018  1.00  0.00    -0.217 C  
ENDBRANCH   2  15
BRANCH   8  22
HETATM   22  N   UNL     1      -6.845   5.646  68.528  1.00  0.00    -0.057 NA 
HETATM   23  C   UNL     1      -5.740   3.967  69.053  1.00  0.00    -0.021 A  
HETATM   24  C   UNL     1      -6.349   5.083  67.389  1.00  0.00    -0.040 A  
HETATM   25  N   UNL     1      -5.632   4.026  67.694  1.00  0.00    -0.020 NA 
HETATM   26  N   UNL     1      -6.479   4.930  69.607  1.00  0.00    -0.034 NA 
ENDBRANCH   8  22
TORSDOF 2
ENDMDL
MODEL      164
REMARK 921   NORMALIZED FREE ENERGY PREDICTED BY IDOCK:   11.91 KCAL/MOL
REMARK 922        TOTAL FREE ENERGY PREDICTED BY IDOCK:   12.80 KCAL/MOL
REMARK 923 INTER-LIGAND FREE ENERGY PREDICTED BY IDOCK:    9.39 KCAL/MOL
REMARK 924 INTRA-LIGAND FREE ENERGY PREDICTED BY IDOCK:    3.41 KCAL/MOL
REMARK 927      BINDING AFFINITY PREDICTED BY RF-SCORE:    0.00 PKD
ROOT
HETATM    1  C   UNL     1      -9.137  12.196  70.964  1.00  0.00    10.596 C  
HETATM    2  C   UNL     1      -9.924  11.032  70.329  1.00  0.00     1.362 C  
HETATM    3  C   UNL     1      -8.960   9.984  69.591  1.00  0.00    -0.202 C  
HETATM    4  C   UNL     1     -10.971   6.711  69.805  1.00  0.00    -0.367 A  
HETATM    5  O   UNL     1      -8.033   9.543  70.641  1.00  0.00    -0.176 OA 
HETATM    6  C   UNL     1     -11.267   6.468  68.471  1.00  0.00    -0.197 A  
HETATM    7  C   UNL     1      -9.769   8.749  69.165  1.00  0.00    -0.175 A  
HETATM    8  C   UNL     1      -8.049  10.650  68.519  1.00  0.00    -0.125 C  
HETATM    9  C   UNL     1     -10.229   7.842  70.149  1.00  0.00    -0.205 A  
HETATM   10  C   UNL     1     -10.140   8.487  67.838  1.00  0.00    -0.207 A  
HETATM   11  F   UNL     1     -11.974   5.379  68.141  1.00  0.00     1.750 F  
HETATM   12  H   UNL     1      -7.462   8.922  70.204  1.00  0.00     0.000 HD 
HETATM   13  F   UNL     1      -9.847   9.352  66.860  1.00  0.00    -0.198 F  
HETATM   14  C   UNL     1     -10.858   7.348  67.484  1.00  0.00    -0.257 A  
ENDROOT
BRANCH   2  15
HETATM   15  N   UNL     1     -11.185  11.405  69.650  1.00  0.00    -0.252 NA 
HETATM   16  C   UNL     1     -11.155  12.967  67.116  1.00  0.00    -0.309 C  
HETATM   17  C   UNL     1     -10.935  13.651  68.443  1.00  0.00    -0.284 C  
HETATM   18  C   UNL     1     -11.519  13.636  66.011  1.00  0.00    -0.340 C  
HETATM   19  C   UNL     1     -11.484  12.850  69.640  1.00  0.00    -0.181 C  
HETATM   20  C   UNL     1     -10.942  11.473  67.113  1.00  0.00    -0.338 C  
HETATM   21  C   UNL     1     -11.539  10.805  68.361  1.00  0.00    -0.239 C  
ENDBRANCH   2  15
BRANCH   8  22
HETATM   22  N   UNL     1      -6.938   9.826  68.068  1.00  0.00    -0.077 NA 
HETATM   23  C   UNL     1      -5.320   9.164  66.946  1.00  0.00    -0.039 A  
HETATM   24  C   UNL     1      -6.325   8.817  68.750  1.00  0.00    -0.049 A  
HETATM   25  N   UNL     1      -5.306   8.368  68.054  1.00  0.00    -0.034 NA 
HETATM   26  N   UNL     1      -6.293  10.076  66.913  1.00  0.00    -0.064 NA 
ENDBRANCH   8  22
TORSDOF 2
ENDMDL
MODEL      165
REMARK 921   NORMALIZED FREE ENERGY PREDICTED BY IDOCK:   13.85 KCAL/MOL
REMARK 922        TOTAL FREE ENERGY PREDICTED BY IDOCK:   14.97 KCAL/MOL
REMARK 923 INTER-LIGAND FREE ENERGY PREDICTED BY IDOCK:   14.68 KCAL/MOL
REMARK 924 INTRA-LIGAND FREE ENERGY PREDICTED BY IDOCK:    0.29 KCAL/MOL
REMARK 927      BINDING AFFINITY PREDICTED BY RF-SCORE:    0.00 PKD
ROOT
HETATM    1  C   UNL     1     -10.582  16.418  66.707  1.00  0.00    -0.238 C  
HETATM    2  C   UNL     1      -9.793  15.223  67.279  1.00  0.00    -0.220 C  
HETATM    3  C   UNL     1      -9.828  13.953  66.299  1.00  0.00    -0.306 C  
HETATM    4  C   UNL     1      -6.550  12.138  67.175  1.00  0.00    -0.127 A  
HETATM    5  O   UNL     1      -9.273  14.455  65.036  1.00  0.00     0.127 OA 
HETATM    6  C   UNL     1      -7.017  10.961  67.743  1.00  0.00    -0.077 A  
HETATM    7  C   UNL     1      -8.860  12.877  66.814  1.00  0.00    -0.152 A  
HETATM    8  C   UNL     1     -11.275  13.506  65.941  1.00  0.00    -0.300 C  
HETATM    9  C   UNL     1      -7.464  13.088  66.715  1.00  0.00     0.526 A  
HETATM   10  C   UNL     1      -9.280  11.697  67.444  1.00  0.00    -0.168 A  
HETATM   11  F   UNL     1      -6.140  10.048  68.178  1.00  0.00    -0.048 F  
HETATM   12  H   UNL     1      -9.293  13.703  64.457  1.00  0.00     0.000 HD 
HETATM   13  F   UNL     1     -10.576  11.471  67.684  1.00  0.00    -0.196 F  
HETATM   14  C   UNL     1      -8.375  10.733  67.883  1.00  0.00    -0.117 A  
ENDROOT
BRANCH   2  15
HETATM   15  N   UNL     1      -9.958  14.980  68.730  1.00  0.00    -0.221 NA 
HETATM   16  C   UNL     1      -9.320  17.099  70.719  1.00  0.00     4.285 C  
HETATM   17  C   UNL     1      -8.218  16.296  70.073  1.00  0.00     1.111 C  
HETATM   18  C   UNL     1      -9.139  17.783  71.860  1.00  0.00    12.208 C  
HETATM   19  C   UNL     1      -8.701  14.948  69.503  1.00  0.00     0.022 C  
HETATM   20  C   UNL     1     -10.644  17.081  69.998  1.00  0.00     0.176 C  
HETATM   21  C   UNL     1     -11.001  15.678  69.485  1.00  0.00    -0.281 C  
ENDBRANCH   2  15
BRANCH   8  22
HETATM   22  N   UNL     1     -11.366  12.594  64.811  1.00  0.00    -0.301 NA 
HETATM   23  C   UNL     1     -12.037  11.717  63.051  1.00  0.00     0.075 A  
HETATM   24  C   UNL     1     -10.424  11.704  64.386  1.00  0.00    -0.322 A  
HETATM   25  N   UNL     1     -10.830  11.122  63.281  1.00  0.00    -0.182 NA 
HETATM   26  N   UNL     1     -12.402  12.630  63.953  1.00  0.00    -0.591 NA 
ENDBRANCH   8  22
TORSDOF 2
ENDMDL
MODEL      166
REMARK 921   NORMALIZED FREE ENERGY PREDICTED BY IDOCK:   14.45 KCAL/MOL
REMARK 922        TOTAL FREE ENERGY PREDICTED BY IDOCK:   15.64 KCAL/MOL
REMARK 923 INTER-LIGAND FREE ENERGY PREDICTED BY IDOCK:    4.56 KCAL/MOL
REMARK 924 INTRA-LIGAND FREE ENERGY PREDICTED BY IDOCK:   11.08 KCAL/MOL
REMARK 927      BINDING AFFINITY PREDICTED BY RF-SCORE:    0.00 PKD
ROOT
HETATM    1  C   UNL     1      -5.244   8.893  66.433  1.00  0.00    -0.034 C  
HETATM    2  C   UNL     1      -6.627   9.285  66.990  1.00  0.00    -0.068 C  
HETATM    3  C   UNL     1      -7.772   8.253  66.546  1.00  0.00    -0.092 C  
HETATM    4  C   UNL     1     -10.330   8.569  69.403  1.00  0.00    -0.218 A  
HETATM    5  O   UNL     1      -7.301   6.954  67.042  1.00  0.00    -0.082 OA 
HETATM    6  C   UNL     1     -11.418   9.133  68.753  1.00  0.00     0.635 A  
HETATM    7  C   UNL     1      -9.073   8.571  67.298  1.00  0.00    -0.152 A  
HETATM    8  C   UNL     1      -7.859   8.075  65.002  1.00  0.00    -0.123 C  
HETATM    9  C   UNL     1      -9.167   8.291  68.682  1.00  0.00    -0.143 A  
HETATM   10  C   UNL     1     -10.181   9.189  66.699  1.00  0.00    -0.258 A  
HETATM   11  F   UNL     1     -12.536   9.393  69.443  1.00  0.00     0.657 F  
HETATM   12  H   UNL     1      -7.979   6.344  66.779  1.00  0.00     0.000 HD 
HETATM   13  F   UNL     1     -10.135   9.594  65.424  1.00  0.00    -0.376 F  
HETATM   14  C   UNL     1     -11.354   9.447  67.406  1.00  0.00     0.739 A  
ENDROOT
BRANCH   2  15
HETATM   15  N   UNL     1      -6.948  10.730  66.953  1.00  0.00    -0.102 NA 
HETATM   16  C   UNL     1      -9.734  11.665  66.485  1.00  0.00    -0.227 C  
HETATM   17  C   UNL     1      -8.882  11.186  65.336  1.00  0.00    -0.110 C  
HETATM   18  C   UNL     1     -10.824  12.428  66.305  1.00  0.00    -0.299 C  
HETATM   19  C   UNL     1      -7.370  11.240  65.635  1.00  0.00     0.389 C  
HETATM   20  C   UNL     1      -9.278  11.232  67.856  1.00  0.00    -0.157 C  
HETATM   21  C   UNL     1      -7.754  11.337  68.015  1.00  0.00    -0.108 C  
ENDBRANCH   2  15
BRANCH   8  22
HETATM   22  N   UNL     1      -8.631   6.921  64.567  1.00  0.00     0.212 NA 
HETATM   23  C   UNL     1      -9.860   5.711  63.408  1.00  0.00     1.946 A  
HETATM   24  C   UNL     1      -8.568   5.649  65.055  1.00  0.00    -0.108 A  
HETATM   25  N   UNL     1      -9.350   4.865  64.349  1.00  0.00     0.008 NA 
HETATM   26  N   UNL     1      -9.443   6.976  63.495  1.00  0.00     2.629 NA 
ENDBRANCH   8  22
TORSDOF 2
ENDMDL
MODEL      167
REMARK 921   NORMALIZED FREE ENERGY PREDICTED BY IDOCK:   16.80 KCAL/MOL
REMARK 922        TOTAL FREE ENERGY PREDICTED BY IDOCK:   18.26 KCAL/MOL
REMARK 923 INTER-LIGAND FREE ENERGY PREDICTED BY IDOCK:   18.13 KCAL/MOL
REMARK 924 INTRA-LIGAND FREE ENERGY PREDICTED BY IDOCK:    0.13 KCAL/MOL
REMARK 927      BINDING AFFINITY PREDICTED BY RF-SCORE:    0.00 PKD
ROOT
HETATM    1  C   UNL     1      -8.258  11.513  66.132  1.00  0.00     0.018 C  
HETATM    2  C   UNL     1      -8.501  12.996  65.788  1.00  0.00     1.500 C  
HETATM    3  C   UNL     1      -8.434  13.936  67.086  1.00  0.00    -0.180 C  
HETATM    4  C   UNL     1      -7.340  17.316  65.609  1.00  0.00     0.464 A  
HETATM    5  O   UNL     1      -7.099  13.689  67.643  1.00  0.00    -0.148 OA 
HETATM    6  C   UNL     1      -8.461  18.103  65.832  1.00  0.00     0.155 A  
HETATM    7  C   UNL     1      -8.471  15.411  66.658  1.00  0.00    -0.296 A  
HETATM    8  C   UNL     1      -9.416  13.489  68.208  1.00  0.00    -0.212 C  
HETATM    9  C   UNL     1      -7.345  15.982  66.018  1.00  0.00     1.375 A  
HETATM   10  C   UNL     1      -9.597  16.233  66.812  1.00  0.00    -0.239 A  
HETATM   11  F   UNL     1      -8.453  19.385  65.445  1.00  0.00     0.059 F  
HETATM   12  H   UNL     1      -7.059  14.246  68.411  1.00  0.00     0.000 HD 
HETATM   13  F   UNL     1     -10.743  15.743  67.300  1.00  0.00    -0.295 F  
HETATM   14  C   UNL     1      -9.591  17.572  66.429  1.00  0.00    -0.283 A  
ENDROOT
BRANCH   2  15
HETATM   15  N   UNL     1      -9.573  13.259  64.801  1.00  0.00     0.206 NA 
HETATM   16  C   UNL     1     -11.702  11.244  64.283  1.00  0.00     0.193 C  
HETATM   17  C   UNL     1     -10.328  11.080  63.682  1.00  0.00    -0.415 C  
HETATM   18  C   UNL     1     -12.779  10.603  63.803  1.00  0.00     4.198 C  
HETATM   19  C   UNL     1      -9.538  12.402  63.600  1.00  0.00     0.288 C  
HETATM   20  C   UNL     1     -11.788  12.183  65.460  1.00  0.00    -0.350 C  
HETATM   21  C   UNL     1     -10.956  13.456  65.243  1.00  0.00    -0.295 C  
ENDBRANCH   2  15
BRANCH   8  22
HETATM   22  N   UNL     1      -9.161  14.084  69.511  1.00  0.00     0.634 NA 
HETATM   23  C   UNL     1      -8.400  14.357  71.424  1.00  0.00     4.945 A  
HETATM   24  C   UNL     1      -9.437  15.360  69.907  1.00  0.00    -0.052 A  
HETATM   25  N   UNL     1      -8.980  15.554  71.123  1.00  0.00     2.653 NA 
HETATM   26  N   UNL     1      -8.476  13.430  70.467  1.00  0.00     4.203 NA 
ENDBRANCH   8  22
TORSDOF 2
ENDMDL
MODEL      168
REMARK 921   NORMALIZED FREE ENERGY PREDICTED BY IDOCK:   25.54 KCAL/MOL
REMARK 922        TOTAL FREE ENERGY PREDICTED BY IDOCK:   28.02 KCAL/MOL
REMARK 923 INTER-LIGAND FREE ENERGY PREDICTED BY IDOCK:   27.76 KCAL/MOL
REMARK 924 INTRA-LIGAND FREE ENERGY PREDICTED BY IDOCK:    0.26 KCAL/MOL
REMARK 927      BINDING AFFINITY PREDICTED BY RF-SCORE:    0.00 PKD
ROOT
HETATM    1  C   UNL     1     -10.463  15.177  66.961  1.00  0.00    -0.282 C  
HETATM    2  C   UNL     1     -10.124  14.010  67.909  1.00  0.00    -0.237 C  
HETATM    3  C   UNL     1     -10.415  12.583  67.237  1.00  0.00    -0.220 C  
HETATM    4  C   UNL     1      -7.924  10.284  69.058  1.00  0.00    -0.125 A  
HETATM    5  O   UNL     1      -9.601  12.584  66.016  1.00  0.00    -0.276 OA 
HETATM    6  C   UNL     1      -8.772   9.452  69.775  1.00  0.00    -0.181 A  
HETATM    7  C   UNL     1      -9.864  11.467  68.138  1.00  0.00    -0.195 A  
HETATM    8  C   UNL     1     -11.880  12.440  66.731  1.00  0.00    -0.315 C  
HETATM    9  C   UNL     1      -8.465  11.283  68.247  1.00  0.00    -0.152 A  
HETATM   10  C   UNL     1     -10.676  10.635  68.923  1.00  0.00    -0.219 A  
HETATM   11  F   UNL     1      -8.253   8.489  70.547  1.00  0.00    -0.092 F  
HETATM   12  H   UNL     1      -9.773  11.739  65.619  1.00  0.00     0.000 HD 
HETATM   13  F   UNL     1     -12.001  10.815  68.970  1.00  0.00    -0.343 F  
HETATM   14  C   UNL     1     -10.145   9.619  69.715  1.00  0.00    -0.258 A  
ENDROOT
BRANCH   2  15
HETATM   15  N   UNL     1     -10.514  14.199  69.325  1.00  0.00    -0.129 NA 
HETATM   16  C   UNL     1     -11.071  16.914  70.409  1.00  0.00     0.336 C  
HETATM   17  C   UNL     1      -9.651  16.443  70.211  1.00  0.00     1.190 C  
HETATM   18  C   UNL     1     -11.384  17.939  71.217  1.00  0.00     3.185 C  
HETATM   19  C   UNL     1      -9.521  14.908  70.155  1.00  0.00     0.546 C  
HETATM   20  C   UNL     1     -12.121  16.152  69.640  1.00  0.00     0.023 C  
HETATM   21  C   UNL     1     -11.869  14.637  69.668  1.00  0.00    -0.320 C  
ENDBRANCH   2  15
BRANCH   8  22
HETATM   22  N   UNL     1     -12.104  11.322  65.828  1.00  0.00     0.558 NA 
HETATM   23  C   UNL     1     -13.043  10.054  64.477  1.00  0.00    11.732 A  
HETATM   24  C   UNL     1     -11.170  10.473  65.312  1.00  0.00     0.816 A  
HETATM   25  N   UNL     1     -11.741   9.648  64.465  1.00  0.00     6.946 NA 
HETATM   26  N   UNL     1     -13.313  11.079  65.287  1.00  0.00     5.769 NA 
ENDBRANCH   8  22
TORSDOF 2
ENDMDL
MODEL      169
REMARK 921   NORMALIZED FREE ENERGY PREDICTED BY IDOCK:   34.99 KCAL/MOL
REMARK 922        TOTAL FREE ENERGY PREDICTED BY IDOCK:   38.58 KCAL/MOL
REMARK 923 INTER-LIGAND FREE ENERGY PREDICTED BY IDOCK:   27.97 KCAL/MOL
REMARK 924 INTRA-LIGAND FREE ENERGY PREDICTED BY IDOCK:   10.60 KCAL/MOL
REMARK 927      BINDING AFFINITY PREDICTED BY RF-SCORE:    0.00 PKD
ROOT
HETATM    1  C   UNL     1      -8.366   9.119  65.757  1.00  0.00    -0.131 C  
HETATM    2  C   UNL     1      -8.995   7.808  66.268  1.00  0.00    -0.174 C  
HETATM    3  C   UNL     1      -8.218   6.514  65.725  1.00  0.00    -0.135 C  
HETATM    4  C   UNL     1      -8.915   3.911  68.472  1.00  0.00    -0.167 A  
HETATM    5  O   UNL     1      -6.836   6.703  66.183  1.00  0.00    -0.057 OA 
HETATM    6  C   UNL     1      -9.699   2.986  67.799  1.00  0.00     0.124 A  
HETATM    7  C   UNL     1      -8.752   5.257  66.430  1.00  0.00    -0.118 A  
HETATM    8  C   UNL     1      -8.115   6.477  64.172  1.00  0.00    -0.042 C  
HETATM    9  C   UNL     1      -8.445   5.037  67.794  1.00  0.00    -0.104 A  
HETATM   10  C   UNL     1      -9.591   4.321  65.809  1.00  0.00    -0.189 A  
HETATM   11  F   UNL     1     -10.143   1.903  68.448  1.00  0.00    -0.112 F  
HETATM   12  H   UNL     1      -6.376   5.936  65.861  1.00  0.00     0.000 HD 
HETATM   13  F   UNL     1     -10.025   4.510  64.558  1.00  0.00    -0.161 F  
HETATM   14  C   UNL     1     -10.043   3.181  66.472  1.00  0.00     0.908 A  
ENDROOT
BRANCH   2  15
HETATM   15  N   UNL     1     -10.475   7.768  66.282  1.00  0.00     0.278 NA 
HETATM   16  C   UNL     1     -11.940   5.212  65.858  1.00  0.00     2.680 C  
HETATM   17  C   UNL     1     -11.347   5.960  64.689  1.00  0.00     5.184 C  
HETATM   18  C   UNL     1     -12.903   4.288  65.709  1.00  0.00    10.776 C  
HETATM   19  C   UNL     1     -11.102   7.453  64.984  1.00  0.00     8.663 C  
HETATM   20  C   UNL     1     -11.381   5.574  67.211  1.00  0.00     0.971 C  
HETATM   21  C   UNL     1     -11.188   7.090  67.367  1.00  0.00    -0.079 C  
ENDBRANCH   2  15
BRANCH   8  22
HETATM   22  N   UNL     1      -7.147   5.525  63.650  1.00  0.00    -0.046 NA 
HETATM   23  C   UNL     1      -5.412   4.397  63.468  1.00  0.00    -0.013 A  
HETATM   24  C   UNL     1      -7.360   4.556  62.715  1.00  0.00    -0.044 A  
HETATM   25  N   UNL     1      -6.271   3.836  62.568  1.00  0.00    -0.017 NA 
HETATM   26  N   UNL     1      -5.905   5.426  64.159  1.00  0.00    -0.021 NA 
ENDBRANCH   8  22
TORSDOF 2
ENDMDL
MODEL      170
REMARK 921   NORMALIZED FREE ENERGY PREDICTED BY IDOCK:   41.85 KCAL/MOL
REMARK 922        TOTAL FREE ENERGY PREDICTED BY IDOCK:   46.24 KCAL/MOL
REMARK 923 INTER-LIGAND FREE ENERGY PREDICTED BY IDOCK:   43.51 KCAL/MOL
REMARK 924 INTRA-LIGAND FREE ENERGY PREDICTED BY IDOCK:    2.73 KCAL/MOL
REMARK 927      BINDING AFFINITY PREDICTED BY RF-SCORE:    0.00 PKD
ROOT
HETATM    1  C   UNL     1      -9.104  12.099  72.756  1.00  0.00    25.953 C  
HETATM    2  C   UNL     1     -10.062  11.032  72.190  1.00  0.00    10.173 C  
HETATM    3  C   UNL     1      -9.277   9.860  71.427  1.00  0.00     1.612 C  
HETATM    4  C   UNL     1     -11.662   6.866  71.825  1.00  0.00    -0.338 A  
HETATM    5  O   UNL     1      -8.355   9.325  72.437  1.00  0.00    -0.006 OA 
HETATM    6  C   UNL     1     -12.059   6.640  70.515  1.00  0.00    -0.240 A  
HETATM    7  C   UNL     1     -10.255   8.728  71.074  1.00  0.00    -0.301 A  
HETATM    8  C   UNL     1      -8.352  10.390  70.293  1.00  0.00     0.636 C  
HETATM    9  C   UNL     1     -10.768   7.902  72.102  1.00  0.00    -0.316 A  
HETATM   10  C   UNL     1     -10.728   8.492  69.775  1.00  0.00    -0.213 A  
HETATM   11  F   UNL     1     -12.911   5.642  70.248  1.00  0.00     2.039 F  
HETATM   12  H   UNL     1      -7.890   8.631  71.985  1.00  0.00     0.000 HD 
HETATM   13  F   UNL     1     -10.385   9.298  68.763  1.00  0.00    -0.193 F  
HETATM   14  C   UNL     1     -11.600   7.445  69.487  1.00  0.00     0.285 A  
ENDROOT
BRANCH   2  15
HETATM   15  N   UNL     1     -11.304  11.547  71.570  1.00  0.00     2.181 NA 
HETATM   16  C   UNL     1     -11.209  13.170  69.077  1.00  0.00    -0.309 C  
HETATM   17  C   UNL     1     -10.873  13.791  70.410  1.00  0.00     0.918 C  
HETATM   18  C   UNL     1     -11.544  13.903  68.004  1.00  0.00    -0.368 C  
HETATM   19  C   UNL     1     -11.457  13.015  71.608  1.00  0.00     2.933 C  
HETATM   20  C   UNL     1     -11.147  11.663  69.029  1.00  0.00    -0.297 C  
HETATM   21  C   UNL     1     -11.762  11.022  70.282  1.00  0.00    -0.355 C  
ENDBRANCH   2  15
BRANCH   8  22
HETATM   22  N   UNL     1      -7.378   9.426  69.804  1.00  0.00    -0.073 NA 
HETATM   23  C   UNL     1      -6.542   7.625  69.190  1.00  0.00    -0.040 A  
HETATM   24  C   UNL     1      -6.184   9.688  69.201  1.00  0.00    -0.041 A  
HETATM   25  N   UNL     1      -5.625   8.564  68.817  1.00  0.00    -0.039 NA 
HETATM   26  N   UNL     1      -7.635   8.105  69.789  1.00  0.00    -0.088 NA 
ENDBRANCH   8  22
TORSDOF 2
ENDMDL
MODEL      171
REMARK 921   NORMALIZED FREE ENERGY PREDICTED BY IDOCK:   42.21 KCAL/MOL
REMARK 922        TOTAL FREE ENERGY PREDICTED BY IDOCK:   46.65 KCAL/MOL
REMARK 923 INTER-LIGAND FREE ENERGY PREDICTED BY IDOCK:   46.92 KCAL/MOL
REMARK 924 INTRA-LIGAND FREE ENERGY PREDICTED BY IDOCK:   -0.27 KCAL/MOL
REMARK 927      BINDING AFFINITY PREDICTED BY RF-SCORE:    0.00 PKD
ROOT
HETATM    1  C   UNL     1     -11.321  16.190  66.870  1.00  0.00     0.262 C  
HETATM    2  C   UNL     1     -10.207  15.228  66.413  1.00  0.00    -0.277 C  
HETATM    3  C   UNL     1     -10.791  13.821  65.913  1.00  0.00    -0.283 C  
HETATM    4  C   UNL     1      -8.114  12.651  63.410  1.00  0.00     5.627 A  
HETATM    5  O   UNL     1     -11.719  14.177  64.833  1.00  0.00    -0.355 OA 
HETATM    6  C   UNL     1      -7.595  11.532  64.046  1.00  0.00     1.941 A  
HETATM    7  C   UNL     1      -9.666  12.991  65.277  1.00  0.00     0.003 A  
HETATM    8  C   UNL     1     -11.683  13.122  66.981  1.00  0.00    -0.377 C  
HETATM    9  C   UNL     1      -9.140  13.374  64.020  1.00  0.00     3.607 A  
HETATM   10  C   UNL     1      -9.072  11.885  65.902  1.00  0.00    -0.083 A  
HETATM   11  F   UNL     1      -6.616  10.834  63.457  1.00  0.00    -0.060 F  
HETATM   12  H   UNL     1     -12.065  13.344  64.537  1.00  0.00     0.000 HD 
HETATM   13  F   UNL     1      -9.427  11.524  67.141  1.00  0.00    -0.171 F  
HETATM   14  C   UNL     1      -8.065  11.143  65.288  1.00  0.00     0.267 A  
ENDROOT
BRANCH   2  15
HETATM   15  N   UNL     1      -8.989  15.209  67.256  1.00  0.00    -0.189 NA 
HETATM   16  C   UNL     1      -7.505  17.718  67.856  1.00  0.00    -0.210 C  
HETATM   17  C   UNL     1      -7.349  17.035  66.519  1.00  0.00    -0.320 C  
HETATM   18  C   UNL     1      -6.612  18.608  68.318  1.00  0.00    -0.233 C  
HETATM   19  C   UNL     1      -7.738  15.543  66.549  1.00  0.00     0.224 C  
HETATM   20  C   UNL     1      -8.732  17.332  68.643  1.00  0.00    -0.268 C  
HETATM   21  C   UNL     1      -8.999  15.820  68.587  1.00  0.00    -0.204 C  
ENDBRANCH   2  15
BRANCH   8  22
HETATM   22  N   UNL     1     -12.499  12.031  66.471  1.00  0.00     0.294 NA 
HETATM   23  C   UNL     1     -13.207  10.538  65.212  1.00  0.00    10.251 A  
HETATM   24  C   UNL     1     -13.389  11.267  67.167  1.00  0.00     9.441 A  
HETATM   25  N   UNL     1     -13.865  10.324  66.388  1.00  0.00    17.672 NA 
HETATM   26  N   UNL     1     -12.354  11.565  65.217  1.00  0.00     0.359 NA 
ENDBRANCH   8  22
TORSDOF 2
ENDMDL
MODEL      172
REMARK 921   NORMALIZED FREE ENERGY PREDICTED BY IDOCK:   43.28 KCAL/MOL
REMARK 922        TOTAL FREE ENERGY PREDICTED BY IDOCK:   47.84 KCAL/MOL
REMARK 923 INTER-LIGAND FREE ENERGY PREDICTED BY IDOCK:   47.89 KCAL/MOL
REMARK 924 INTRA-LIGAND FREE ENERGY PREDICTED BY IDOCK:   -0.05 KCAL/MOL
REMARK 927      BINDING AFFINITY PREDICTED BY RF-SCORE:    0.00 PKD
ROOT
HETATM    1  C   UNL     1      -6.793  10.006  67.732  1.00  0.00    -0.076 C  
HETATM    2  C   UNL     1      -7.597  10.979  66.847  1.00  0.00    -0.133 C  
HETATM    3  C   UNL     1      -7.215  12.511  67.132  1.00  0.00    -0.057 C  
HETATM    4  C   UNL     1      -7.997  14.203  63.766  1.00  0.00    15.702 A  
HETATM    5  O   UNL     1      -5.769  12.575  66.887  1.00  0.00    -0.429 OA 
HETATM    6  C   UNL     1      -9.061  15.029  64.100  1.00  0.00     7.053 A  
HETATM    7  C   UNL     1      -7.884  13.414  66.084  1.00  0.00     2.034 A  
HETATM    8  C   UNL     1      -7.376  12.906  68.629  1.00  0.00    -0.099 C  
HETATM    9  C   UNL     1      -7.414  13.402  64.749  1.00  0.00    11.256 A  
HETATM   10  C   UNL     1      -8.995  14.225  66.358  1.00  0.00    -0.061 A  
HETATM   11  F   UNL     1      -9.616  15.802  63.158  1.00  0.00     7.416 F  
HETATM   12  H   UNL     1      -5.543  13.482  67.055  1.00  0.00     0.000 HD 
HETATM   13  F   UNL     1      -9.576  14.209  67.564  1.00  0.00    -0.208 F  
HETATM   14  C   UNL     1      -9.566  15.046  65.389  1.00  0.00    -0.112 A  
ENDROOT
BRANCH   2  15
HETATM   15  N   UNL     1      -9.029  10.648  66.665  1.00  0.00    -0.149 NA 
HETATM   16  C   UNL     1      -9.856   8.089  65.391  1.00  0.00     1.134 C  
HETATM   17  C   UNL     1      -9.371   9.244  64.549  1.00  0.00     0.042 C  
HETATM   18  C   UNL     1     -10.577   7.078  64.880  1.00  0.00     5.861 C  
HETATM   19  C   UNL     1      -9.485  10.606  65.262  1.00  0.00    -0.221 C  
HETATM   20  C   UNL     1      -9.480   8.146  66.850  1.00  0.00    -0.244 C  
HETATM   21  C   UNL     1      -9.641   9.560  67.430  1.00  0.00    -0.141 C  
ENDBRANCH   2  15
BRANCH   8  22
HETATM   22  N   UNL     1      -6.733  14.158  68.999  1.00  0.00    -0.102 NA 
HETATM   23  C   UNL     1      -6.082  16.128  68.903  1.00  0.00    -0.125 A  
HETATM   24  C   UNL     1      -6.272  14.520  70.230  1.00  0.00    -0.176 A  
HETATM   25  N   UNL     1      -5.839  15.758  70.193  1.00  0.00    -0.161 NA 
HETATM   26  N   UNL     1      -6.637  15.187  68.137  1.00  0.00    -0.112 NA 
ENDBRANCH   8  22
TORSDOF 2
ENDMDL
MODEL      173
REMARK 921   NORMALIZED FREE ENERGY PREDICTED BY IDOCK:   52.85 KCAL/MOL
REMARK 922        TOTAL FREE ENERGY PREDICTED BY IDOCK:   58.53 KCAL/MOL
REMARK 923 INTER-LIGAND FREE ENERGY PREDICTED BY IDOCK:   53.82 KCAL/MOL
REMARK 924 INTRA-LIGAND FREE ENERGY PREDICTED BY IDOCK:    4.71 KCAL/MOL
REMARK 927      BINDING AFFINITY PREDICTED BY RF-SCORE:    0.00 PKD
ROOT
HETATM    1  C   UNL     1      -7.822  13.094  73.618  1.00  0.00    11.244 C  
HETATM    2  C   UNL     1      -7.845  13.652  72.181  1.00  0.00     9.111 C  
HETATM    3  C   UNL     1      -9.290  13.510  71.500  1.00  0.00    11.110 C  
HETATM    4  C   UNL     1      -9.307  16.410  68.971  1.00  0.00    -0.248 A  
HETATM    5  O   UNL     1     -10.191  14.229  72.409  1.00  0.00     3.272 OA 
HETATM    6  C   UNL     1      -9.330  15.734  67.760  1.00  0.00    -0.206 A  
HETATM    7  C   UNL     1      -9.308  14.268  70.164  1.00  0.00     1.574 A  
HETATM    8  C   UNL     1      -9.818  12.046  71.503  1.00  0.00    12.135 C  
HETATM    9  C   UNL     1      -9.296  15.683  70.163  1.00  0.00     0.408 A  
HETATM   10  C   UNL     1      -9.277  13.633  68.914  1.00  0.00     0.171 A  
HETATM   11  F   UNL     1      -9.347  16.431  66.617  1.00  0.00    -0.224 F  
HETATM   12  H   UNL     1     -11.047  14.145  72.005  1.00  0.00     0.000 HD 
HETATM   13  F   UNL     1      -9.170  12.302  68.823  1.00  0.00    -0.149 F  
HETATM   14  C   UNL     1      -9.313  14.350  67.720  1.00  0.00    -0.200 A  
ENDROOT
BRANCH   2  15
HETATM   15  N   UNL     1      -6.658  13.341  71.352  1.00  0.00     1.129 NA 
HETATM   16  C   UNL     1      -6.472  10.779  69.849  1.00  0.00    -0.135 C  
HETATM   17  C   UNL     1      -6.203  10.819  71.333  1.00  0.00     0.727 C  
HETATM   18  C   UNL     1      -6.053   9.771  69.068  1.00  0.00    -0.041 C  
HETATM   19  C   UNL     1      -5.829  12.225  71.846  1.00  0.00     1.289 C  
HETATM   20  C   UNL     1      -7.244  11.952  69.297  1.00  0.00     0.039 C  
HETATM   21  C   UNL     1      -6.768  13.285  69.893  1.00  0.00     0.201 C  
ENDBRANCH   2  15
BRANCH   8  22
HETATM   22  N   UNL     1     -11.237  11.911  71.213  1.00  0.00     2.416 NA 
HETATM   23  C   UNL     1     -13.115  12.283  70.404  1.00  0.00     0.620 A  
HETATM   24  C   UNL     1     -12.038  10.838  71.471  1.00  0.00    -0.102 A  
HETATM   25  N   UNL     1     -13.238  11.054  70.984  1.00  0.00    -0.140 NA 
HETATM   26  N   UNL     1     -11.908  12.843  70.510  1.00  0.00    -0.182 NA 
ENDBRANCH   8  22
TORSDOF 2
ENDMDL
MODEL      174
REMARK 921   NORMALIZED FREE ENERGY PREDICTED BY IDOCK:   63.01 KCAL/MOL
REMARK 922        TOTAL FREE ENERGY PREDICTED BY IDOCK:   69.87 KCAL/MOL
REMARK 923 INTER-LIGAND FREE ENERGY PREDICTED BY IDOCK:   69.15 KCAL/MOL
REMARK 924 INTRA-LIGAND FREE ENERGY PREDICTED BY IDOCK:    0.73 KCAL/MOL
REMARK 927      BINDING AFFINITY PREDICTED BY RF-SCORE:    0.00 PKD
ROOT
HETATM    1  C   UNL     1      -6.959   9.931  67.936  1.00  0.00    -0.081 C  
HETATM    2  C   UNL     1      -8.149  10.871  67.660  1.00  0.00    -0.115 C  
HETATM    3  C   UNL     1      -8.471  11.822  68.911  1.00  0.00     0.099 C  
HETATM    4  C   UNL     1     -10.070  14.893  67.232  1.00  0.00    -0.235 A  
HETATM    5  O   UNL     1      -7.214  12.543  69.150  1.00  0.00    -0.271 OA 
HETATM    6  C   UNL     1     -11.373  14.833  67.705  1.00  0.00    -0.330 A  
HETATM    7  C   UNL     1      -9.516  12.873  68.506  1.00  0.00    -0.098 A  
HETATM    8  C   UNL     1      -8.723  11.028  70.225  1.00  0.00     2.152 C  
HETATM    9  C   UNL     1      -9.149  13.921  67.629  1.00  0.00    -0.197 A  
HETATM   10  C   UNL     1     -10.857  12.826  68.913  1.00  0.00    -0.196 A  
HETATM   11  F   UNL     1     -12.254  15.769  67.330  1.00  0.00     0.194 F  
HETATM   12  H   UNL     1      -7.405  13.106  69.890  1.00  0.00     0.000 HD 
HETATM   13  F   UNL     1     -11.317  11.806  69.648  1.00  0.00    -0.293 F  
HETATM   14  C   UNL     1     -11.775  13.806  68.542  1.00  0.00    -0.391 A  
ENDROOT
BRANCH   2  15
HETATM   15  N   UNL     1      -9.294  10.265  66.942  1.00  0.00    -0.156 NA 
HETATM   16  C   UNL     1     -10.325   7.578  67.701  1.00  0.00    -0.295 C  
HETATM   17  C   UNL     1      -9.071   7.713  66.873  1.00  0.00    -0.171 C  
HETATM   18  C   UNL     1     -11.032   6.438  67.758  1.00  0.00    -0.425 C  
HETATM   19  C   UNL     1      -8.966   9.068  66.144  1.00  0.00    -0.177 C  
HETATM   20  C   UNL     1     -10.736   8.814  68.462  1.00  0.00    -0.108 C  
HETATM   21  C   UNL     1     -10.582  10.088  67.618  1.00  0.00    -0.270 C  
ENDBRANCH   2  15
BRANCH   8  22
HETATM   22  N   UNL     1      -8.683  11.831  71.438  1.00  0.00    10.539 NA 
HETATM   23  C   UNL     1      -8.026  13.189  72.866  1.00  0.00    13.819 A  
HETATM   24  C   UNL     1      -9.705  12.069  72.308  1.00  0.00    19.027 A  
HETATM   25  N   UNL     1      -9.311  12.913  73.233  1.00  0.00    18.247 NA 
HETATM   26  N   UNL     1      -7.600  12.558  71.770  1.00  0.00     8.878 NA 
ENDBRANCH   8  22
TORSDOF 2
ENDMDL
MODEL      175
REMARK 921   NORMALIZED FREE ENERGY PREDICTED BY IDOCK:   76.56 KCAL/MOL
REMARK 922        TOTAL FREE ENERGY PREDICTED BY IDOCK:   85.01 KCAL/MOL
REMARK 923 INTER-LIGAND FREE ENERGY PREDICTED BY IDOCK:   84.86 KCAL/MOL
REMARK 924 INTRA-LIGAND FREE ENERGY PREDICTED BY IDOCK:    0.14 KCAL/MOL
REMARK 927      BINDING AFFINITY PREDICTED BY RF-SCORE:    0.00 PKD
ROOT
HETATM    1  C   UNL     1      -8.511  12.531  73.686  1.00  0.00    19.280 C  
HETATM    2  C   UNL     1      -9.620  11.752  72.952  1.00  0.00    22.657 C  
HETATM    3  C   UNL     1      -9.030  10.559  72.057  1.00  0.00     7.887 C  
HETATM    4  C   UNL     1     -11.953   8.058  71.972  1.00  0.00    -0.375 A  
HETATM    5  O   UNL     1      -8.281   9.730  73.009  1.00  0.00     2.308 OA 
HETATM    6  C   UNL     1     -12.314   8.085  70.632  1.00  0.00     0.166 A  
HETATM    7  C   UNL     1     -10.182   9.694  71.525  1.00  0.00     0.185 A  
HETATM    8  C   UNL     1      -7.962  11.043  71.034  1.00  0.00     4.541 C  
HETATM    9  C   UNL     1     -10.896   8.856  72.414  1.00  0.00    -0.095 A  
HETATM   10  C   UNL     1     -10.621   9.725  70.193  1.00  0.00    -0.285 A  
HETATM   11  F   UNL     1     -13.323   7.314  70.207  1.00  0.00     0.128 F  
HETATM   12  H   UNL     1      -7.931   9.023  72.479  1.00  0.00     0.000 HD 
HETATM   13  F   UNL     1     -10.079  10.573  69.311  1.00  0.00    -0.197 F  
HETATM   14  C   UNL     1     -11.657   8.913  69.738  1.00  0.00     0.296 A  
ENDROOT
BRANCH   2  15
HETATM   15  N   UNL     1     -10.708  12.574  72.375  1.00  0.00    10.022 NA 
HETATM   16  C   UNL     1     -11.321  15.278  73.456  1.00  0.00     0.501 C  
HETATM   17  C   UNL     1     -11.792  14.038  74.177  1.00  0.00     2.458 C  
HETATM   18  C   UNL     1     -11.865  16.487  73.672  1.00  0.00    -0.231 C  
HETATM   19  C   UNL     1     -11.862  12.796  73.267  1.00  0.00     6.694 C  
HETATM   20  C   UNL     1     -10.199  15.070  72.471  1.00  0.00     3.377 C  
HETATM   21  C   UNL     1     -10.398  13.798  71.632  1.00  0.00     5.985 C  
ENDBRANCH   2  15
BRANCH   8  22
HETATM   22  N   UNL     1      -7.162   9.981  70.443  1.00  0.00    -0.245 NA 
HETATM   23  C   UNL     1      -5.510   8.839  69.909  1.00  0.00    -0.029 A  
HETATM   24  C   UNL     1      -7.603   8.793  69.940  1.00  0.00    -0.065 A  
HETATM   25  N   UNL     1      -6.578   8.057  69.578  1.00  0.00    -0.038 NA 
HETATM   26  N   UNL     1      -5.817  10.021  70.449  1.00  0.00    -0.061 NA 
ENDBRANCH   8  22
TORSDOF 2
ENDMDL
